data_job_05181
_audit_creation_date              2018-12-19
_audit_creation_method            'Materials Studio'
_symmetry_space_group_name_H-M    'P1'
_symmetry_Int_Tables_number       1
_symmetry_cell_setting            triclinic
loop_
_symmetry_equiv_pos_as_xyz
  x,y,z
_cell_length_a                    11.1515
_cell_length_b                    11.1515
_cell_length_c                    41.2698
_cell_angle_alpha                 90.0000
_cell_angle_beta                  90.0000
_cell_angle_gamma                 90.0000
loop_
_atom_site_label
_atom_site_type_symbol
_atom_site_fract_x
_atom_site_fract_y
_atom_site_fract_z
_atom_site_U_iso_or_equiv
_atom_site_adp_type
_atom_site_occupancy
C1     C     0.44291   0.96866   0.93012   0.00000  Uiso   1.00
C2     C     0.50170   0.08105   0.94393   0.00000  Uiso   1.00
C3     C     0.58747   0.08364   0.96829   0.00000  Uiso   1.00
C4     C     0.63013   0.19549   0.97752   0.00000  Uiso   1.00
C5     C     0.72772   0.35398   0.00120   0.00000  Uiso   1.00
C6     C     0.30816   0.98620   0.93428   0.00000  Uiso   1.00
C7     C     0.23121   0.90902   0.95051   0.00000  Uiso   1.00
C8     C     0.11096   0.94102   0.95162   0.00000  Uiso   1.00
C9     C     0.90806   0.95219   0.96029   0.00000  Uiso   1.00
C10    C     0.46626   0.97171   0.89373   0.00000  Uiso   1.00
C11    C     0.52221   0.88233   0.87586   0.00000  Uiso   1.00
C12    C     0.53503   0.90212   0.84283   0.00000  Uiso   1.00
C13    C     0.57761   0.89081   0.78853   0.00000  Uiso   1.00
C14    C     0.36617   0.16271   0.90322   0.00000  Uiso   1.00
C15    C     0.46001   0.18645   0.92932   0.00000  Uiso   1.00
C16    C     0.50257   0.29833   0.93852   0.00000  Uiso   1.00
C17    C     0.58838   0.30108   0.96288   0.00000  Uiso   1.00
C18    C     0.26648   0.09159   0.91967   0.00000  Uiso   1.00
C19    C     0.14631   0.12371   0.92075   0.00000  Uiso   1.00
C20    C     0.06920   0.04660   0.93698   0.00000  Uiso   1.00
C21    C     0.42458   0.07711   0.87911   0.00000  Uiso   1.00
C22    C     0.43731   0.09703   0.84610   0.00000  Uiso   1.00
C23    C     0.49328   0.00771   0.82819   0.00000  Uiso   1.00
H24    H     0.47535   0.88660   0.94150   0.00000  Uiso   1.00
H25    H     0.61969   0.00205   0.97959   0.00000  Uiso   1.00
H26    H     0.26349   0.82745   0.96182   0.00000  Uiso   1.00
H27    H     0.55445   0.80078   0.88718   0.00000  Uiso   1.00
H28    H     0.76131   0.17653   0.01538   0.00000  Uiso   1.00
H29    H     0.01024   0.80837   0.97790   0.00000  Uiso   1.00
H30    H     0.62377   0.75212   0.82051   0.00000  Uiso   1.00
H31    H     0.33372   0.24477   0.89184   0.00000  Uiso   1.00
H32    H     0.47029   0.37988   0.92721   0.00000  Uiso   1.00
H33    H     0.11409   0.20528   0.90944   0.00000  Uiso   1.00
H34    H     0.40505   0.17861   0.83480   0.00000  Uiso   1.00
H35    H     0.64005   0.48319   0.97287   0.00000  Uiso   1.00
H36    H     0.88897   0.11502   0.93539   0.00000  Uiso   1.00
H37    H     0.50251   0.05878   0.77800   0.00000  Uiso   1.00
O38    O     0.79304   0.41228   0.01830   0.00000  Uiso   1.00
O39    O     0.80767   0.92924   0.96911   0.00000  Uiso   1.00
O40    O     0.61262   0.85546   0.76262   0.00000  Uiso   1.00
N41    N     0.71404   0.23016   0.00052   0.00000  Uiso   1.00
N42    N     0.01184   0.88596   0.96548   0.00000  Uiso   1.00
N43    N     0.58542   0.83336   0.81833   0.00000  Uiso   1.00
N44    N     0.64879   0.39517   0.97764   0.00000  Uiso   1.00
N45    N     0.94659   0.05097   0.94260   0.00000  Uiso   1.00
N46    N     0.52017   0.99837   0.79546   0.00000  Uiso   1.00
C47    C     0.94976   0.47925   0.82221   0.00000  Uiso   1.00
C48    C     0.06096   0.53234   0.80618   0.00000  Uiso   1.00
C49    C     0.06128   0.61711   0.78156   0.00000  Uiso   1.00
C50    C     0.17236   0.65426   0.77016   0.00000  Uiso   1.00
C51    C     0.32877   0.74366   0.74333   0.00000  Uiso   1.00
C52    C     0.96006   0.34371   0.81817   0.00000  Uiso   1.00
C53    C     0.87554   0.26988   0.80363   0.00000  Uiso   1.00
C54    C     0.90168   0.14825   0.80232   0.00000  Uiso   1.00
C55    C     0.90141   0.94478   0.79412   0.00000  Uiso   1.00
C56    C     0.96306   0.50361   0.85839   0.00000  Uiso   1.00
C57    C     0.88104   0.56420   0.87767   0.00000  Uiso   1.00
C58    C     0.90970   0.57716   0.91022   0.00000  Uiso   1.00
C59    C     0.91407   0.62196   0.96446   0.00000  Uiso   1.00
C60    C     0.14646   0.39450   0.84574   0.00000  Uiso   1.00
C61    C     0.16780   0.48630   0.81896   0.00000  Uiso   1.00
C62    C     0.27891   0.52335   0.80760   0.00000  Uiso   1.00
C63    C     0.27940   0.60816   0.78297   0.00000  Uiso   1.00
C64    C     0.06690   0.29768   0.83095   0.00000  Uiso   1.00
C65    C     0.09317   0.17612   0.82967   0.00000  Uiso   1.00
C66    C     0.00872   0.10213   0.81513   0.00000  Uiso   1.00
C67    C     0.06990   0.45758   0.87117   0.00000  Uiso   1.00
C68    C     0.09868   0.47044   0.90370   0.00000  Uiso   1.00
C69    C     0.01673   0.53104   0.92302   0.00000  Uiso   1.00
H70    H     0.86658   0.51508   0.81226   0.00000  Uiso   1.00
H71    H     0.97858   0.65270   0.77168   0.00000  Uiso   1.00
H72    H     0.79286   0.30553   0.79375   0.00000  Uiso   1.00
H73    H     0.79837   0.59980   0.86777   0.00000  Uiso   1.00
H74    H     0.14987   0.78495   0.73232   0.00000  Uiso   1.00
H75    H     0.75826   0.05291   0.77886   0.00000  Uiso   1.00
H76    H     0.76987   0.67345   0.93495   0.00000  Uiso   1.00
H77    H     0.22964   0.35866   0.85569   0.00000  Uiso   1.00
H78    H     0.36158   0.48771   0.81749   0.00000  Uiso   1.00
H79    H     0.17585   0.14053   0.83956   0.00000  Uiso   1.00
H80    H     0.18136   0.43481   0.91358   0.00000  Uiso   1.00
H81    H     0.46072   0.65103   0.76950   0.00000  Uiso   1.00
H82    H     0.06911   0.91899   0.81605   0.00000  Uiso   1.00
H83    H     0.08073   0.53953   0.97213   0.00000  Uiso   1.00
O84    O     0.38553   0.80567   0.72499   0.00000  Uiso   1.00
O85    O     0.87174   0.84527   0.78606   0.00000  Uiso   1.00
O86    O     0.88698   0.65940   0.99084   0.00000  Uiso   1.00
N87    N     0.20492   0.73574   0.74632   0.00000  Uiso   1.00
N88    N     0.83880   0.05133   0.78983   0.00000  Uiso   1.00
N89    N     0.84964   0.63145   0.93575   0.00000  Uiso   1.00
N90    N     0.37219   0.66368   0.76632   0.00000  Uiso   1.00
N91    N     0.00607   0.97927   0.80983   0.00000  Uiso   1.00
N92    N     0.01691   0.55939   0.95576   0.00000  Uiso   1.00
C93    C     0.55709   0.03134   0.43012   0.00000  Uiso   1.00
C94    C     0.49830   0.91895   0.44393   0.00000  Uiso   1.00
C95    C     0.41253   0.91636   0.46829   0.00000  Uiso   1.00
C96    C     0.36987   0.80451   0.47752   0.00000  Uiso   1.00
C97    C     0.27228   0.64602   0.50120   0.00000  Uiso   1.00
C98    C     0.69184   0.01380   0.43428   0.00000  Uiso   1.00
C99    C     0.76879   0.09098   0.45051   0.00000  Uiso   1.00
C100   C     0.88904   0.05898   0.45162   0.00000  Uiso   1.00
C101   C     0.09194   0.04781   0.46029   0.00000  Uiso   1.00
C102   C     0.53374   0.02829   0.39373   0.00000  Uiso   1.00
C103   C     0.47779   0.11767   0.37586   0.00000  Uiso   1.00
C104   C     0.46497   0.09788   0.34283   0.00000  Uiso   1.00
C105   C     0.42239   0.10919   0.28853   0.00000  Uiso   1.00
C106   C     0.63383   0.83729   0.40322   0.00000  Uiso   1.00
C107   C     0.53999   0.81355   0.42932   0.00000  Uiso   1.00
C108   C     0.49743   0.70167   0.43852   0.00000  Uiso   1.00
C109   C     0.41162   0.69892   0.46288   0.00000  Uiso   1.00
C110   C     0.73352   0.90841   0.41967   0.00000  Uiso   1.00
C111   C     0.85369   0.87629   0.42075   0.00000  Uiso   1.00
C112   C     0.93080   0.95340   0.43698   0.00000  Uiso   1.00
C113   C     0.57542   0.92289   0.37911   0.00000  Uiso   1.00
C114   C     0.56269   0.90297   0.34610   0.00000  Uiso   1.00
C115   C     0.50672   0.99229   0.32819   0.00000  Uiso   1.00
H116   H     0.52465   0.11340   0.44150   0.00000  Uiso   1.00
H117   H     0.38031   0.99795   0.47959   0.00000  Uiso   1.00
H118   H     0.73651   0.17255   0.46182   0.00000  Uiso   1.00
H119   H     0.44555   0.19922   0.38718   0.00000  Uiso   1.00
H120   H     0.23869   0.82347   0.51538   0.00000  Uiso   1.00
H121   H     0.98976   0.19163   0.47790   0.00000  Uiso   1.00
H122   H     0.37623   0.24788   0.32051   0.00000  Uiso   1.00
H123   H     0.66628   0.75523   0.39184   0.00000  Uiso   1.00
H124   H     0.52971   0.62012   0.42721   0.00000  Uiso   1.00
H125   H     0.88591   0.79472   0.40944   0.00000  Uiso   1.00
H126   H     0.59495   0.82139   0.33480   0.00000  Uiso   1.00
H127   H     0.35995   0.51681   0.47287   0.00000  Uiso   1.00
H128   H     0.11103   0.88498   0.43539   0.00000  Uiso   1.00
H129   H     0.49749   0.94122   0.27800   0.00000  Uiso   1.00
O130   O     0.20696   0.58772   0.51830   0.00000  Uiso   1.00
O131   O     0.19233   0.07076   0.46911   0.00000  Uiso   1.00
O132   O     0.38738   0.14454   0.26262   0.00000  Uiso   1.00
N133   N     0.28596   0.76984   0.50052   0.00000  Uiso   1.00
N134   N     0.98816   0.11404   0.46548   0.00000  Uiso   1.00
N135   N     0.41458   0.16664   0.31833   0.00000  Uiso   1.00
N136   N     0.35121   0.60483   0.47764   0.00000  Uiso   1.00
N137   N     0.05341   0.94903   0.44260   0.00000  Uiso   1.00
N138   N     0.47983   0.00163   0.29546   0.00000  Uiso   1.00
C139   C     0.05024   0.52075   0.32221   0.00000  Uiso   1.00
C140   C     0.93904   0.46766   0.30618   0.00000  Uiso   1.00
C141   C     0.93872   0.38289   0.28156   0.00000  Uiso   1.00
C142   C     0.82764   0.34574   0.27016   0.00000  Uiso   1.00
C143   C     0.67123   0.25634   0.24333   0.00000  Uiso   1.00
C144   C     0.03994   0.65629   0.31817   0.00000  Uiso   1.00
C145   C     0.12446   0.73012   0.30363   0.00000  Uiso   1.00
C146   C     0.09832   0.85175   0.30232   0.00000  Uiso   1.00
C147   C     0.09859   0.05522   0.29412   0.00000  Uiso   1.00
C148   C     0.03694   0.49639   0.35839   0.00000  Uiso   1.00
C149   C     0.11896   0.43580   0.37767   0.00000  Uiso   1.00
C150   C     0.09030   0.42284   0.41022   0.00000  Uiso   1.00
C151   C     0.08593   0.37804   0.46446   0.00000  Uiso   1.00
C152   C     0.85354   0.60550   0.34574   0.00000  Uiso   1.00
C153   C     0.83220   0.51370   0.31896   0.00000  Uiso   1.00
C154   C     0.72109   0.47665   0.30760   0.00000  Uiso   1.00
C155   C     0.72060   0.39184   0.28297   0.00000  Uiso   1.00
C156   C     0.93310   0.70232   0.33095   0.00000  Uiso   1.00
C157   C     0.90683   0.82388   0.32967   0.00000  Uiso   1.00
C158   C     0.99128   0.89787   0.31513   0.00000  Uiso   1.00
C159   C     0.93010   0.54242   0.37117   0.00000  Uiso   1.00
C160   C     0.90132   0.52956   0.40370   0.00000  Uiso   1.00
C161   C     0.98327   0.46896   0.42302   0.00000  Uiso   1.00
H162   H     0.13342   0.48492   0.31226   0.00000  Uiso   1.00
H163   H     0.02142   0.34730   0.27168   0.00000  Uiso   1.00
H164   H     0.20714   0.69447   0.29375   0.00000  Uiso   1.00
H165   H     0.20163   0.40020   0.36777   0.00000  Uiso   1.00
H166   H     0.85013   0.21505   0.23232   0.00000  Uiso   1.00
H167   H     0.24174   0.94709   0.27886   0.00000  Uiso   1.00
H168   H     0.23013   0.32655   0.43495   0.00000  Uiso   1.00
H169   H     0.77036   0.64134   0.35569   0.00000  Uiso   1.00
H170   H     0.63842   0.51229   0.31749   0.00000  Uiso   1.00
H171   H     0.82415   0.85947   0.33956   0.00000  Uiso   1.00
H172   H     0.81864   0.56519   0.41358   0.00000  Uiso   1.00
H173   H     0.53928   0.34897   0.26950   0.00000  Uiso   1.00
H174   H     0.93089   0.08101   0.31605   0.00000  Uiso   1.00
H175   H     0.91927   0.46047   0.47213   0.00000  Uiso   1.00
O176   O     0.61447   0.19433   0.22499   0.00000  Uiso   1.00
O177   O     0.12826   0.15473   0.28606   0.00000  Uiso   1.00
O178   O     0.11302   0.34060   0.49084   0.00000  Uiso   1.00
N179   N     0.79508   0.26426   0.24632   0.00000  Uiso   1.00
N180   N     0.16120   0.94867   0.28983   0.00000  Uiso   1.00
N181   N     0.15036   0.36855   0.43575   0.00000  Uiso   1.00
N182   N     0.62781   0.33632   0.26632   0.00000  Uiso   1.00
N183   N     0.99393   0.02073   0.30983   0.00000  Uiso   1.00
N184   N     0.98309   0.44061   0.45576   0.00000  Uiso   1.00
C185   C     0.03134   0.44291   0.18012   0.00000  Uiso   1.00
C186   C     0.91895   0.50170   0.19393   0.00000  Uiso   1.00
C187   C     0.91636   0.58747   0.21829   0.00000  Uiso   1.00
C188   C     0.80451   0.63013   0.22752   0.00000  Uiso   1.00
C189   C     0.64602   0.72772   0.25120   0.00000  Uiso   1.00
C190   C     0.01380   0.30816   0.18428   0.00000  Uiso   1.00
C191   C     0.09098   0.23121   0.20051   0.00000  Uiso   1.00
C192   C     0.05898   0.11096   0.20162   0.00000  Uiso   1.00
C193   C     0.04781   0.90806   0.21029   0.00000  Uiso   1.00
C194   C     0.02829   0.46626   0.14373   0.00000  Uiso   1.00
C195   C     0.11767   0.52221   0.12586   0.00000  Uiso   1.00
C196   C     0.09788   0.53503   0.09283   0.00000  Uiso   1.00
C197   C     0.10919   0.57761   0.03853   0.00000  Uiso   1.00
C198   C     0.83729   0.36617   0.15322   0.00000  Uiso   1.00
C199   C     0.81355   0.46001   0.17932   0.00000  Uiso   1.00
C200   C     0.70167   0.50257   0.18852   0.00000  Uiso   1.00
C201   C     0.69892   0.58838   0.21288   0.00000  Uiso   1.00
C202   C     0.90841   0.26648   0.16967   0.00000  Uiso   1.00
C203   C     0.87629   0.14631   0.17075   0.00000  Uiso   1.00
C204   C     0.95340   0.06920   0.18698   0.00000  Uiso   1.00
C205   C     0.92289   0.42458   0.12911   0.00000  Uiso   1.00
C206   C     0.90297   0.43731   0.09610   0.00000  Uiso   1.00
C207   C     0.99229   0.49328   0.07819   0.00000  Uiso   1.00
H208   H     0.11340   0.47535   0.19150   0.00000  Uiso   1.00
H209   H     0.99795   0.61969   0.22959   0.00000  Uiso   1.00
H210   H     0.17255   0.26349   0.21182   0.00000  Uiso   1.00
H211   H     0.19922   0.55445   0.13718   0.00000  Uiso   1.00
H212   H     0.82347   0.76131   0.26538   0.00000  Uiso   1.00
H213   H     0.19163   0.01024   0.22790   0.00000  Uiso   1.00
H214   H     0.24788   0.62377   0.07051   0.00000  Uiso   1.00
H215   H     0.75523   0.33372   0.14184   0.00000  Uiso   1.00
H216   H     0.62012   0.47029   0.17721   0.00000  Uiso   1.00
H217   H     0.79472   0.11409   0.15944   0.00000  Uiso   1.00
H218   H     0.82139   0.40505   0.08480   0.00000  Uiso   1.00
H219   H     0.51681   0.64005   0.22287   0.00000  Uiso   1.00
H220   H     0.88498   0.88897   0.18539   0.00000  Uiso   1.00
H221   H     0.94122   0.50251   0.02800   0.00000  Uiso   1.00
O222   O     0.58772   0.79304   0.26830   0.00000  Uiso   1.00
O223   O     0.07076   0.80767   0.21911   0.00000  Uiso   1.00
O224   O     0.14454   0.61262   0.01262   0.00000  Uiso   1.00
N225   N     0.76984   0.71404   0.25052   0.00000  Uiso   1.00
N226   N     0.11404   0.01184   0.21548   0.00000  Uiso   1.00
N227   N     0.16664   0.58542   0.06833   0.00000  Uiso   1.00
N228   N     0.60483   0.64879   0.22764   0.00000  Uiso   1.00
N229   N     0.94903   0.94659   0.19260   0.00000  Uiso   1.00
N230   N     0.00163   0.52017   0.04546   0.00000  Uiso   1.00
C231   C     0.52075   0.94976   0.07221   0.00000  Uiso   1.00
C232   C     0.46766   0.06096   0.05618   0.00000  Uiso   1.00
C233   C     0.38289   0.06128   0.03156   0.00000  Uiso   1.00
C234   C     0.34574   0.17236   0.02016   0.00000  Uiso   1.00
C235   C     0.25634   0.32877   0.99333   0.00000  Uiso   1.00
C236   C     0.65629   0.96006   0.06817   0.00000  Uiso   1.00
C237   C     0.73012   0.87554   0.05363   0.00000  Uiso   1.00
C238   C     0.85175   0.90168   0.05232   0.00000  Uiso   1.00
C239   C     0.05522   0.90141   0.04412   0.00000  Uiso   1.00
C240   C     0.49639   0.96306   0.10839   0.00000  Uiso   1.00
C241   C     0.43580   0.88104   0.12767   0.00000  Uiso   1.00
C242   C     0.42284   0.90970   0.16022   0.00000  Uiso   1.00
C243   C     0.37804   0.91407   0.21446   0.00000  Uiso   1.00
C244   C     0.60550   0.14646   0.09574   0.00000  Uiso   1.00
C245   C     0.51370   0.16780   0.06896   0.00000  Uiso   1.00
C246   C     0.47665   0.27891   0.05760   0.00000  Uiso   1.00
C247   C     0.39184   0.27940   0.03297   0.00000  Uiso   1.00
C248   C     0.70232   0.06690   0.08095   0.00000  Uiso   1.00
C249   C     0.82388   0.09317   0.07967   0.00000  Uiso   1.00
C250   C     0.89787   0.00872   0.06513   0.00000  Uiso   1.00
C251   C     0.54242   0.06990   0.12117   0.00000  Uiso   1.00
C252   C     0.52956   0.09868   0.15370   0.00000  Uiso   1.00
C253   C     0.46896   0.01673   0.17302   0.00000  Uiso   1.00
H254   H     0.48492   0.86658   0.06226   0.00000  Uiso   1.00
H255   H     0.34730   0.97858   0.02168   0.00000  Uiso   1.00
H256   H     0.69447   0.79286   0.04375   0.00000  Uiso   1.00
H257   H     0.40020   0.79837   0.11777   0.00000  Uiso   1.00
H258   H     0.21505   0.14987   0.98232   0.00000  Uiso   1.00
H259   H     0.94709   0.75826   0.02886   0.00000  Uiso   1.00
H260   H     0.32655   0.76987   0.18495   0.00000  Uiso   1.00
H261   H     0.64134   0.22964   0.10569   0.00000  Uiso   1.00
H262   H     0.51229   0.36158   0.06749   0.00000  Uiso   1.00
H263   H     0.85947   0.17585   0.08956   0.00000  Uiso   1.00
H264   H     0.56519   0.18136   0.16358   0.00000  Uiso   1.00
H265   H     0.34897   0.46072   0.01950   0.00000  Uiso   1.00
H266   H     0.08101   0.06911   0.06605   0.00000  Uiso   1.00
H267   H     0.46047   0.08073   0.22213   0.00000  Uiso   1.00
O268   O     0.19433   0.38553   0.97499   0.00000  Uiso   1.00
O269   O     0.15473   0.87174   0.03606   0.00000  Uiso   1.00
O270   O     0.34060   0.88698   0.24084   0.00000  Uiso   1.00
N271   N     0.26426   0.20492   0.99632   0.00000  Uiso   1.00
N272   N     0.94867   0.83880   0.03983   0.00000  Uiso   1.00
N273   N     0.36855   0.84964   0.18575   0.00000  Uiso   1.00
N274   N     0.33632   0.37219   0.01632   0.00000  Uiso   1.00
N275   N     0.02073   0.00607   0.05983   0.00000  Uiso   1.00
N276   N     0.44061   0.01691   0.20576   0.00000  Uiso   1.00
C277   C     0.96866   0.55709   0.68012   0.00000  Uiso   1.00
C278   C     0.08105   0.49830   0.69393   0.00000  Uiso   1.00
C279   C     0.08364   0.41253   0.71829   0.00000  Uiso   1.00
C280   C     0.19549   0.36987   0.72752   0.00000  Uiso   1.00
C281   C     0.35398   0.27228   0.75120   0.00000  Uiso   1.00
C282   C     0.98620   0.69184   0.68428   0.00000  Uiso   1.00
C283   C     0.90902   0.76879   0.70051   0.00000  Uiso   1.00
C284   C     0.94102   0.88904   0.70162   0.00000  Uiso   1.00
C285   C     0.95219   0.09194   0.71029   0.00000  Uiso   1.00
C286   C     0.97171   0.53374   0.64373   0.00000  Uiso   1.00
C287   C     0.88233   0.47779   0.62586   0.00000  Uiso   1.00
C288   C     0.90212   0.46497   0.59283   0.00000  Uiso   1.00
C289   C     0.89081   0.42239   0.53853   0.00000  Uiso   1.00
C290   C     0.16271   0.63383   0.65322   0.00000  Uiso   1.00
C291   C     0.18645   0.53999   0.67932   0.00000  Uiso   1.00
C292   C     0.29833   0.49743   0.68852   0.00000  Uiso   1.00
C293   C     0.30108   0.41162   0.71288   0.00000  Uiso   1.00
C294   C     0.09159   0.73352   0.66967   0.00000  Uiso   1.00
C295   C     0.12371   0.85369   0.67075   0.00000  Uiso   1.00
C296   C     0.04660   0.93080   0.68698   0.00000  Uiso   1.00
C297   C     0.07711   0.57542   0.62911   0.00000  Uiso   1.00
C298   C     0.09703   0.56269   0.59610   0.00000  Uiso   1.00
C299   C     0.00771   0.50672   0.57819   0.00000  Uiso   1.00
H300   H     0.88660   0.52465   0.69150   0.00000  Uiso   1.00
H301   H     0.00205   0.38031   0.72959   0.00000  Uiso   1.00
H302   H     0.82745   0.73651   0.71182   0.00000  Uiso   1.00
H303   H     0.80078   0.44555   0.63718   0.00000  Uiso   1.00
H304   H     0.17653   0.23869   0.76538   0.00000  Uiso   1.00
H305   H     0.80837   0.98976   0.72790   0.00000  Uiso   1.00
H306   H     0.75212   0.37623   0.57051   0.00000  Uiso   1.00
H307   H     0.24477   0.66628   0.64184   0.00000  Uiso   1.00
H308   H     0.37988   0.52971   0.67721   0.00000  Uiso   1.00
H309   H     0.20528   0.88591   0.65944   0.00000  Uiso   1.00
H310   H     0.17861   0.59495   0.58480   0.00000  Uiso   1.00
H311   H     0.48319   0.35995   0.72287   0.00000  Uiso   1.00
H312   H     0.11502   0.11103   0.68539   0.00000  Uiso   1.00
H313   H     0.05878   0.49749   0.52800   0.00000  Uiso   1.00
O314   O     0.41228   0.20696   0.76830   0.00000  Uiso   1.00
O315   O     0.92924   0.19233   0.71911   0.00000  Uiso   1.00
O316   O     0.85546   0.38738   0.51262   0.00000  Uiso   1.00
N317   N     0.23016   0.28596   0.75052   0.00000  Uiso   1.00
N318   N     0.88596   0.98816   0.71548   0.00000  Uiso   1.00
N319   N     0.83336   0.41458   0.56833   0.00000  Uiso   1.00
N320   N     0.39517   0.35121   0.72764   0.00000  Uiso   1.00
N321   N     0.05097   0.05341   0.69260   0.00000  Uiso   1.00
N322   N     0.99837   0.47983   0.54546   0.00000  Uiso   1.00
C323   C     0.47925   0.05024   0.57221   0.00000  Uiso   1.00
C324   C     0.53234   0.93904   0.55618   0.00000  Uiso   1.00
C325   C     0.61711   0.93872   0.53156   0.00000  Uiso   1.00
C326   C     0.65426   0.82764   0.52016   0.00000  Uiso   1.00
C327   C     0.74366   0.67123   0.49333   0.00000  Uiso   1.00
C328   C     0.34371   0.03994   0.56817   0.00000  Uiso   1.00
C329   C     0.26988   0.12446   0.55363   0.00000  Uiso   1.00
C330   C     0.14825   0.09832   0.55232   0.00000  Uiso   1.00
C331   C     0.94478   0.09859   0.54412   0.00000  Uiso   1.00
C332   C     0.50361   0.03694   0.60839   0.00000  Uiso   1.00
C333   C     0.56420   0.11896   0.62767   0.00000  Uiso   1.00
C334   C     0.57716   0.09030   0.66022   0.00000  Uiso   1.00
C335   C     0.62196   0.08593   0.71446   0.00000  Uiso   1.00
C336   C     0.39450   0.85354   0.59574   0.00000  Uiso   1.00
C337   C     0.48630   0.83220   0.56896   0.00000  Uiso   1.00
C338   C     0.52335   0.72109   0.55760   0.00000  Uiso   1.00
C339   C     0.60816   0.72060   0.53297   0.00000  Uiso   1.00
C340   C     0.29768   0.93310   0.58095   0.00000  Uiso   1.00
C341   C     0.17612   0.90683   0.57967   0.00000  Uiso   1.00
C342   C     0.10213   0.99128   0.56513   0.00000  Uiso   1.00
C343   C     0.45758   0.93010   0.62117   0.00000  Uiso   1.00
C344   C     0.47044   0.90132   0.65370   0.00000  Uiso   1.00
C345   C     0.53104   0.98327   0.67302   0.00000  Uiso   1.00
H346   H     0.51508   0.13342   0.56226   0.00000  Uiso   1.00
H347   H     0.65270   0.02142   0.52168   0.00000  Uiso   1.00
H348   H     0.30553   0.20714   0.54375   0.00000  Uiso   1.00
H349   H     0.59980   0.20163   0.61777   0.00000  Uiso   1.00
H350   H     0.78495   0.85013   0.48232   0.00000  Uiso   1.00
H351   H     0.05291   0.24174   0.52886   0.00000  Uiso   1.00
H352   H     0.67345   0.23013   0.68495   0.00000  Uiso   1.00
H353   H     0.35866   0.77036   0.60569   0.00000  Uiso   1.00
H354   H     0.48771   0.63842   0.56749   0.00000  Uiso   1.00
H355   H     0.14053   0.82415   0.58956   0.00000  Uiso   1.00
H356   H     0.43481   0.81864   0.66358   0.00000  Uiso   1.00
H357   H     0.65103   0.53928   0.51950   0.00000  Uiso   1.00
H358   H     0.91899   0.93089   0.56605   0.00000  Uiso   1.00
H359   H     0.53953   0.91927   0.72213   0.00000  Uiso   1.00
O360   O     0.80567   0.61447   0.47499   0.00000  Uiso   1.00
O361   O     0.84527   0.12826   0.53606   0.00000  Uiso   1.00
O362   O     0.65940   0.11302   0.74084   0.00000  Uiso   1.00
N363   N     0.73574   0.79508   0.49632   0.00000  Uiso   1.00
N364   N     0.05133   0.16120   0.53983   0.00000  Uiso   1.00
N365   N     0.63145   0.15036   0.68575   0.00000  Uiso   1.00
N366   N     0.66368   0.62781   0.51632   0.00000  Uiso   1.00
N367   N     0.97927   0.99393   0.55983   0.00000  Uiso   1.00
N368   N     0.55939   0.98309   0.70576   0.00000  Uiso   1.00
