data_job_03073
_audit_creation_date              2018-12-19
_audit_creation_method            'Materials Studio'
_symmetry_space_group_name_H-M    'P1'
_symmetry_Int_Tables_number       1
_symmetry_cell_setting            triclinic
loop_
_symmetry_equiv_pos_as_xyz
  x,y,z
_cell_length_a                    8.4489
_cell_length_b                    12.3390
_cell_length_c                    16.0769
_cell_angle_alpha                 79.7842
_cell_angle_beta                  91.3787
_cell_angle_gamma                 73.7450
loop_
_atom_site_label
_atom_site_type_symbol
_atom_site_fract_x
_atom_site_fract_y
_atom_site_fract_z
_atom_site_U_iso_or_equiv
_atom_site_adp_type
_atom_site_occupancy
C1     C     0.49137   0.72737   0.12605   0.00000  Uiso   1.00
C2     C     0.31108   0.76475   0.09087   0.00000  Uiso   1.00
C3     C     0.25225   0.81917   0.00828   0.00000  Uiso   1.00
C4     C     0.08309   0.84636   0.98861   0.00000  Uiso   1.00
C5     C     0.81932   0.90846   0.92474   0.00000  Uiso   1.00
C6     C     0.49560   0.78529   0.20202   0.00000  Uiso   1.00
C7     C     0.59193   0.85697   0.21288   0.00000  Uiso   1.00
C8     C     0.57810   0.90143   0.28678   0.00000  Uiso   1.00
C9     C     0.60090   0.99536   0.39550   0.00000  Uiso   1.00
C10    C     0.53322   0.59883   0.16196   0.00000  Uiso   1.00
C11    C     0.66121   0.51373   0.13917   0.00000  Uiso   1.00
C12    C     0.67908   0.40120   0.17936   0.00000  Uiso   1.00
C13    C     0.76029   0.20562   0.22588   0.00000  Uiso   1.00
C14    C     0.29555   0.67886   0.23796   0.00000  Uiso   1.00
C15    C     0.20473   0.73840   0.15166   0.00000  Uiso   1.00
C16    C     0.03561   0.76550   0.13210   0.00000  Uiso   1.00
C17    C     0.97653   0.81995   0.04950   0.00000  Uiso   1.00
C18    C     0.38925   0.75895   0.26280   0.00000  Uiso   1.00
C19    C     0.37529   0.80330   0.33670   0.00000  Uiso   1.00
C20    C     0.47156   0.87503   0.34767   0.00000  Uiso   1.00
C21    C     0.42686   0.57248   0.22275   0.00000  Uiso   1.00
C22    C     0.44455   0.46006   0.26298   0.00000  Uiso   1.00
C23    C     0.57253   0.37480   0.24025   0.00000  Uiso   1.00
H24    H     0.57417   0.74789   0.07873   0.00000  Uiso   1.00
H25    H     0.33460   0.83956   0.96126   0.00000  Uiso   1.00
H26    H     0.67424   0.87734   0.16584   0.00000  Uiso   1.00
H27    H     0.74349   0.53415   0.09213   0.00000  Uiso   1.00
H28    H     0.02207   0.92962   0.85784   0.00000  Uiso   1.00
H29    H     0.73826   0.00924   0.28921   0.00000  Uiso   1.00
H30    H     0.88431   0.28557   0.13378   0.00000  Uiso   1.00
H31    H     0.21275   0.65834   0.28529   0.00000  Uiso   1.00
H32    H     0.95333   0.74510   0.17915   0.00000  Uiso   1.00
H33    H     0.29298   0.78288   0.38372   0.00000  Uiso   1.00
H34    H     0.36223   0.43970   0.31002   0.00000  Uiso   1.00
H35    H     0.71262   0.85295   0.03469   0.00000  Uiso   1.00
H36    H     0.42882   0.93258   0.46606   0.00000  Uiso   1.00
H37    H     0.57485   0.20891   0.31063   0.00000  Uiso   1.00
O38    O     0.70321   0.95001   0.87273   0.00000  Uiso   1.00
O39    O     0.64285   0.05446   0.43867   0.00000  Uiso   1.00
O40    O     0.83444   0.10502   0.23475   0.00000  Uiso   1.00
N41    N     0.98485   0.89965   0.91403   0.00000  Uiso   1.00
N42    N     0.65442   0.97411   0.31732   0.00000  Uiso   1.00
N43    N     0.79099   0.29754   0.17203   0.00000  Uiso   1.00
N44    N     0.81834   0.85839   0.00918   0.00000  Uiso   1.00
N45    N     0.48791   0.93286   0.41248   0.00000  Uiso   1.00
N46    N     0.62448   0.25628   0.26719   0.00000  Uiso   1.00
C47    C     0.50863   0.27263   0.87395   0.00000  Uiso   1.00
C48    C     0.68892   0.23525   0.90913   0.00000  Uiso   1.00
C49    C     0.74775   0.18083   0.99172   0.00000  Uiso   1.00
C50    C     0.91691   0.15364   0.01139   0.00000  Uiso   1.00
C51    C     0.18068   0.09154   0.07526   0.00000  Uiso   1.00
C52    C     0.50440   0.21471   0.79798   0.00000  Uiso   1.00
C53    C     0.40807   0.14303   0.78712   0.00000  Uiso   1.00
C54    C     0.42190   0.09857   0.71322   0.00000  Uiso   1.00
C55    C     0.39910   0.00464   0.60450   0.00000  Uiso   1.00
C56    C     0.46678   0.40117   0.83804   0.00000  Uiso   1.00
C57    C     0.33879   0.48627   0.86083   0.00000  Uiso   1.00
C58    C     0.32092   0.59880   0.82064   0.00000  Uiso   1.00
C59    C     0.23971   0.79438   0.77412   0.00000  Uiso   1.00
C60    C     0.70445   0.32114   0.76204   0.00000  Uiso   1.00
C61    C     0.79527   0.26160   0.84834   0.00000  Uiso   1.00
C62    C     0.96439   0.23450   0.86790   0.00000  Uiso   1.00
C63    C     0.02347   0.18005   0.95050   0.00000  Uiso   1.00
C64    C     0.61075   0.24105   0.73720   0.00000  Uiso   1.00
C65    C     0.62471   0.19670   0.66330   0.00000  Uiso   1.00
C66    C     0.52844   0.12497   0.65233   0.00000  Uiso   1.00
C67    C     0.57314   0.42752   0.77725   0.00000  Uiso   1.00
C68    C     0.55545   0.53994   0.73702   0.00000  Uiso   1.00
C69    C     0.42747   0.62520   0.75975   0.00000  Uiso   1.00
H70    H     0.42583   0.25211   0.92127   0.00000  Uiso   1.00
H71    H     0.66540   0.16044   0.03874   0.00000  Uiso   1.00
H72    H     0.32576   0.12266   0.83416   0.00000  Uiso   1.00
H73    H     0.25651   0.46585   0.90787   0.00000  Uiso   1.00
H74    H     0.97793   0.07038   0.14216   0.00000  Uiso   1.00
H75    H     0.26174   0.99076   0.71079   0.00000  Uiso   1.00
H76    H     0.11569   0.71443   0.86622   0.00000  Uiso   1.00
H77    H     0.78725   0.34166   0.71471   0.00000  Uiso   1.00
H78    H     0.04667   0.25490   0.82085   0.00000  Uiso   1.00
H79    H     0.70702   0.21712   0.61628   0.00000  Uiso   1.00
H80    H     0.63777   0.56030   0.68998   0.00000  Uiso   1.00
H81    H     0.28738   0.14705   0.96531   0.00000  Uiso   1.00
H82    H     0.57118   0.06742   0.53394   0.00000  Uiso   1.00
H83    H     0.42515   0.79109   0.68937   0.00000  Uiso   1.00
O84    O     0.29679   0.04999   0.12727   0.00000  Uiso   1.00
O85    O     0.35715   0.94554   0.56133   0.00000  Uiso   1.00
O86    O     0.16556   0.89498   0.76525   0.00000  Uiso   1.00
N87    N     0.01515   0.10035   0.08597   0.00000  Uiso   1.00
N88    N     0.34558   0.02589   0.68268   0.00000  Uiso   1.00
N89    N     0.20901   0.70246   0.82797   0.00000  Uiso   1.00
N90    N     0.18166   0.14161   0.99082   0.00000  Uiso   1.00
N91    N     0.51209   0.06714   0.58752   0.00000  Uiso   1.00
N92    N     0.37552   0.74372   0.73281   0.00000  Uiso   1.00
