data_job_02687
_audit_creation_date              2018-12-19
_audit_creation_method            'Materials Studio'
_symmetry_space_group_name_H-M    'P1'
_symmetry_Int_Tables_number       1
_symmetry_cell_setting            triclinic
loop_
_symmetry_equiv_pos_as_xyz
  x,y,z
_cell_length_a                    20.5018
_cell_length_b                    20.5018
_cell_length_c                    12.2692
_cell_angle_alpha                 90.0000
_cell_angle_beta                  90.0000
_cell_angle_gamma                 90.0000
loop_
_atom_site_label
_atom_site_type_symbol
_atom_site_fract_x
_atom_site_fract_y
_atom_site_fract_z
_atom_site_U_iso_or_equiv
_atom_site_adp_type
_atom_site_occupancy
C1     C     0.06205   0.84852   0.52077   0.00000  Uiso   1.00
C2     C     0.09123   0.87408   0.62681   0.00000  Uiso   1.00
C3     C     0.06838   0.92695   0.68622   0.00000  Uiso   1.00
C4     C     0.10184   0.94259   0.78106   0.00000  Uiso   1.00
C5     C     0.13891   0.98777   0.94051   0.00000  Uiso   1.00
C6     C     0.11731   0.84923   0.43759   0.00000  Uiso   1.00
C7     C     0.11638   0.88120   0.33789   0.00000  Uiso   1.00
C8     C     0.17179   0.87591   0.27344   0.00000  Uiso   1.00
C9     C     0.24933   0.88246   0.13908   0.00000  Uiso   1.00
C10    C     0.04618   0.77687   0.54093   0.00000  Uiso   1.00
C11    C     0.98544   0.74799   0.52809   0.00000  Uiso   1.00
C12    C     0.98097   0.68177   0.55062   0.00000  Uiso   1.00
C13    C     0.94807   0.57597   0.57671   0.00000  Uiso   1.00
C14    C     0.16212   0.78228   0.58356   0.00000  Uiso   1.00
C15    C     0.14559   0.83810   0.66092   0.00000  Uiso   1.00
C16    C     0.17910   0.85366   0.75570   0.00000  Uiso   1.00
C17    C     0.15629   0.90655   0.81524   0.00000  Uiso   1.00
C18    C     0.17167   0.81325   0.47169   0.00000  Uiso   1.00
C19    C     0.22709   0.80790   0.40737   0.00000  Uiso   1.00
C20    C     0.22624   0.83986   0.30761   0.00000  Uiso   1.00
C21    C     0.10054   0.74088   0.57504   0.00000  Uiso   1.00
C22    C     0.09616   0.67469   0.59758   0.00000  Uiso   1.00
C23    C     0.03543   0.64572   0.58479   0.00000  Uiso   1.00
H24    H     0.01973   0.87654   0.49420   0.00000  Uiso   1.00
H25    H     0.02631   0.95479   0.65979   0.00000  Uiso   1.00
H26    H     0.07430   0.90904   0.31151   0.00000  Uiso   1.00
H27    H     0.94339   0.77585   0.50170   0.00000  Uiso   1.00
H28    H     0.05760   0.02570   0.85839   0.00000  Uiso   1.00
H29    H     0.15877   0.92920   0.12402   0.00000  Uiso   1.00
H30    H     0.88272   0.64835   0.52505   0.00000  Uiso   1.00
H31    H     0.20444   0.75426   0.61012   0.00000  Uiso   1.00
H32    H     0.22116   0.82580   0.78207   0.00000  Uiso   1.00
H33    H     0.26915   0.78005   0.43379   0.00000  Uiso   1.00
H34    H     0.13823   0.64686   0.62397   0.00000  Uiso   1.00
H35    H     0.21574   0.92101   0.95764   0.00000  Uiso   1.00
H36    H     0.31692   0.82451   0.22326   0.00000  Uiso   1.00
H37    H     0.04086   0.54366   0.62429   0.00000  Uiso   1.00
O38    O     0.14435   0.02264   0.01902   0.00000  Uiso   1.00
O39    O     0.27708   0.89603   0.05554   0.00000  Uiso   1.00
O40    O     0.91490   0.52756   0.58169   0.00000  Uiso   1.00
N41    N     0.09251   0.99123   0.85817   0.00000  Uiso   1.00
N42    N     0.18711   0.90102   0.17157   0.00000  Uiso   1.00
N43    N     0.92903   0.63844   0.54648   0.00000  Uiso   1.00
N44    N     0.17761   0.93490   0.91157   0.00000  Uiso   1.00
N45    N     0.27221   0.84469   0.22498   0.00000  Uiso   1.00
N46    N     0.01412   0.58211   0.59988   0.00000  Uiso   1.00
C47    C     0.93795   0.15148   0.52077   0.00000  Uiso   1.00
C48    C     0.90877   0.12592   0.62681   0.00000  Uiso   1.00
C49    C     0.93162   0.07305   0.68622   0.00000  Uiso   1.00
C50    C     0.89816   0.05741   0.78106   0.00000  Uiso   1.00
C51    C     0.86109   0.01223   0.94051   0.00000  Uiso   1.00
C52    C     0.88269   0.15077   0.43759   0.00000  Uiso   1.00
C53    C     0.88362   0.11880   0.33789   0.00000  Uiso   1.00
C54    C     0.82821   0.12409   0.27344   0.00000  Uiso   1.00
C55    C     0.75067   0.11754   0.13908   0.00000  Uiso   1.00
C56    C     0.95382   0.22313   0.54093   0.00000  Uiso   1.00
C57    C     0.01456   0.25201   0.52809   0.00000  Uiso   1.00
C58    C     0.01903   0.31823   0.55062   0.00000  Uiso   1.00
C59    C     0.05193   0.42403   0.57671   0.00000  Uiso   1.00
C60    C     0.83788   0.21772   0.58356   0.00000  Uiso   1.00
C61    C     0.85441   0.16190   0.66092   0.00000  Uiso   1.00
C62    C     0.82090   0.14634   0.75570   0.00000  Uiso   1.00
C63    C     0.84371   0.09345   0.81524   0.00000  Uiso   1.00
C64    C     0.82833   0.18675   0.47169   0.00000  Uiso   1.00
C65    C     0.77291   0.19210   0.40737   0.00000  Uiso   1.00
C66    C     0.77376   0.16014   0.30761   0.00000  Uiso   1.00
C67    C     0.89946   0.25912   0.57504   0.00000  Uiso   1.00
C68    C     0.90384   0.32531   0.59758   0.00000  Uiso   1.00
C69    C     0.96457   0.35428   0.58479   0.00000  Uiso   1.00
H70    H     0.98027   0.12346   0.49420   0.00000  Uiso   1.00
H71    H     0.97369   0.04521   0.65979   0.00000  Uiso   1.00
H72    H     0.92570   0.09096   0.31151   0.00000  Uiso   1.00
H73    H     0.05661   0.22415   0.50170   0.00000  Uiso   1.00
H74    H     0.94240   0.97430   0.85839   0.00000  Uiso   1.00
H75    H     0.84123   0.07080   0.12402   0.00000  Uiso   1.00
H76    H     0.11728   0.35165   0.52505   0.00000  Uiso   1.00
H77    H     0.79556   0.24574   0.61012   0.00000  Uiso   1.00
H78    H     0.77884   0.17420   0.78207   0.00000  Uiso   1.00
H79    H     0.73085   0.21995   0.43379   0.00000  Uiso   1.00
H80    H     0.86177   0.35314   0.62397   0.00000  Uiso   1.00
H81    H     0.78426   0.07899   0.95764   0.00000  Uiso   1.00
H82    H     0.68308   0.17549   0.22326   0.00000  Uiso   1.00
H83    H     0.95914   0.45634   0.62429   0.00000  Uiso   1.00
O84    O     0.85565   0.97736   0.01902   0.00000  Uiso   1.00
O85    O     0.72292   0.10397   0.05554   0.00000  Uiso   1.00
O86    O     0.08510   0.47244   0.58169   0.00000  Uiso   1.00
N87    N     0.90749   0.00877   0.85817   0.00000  Uiso   1.00
N88    N     0.81289   0.09898   0.17157   0.00000  Uiso   1.00
N89    N     0.07097   0.36156   0.54648   0.00000  Uiso   1.00
N90    N     0.82239   0.06510   0.91157   0.00000  Uiso   1.00
N91    N     0.72779   0.15531   0.22498   0.00000  Uiso   1.00
N92    N     0.98588   0.41789   0.59988   0.00000  Uiso   1.00
C93    C     0.84852   0.93795   0.47923   0.00000  Uiso   1.00
C94    C     0.87408   0.90877   0.37319   0.00000  Uiso   1.00
C95    C     0.92695   0.93162   0.31378   0.00000  Uiso   1.00
C96    C     0.94259   0.89816   0.21894   0.00000  Uiso   1.00
C97    C     0.98777   0.86109   0.05949   0.00000  Uiso   1.00
C98    C     0.84923   0.88269   0.56241   0.00000  Uiso   1.00
C99    C     0.88120   0.88362   0.66211   0.00000  Uiso   1.00
C100   C     0.87591   0.82821   0.72656   0.00000  Uiso   1.00
C101   C     0.88246   0.75067   0.86092   0.00000  Uiso   1.00
C102   C     0.77687   0.95382   0.45907   0.00000  Uiso   1.00
C103   C     0.74799   0.01456   0.47191   0.00000  Uiso   1.00
C104   C     0.68177   0.01903   0.44938   0.00000  Uiso   1.00
C105   C     0.57597   0.05193   0.42329   0.00000  Uiso   1.00
C106   C     0.78228   0.83788   0.41644   0.00000  Uiso   1.00
C107   C     0.83810   0.85441   0.33908   0.00000  Uiso   1.00
C108   C     0.85366   0.82090   0.24430   0.00000  Uiso   1.00
C109   C     0.90655   0.84371   0.18476   0.00000  Uiso   1.00
C110   C     0.81325   0.82833   0.52831   0.00000  Uiso   1.00
C111   C     0.80790   0.77291   0.59263   0.00000  Uiso   1.00
C112   C     0.83986   0.77376   0.69239   0.00000  Uiso   1.00
C113   C     0.74088   0.89946   0.42496   0.00000  Uiso   1.00
C114   C     0.67469   0.90384   0.40242   0.00000  Uiso   1.00
C115   C     0.64572   0.96457   0.41521   0.00000  Uiso   1.00
H116   H     0.87654   0.98027   0.50580   0.00000  Uiso   1.00
H117   H     0.95479   0.97369   0.34021   0.00000  Uiso   1.00
H118   H     0.90904   0.92570   0.68849   0.00000  Uiso   1.00
H119   H     0.77585   0.05661   0.49830   0.00000  Uiso   1.00
H120   H     0.02570   0.94240   0.14161   0.00000  Uiso   1.00
H121   H     0.92920   0.84123   0.87598   0.00000  Uiso   1.00
H122   H     0.64835   0.11728   0.47495   0.00000  Uiso   1.00
H123   H     0.75426   0.79556   0.38988   0.00000  Uiso   1.00
H124   H     0.82580   0.77884   0.21793   0.00000  Uiso   1.00
H125   H     0.78005   0.73085   0.56621   0.00000  Uiso   1.00
H126   H     0.64686   0.86177   0.37603   0.00000  Uiso   1.00
H127   H     0.92101   0.78426   0.04236   0.00000  Uiso   1.00
H128   H     0.82451   0.68308   0.77674   0.00000  Uiso   1.00
H129   H     0.54366   0.95914   0.37571   0.00000  Uiso   1.00
O130   O     0.02264   0.85565   0.98098   0.00000  Uiso   1.00
O131   O     0.89603   0.72292   0.94446   0.00000  Uiso   1.00
O132   O     0.52756   0.08510   0.41831   0.00000  Uiso   1.00
N133   N     0.99123   0.90749   0.14183   0.00000  Uiso   1.00
N134   N     0.90102   0.81289   0.82843   0.00000  Uiso   1.00
N135   N     0.63844   0.07097   0.45352   0.00000  Uiso   1.00
N136   N     0.93490   0.82239   0.08843   0.00000  Uiso   1.00
N137   N     0.84469   0.72779   0.77502   0.00000  Uiso   1.00
N138   N     0.58211   0.98588   0.40012   0.00000  Uiso   1.00
C139   C     0.15148   0.06205   0.47923   0.00000  Uiso   1.00
C140   C     0.12592   0.09123   0.37319   0.00000  Uiso   1.00
C141   C     0.07305   0.06838   0.31378   0.00000  Uiso   1.00
C142   C     0.05741   0.10184   0.21894   0.00000  Uiso   1.00
C143   C     0.01223   0.13891   0.05949   0.00000  Uiso   1.00
C144   C     0.15077   0.11731   0.56241   0.00000  Uiso   1.00
C145   C     0.11880   0.11638   0.66211   0.00000  Uiso   1.00
C146   C     0.12409   0.17179   0.72656   0.00000  Uiso   1.00
C147   C     0.11754   0.24933   0.86092   0.00000  Uiso   1.00
C148   C     0.22313   0.04618   0.45907   0.00000  Uiso   1.00
C149   C     0.25201   0.98544   0.47191   0.00000  Uiso   1.00
C150   C     0.31823   0.98097   0.44938   0.00000  Uiso   1.00
C151   C     0.42403   0.94807   0.42329   0.00000  Uiso   1.00
C152   C     0.21772   0.16212   0.41644   0.00000  Uiso   1.00
C153   C     0.16190   0.14559   0.33908   0.00000  Uiso   1.00
C154   C     0.14634   0.17910   0.24430   0.00000  Uiso   1.00
C155   C     0.09345   0.15629   0.18476   0.00000  Uiso   1.00
C156   C     0.18675   0.17167   0.52831   0.00000  Uiso   1.00
C157   C     0.19210   0.22709   0.59263   0.00000  Uiso   1.00
C158   C     0.16014   0.22624   0.69239   0.00000  Uiso   1.00
C159   C     0.25912   0.10054   0.42496   0.00000  Uiso   1.00
C160   C     0.32531   0.09616   0.40242   0.00000  Uiso   1.00
C161   C     0.35428   0.03543   0.41521   0.00000  Uiso   1.00
H162   H     0.12346   0.01973   0.50580   0.00000  Uiso   1.00
H163   H     0.04521   0.02631   0.34021   0.00000  Uiso   1.00
H164   H     0.09096   0.07430   0.68849   0.00000  Uiso   1.00
H165   H     0.22415   0.94339   0.49830   0.00000  Uiso   1.00
H166   H     0.97430   0.05760   0.14161   0.00000  Uiso   1.00
H167   H     0.07080   0.15877   0.87598   0.00000  Uiso   1.00
H168   H     0.35165   0.88272   0.47495   0.00000  Uiso   1.00
H169   H     0.24574   0.20444   0.38988   0.00000  Uiso   1.00
H170   H     0.17420   0.22116   0.21793   0.00000  Uiso   1.00
H171   H     0.21995   0.26915   0.56621   0.00000  Uiso   1.00
H172   H     0.35314   0.13823   0.37603   0.00000  Uiso   1.00
H173   H     0.07899   0.21574   0.04236   0.00000  Uiso   1.00
H174   H     0.17549   0.31692   0.77674   0.00000  Uiso   1.00
H175   H     0.45634   0.04086   0.37571   0.00000  Uiso   1.00
O176   O     0.97736   0.14435   0.98098   0.00000  Uiso   1.00
O177   O     0.10397   0.27708   0.94446   0.00000  Uiso   1.00
O178   O     0.47244   0.91490   0.41831   0.00000  Uiso   1.00
N179   N     0.00877   0.09251   0.14183   0.00000  Uiso   1.00
N180   N     0.09898   0.18711   0.82843   0.00000  Uiso   1.00
N181   N     0.36156   0.92903   0.45352   0.00000  Uiso   1.00
N182   N     0.06510   0.17761   0.08843   0.00000  Uiso   1.00
N183   N     0.15531   0.27221   0.77502   0.00000  Uiso   1.00
N184   N     0.41789   0.01412   0.40012   0.00000  Uiso   1.00
C185   C     0.43795   0.34852   0.97923   0.00000  Uiso   1.00
C186   C     0.40877   0.37408   0.87319   0.00000  Uiso   1.00
C187   C     0.43162   0.42695   0.81378   0.00000  Uiso   1.00
C188   C     0.39816   0.44259   0.71894   0.00000  Uiso   1.00
C189   C     0.36109   0.48777   0.55949   0.00000  Uiso   1.00
C190   C     0.38269   0.34923   0.06241   0.00000  Uiso   1.00
C191   C     0.38362   0.38120   0.16211   0.00000  Uiso   1.00
C192   C     0.32821   0.37591   0.22656   0.00000  Uiso   1.00
C193   C     0.25067   0.38246   0.36092   0.00000  Uiso   1.00
C194   C     0.45382   0.27687   0.95907   0.00000  Uiso   1.00
C195   C     0.51456   0.24799   0.97191   0.00000  Uiso   1.00
C196   C     0.51903   0.18177   0.94938   0.00000  Uiso   1.00
C197   C     0.55193   0.07597   0.92329   0.00000  Uiso   1.00
C198   C     0.33788   0.28228   0.91644   0.00000  Uiso   1.00
C199   C     0.35441   0.33810   0.83908   0.00000  Uiso   1.00
C200   C     0.32090   0.35366   0.74430   0.00000  Uiso   1.00
C201   C     0.34371   0.40655   0.68476   0.00000  Uiso   1.00
C202   C     0.32833   0.31325   0.02831   0.00000  Uiso   1.00
C203   C     0.27291   0.30790   0.09263   0.00000  Uiso   1.00
C204   C     0.27376   0.33986   0.19239   0.00000  Uiso   1.00
C205   C     0.39946   0.24088   0.92496   0.00000  Uiso   1.00
C206   C     0.40384   0.17469   0.90242   0.00000  Uiso   1.00
C207   C     0.46457   0.14572   0.91521   0.00000  Uiso   1.00
H208   H     0.48027   0.37654   0.00580   0.00000  Uiso   1.00
H209   H     0.47369   0.45479   0.84021   0.00000  Uiso   1.00
H210   H     0.42570   0.40904   0.18849   0.00000  Uiso   1.00
H211   H     0.55661   0.27585   0.99830   0.00000  Uiso   1.00
H212   H     0.44240   0.52570   0.64161   0.00000  Uiso   1.00
H213   H     0.34123   0.42920   0.37598   0.00000  Uiso   1.00
H214   H     0.61728   0.14835   0.97495   0.00000  Uiso   1.00
H215   H     0.29556   0.25426   0.88988   0.00000  Uiso   1.00
H216   H     0.27884   0.32580   0.71793   0.00000  Uiso   1.00
H217   H     0.23085   0.28005   0.06621   0.00000  Uiso   1.00
H218   H     0.36177   0.14686   0.87603   0.00000  Uiso   1.00
H219   H     0.28426   0.42101   0.54236   0.00000  Uiso   1.00
H220   H     0.18308   0.32451   0.27674   0.00000  Uiso   1.00
H221   H     0.45914   0.04366   0.87571   0.00000  Uiso   1.00
O222   O     0.35565   0.52264   0.48098   0.00000  Uiso   1.00
O223   O     0.22292   0.39603   0.44446   0.00000  Uiso   1.00
O224   O     0.58510   0.02756   0.91831   0.00000  Uiso   1.00
N225   N     0.40749   0.49123   0.64183   0.00000  Uiso   1.00
N226   N     0.31289   0.40102   0.32843   0.00000  Uiso   1.00
N227   N     0.57097   0.13844   0.95352   0.00000  Uiso   1.00
N228   N     0.32239   0.43490   0.58843   0.00000  Uiso   1.00
N229   N     0.22779   0.34469   0.27502   0.00000  Uiso   1.00
N230   N     0.48588   0.08211   0.90012   0.00000  Uiso   1.00
C231   C     0.56205   0.65148   0.97923   0.00000  Uiso   1.00
C232   C     0.59123   0.62592   0.87319   0.00000  Uiso   1.00
C233   C     0.56838   0.57305   0.81378   0.00000  Uiso   1.00
C234   C     0.60184   0.55741   0.71894   0.00000  Uiso   1.00
C235   C     0.63891   0.51223   0.55949   0.00000  Uiso   1.00
C236   C     0.61731   0.65077   0.06241   0.00000  Uiso   1.00
C237   C     0.61638   0.61880   0.16211   0.00000  Uiso   1.00
C238   C     0.67179   0.62409   0.22656   0.00000  Uiso   1.00
C239   C     0.74933   0.61754   0.36092   0.00000  Uiso   1.00
C240   C     0.54618   0.72313   0.95907   0.00000  Uiso   1.00
C241   C     0.48544   0.75201   0.97191   0.00000  Uiso   1.00
C242   C     0.48097   0.81823   0.94938   0.00000  Uiso   1.00
C243   C     0.44807   0.92403   0.92329   0.00000  Uiso   1.00
C244   C     0.66212   0.71772   0.91644   0.00000  Uiso   1.00
C245   C     0.64559   0.66190   0.83908   0.00000  Uiso   1.00
C246   C     0.67910   0.64634   0.74430   0.00000  Uiso   1.00
C247   C     0.65629   0.59345   0.68476   0.00000  Uiso   1.00
C248   C     0.67167   0.68675   0.02831   0.00000  Uiso   1.00
C249   C     0.72709   0.69210   0.09263   0.00000  Uiso   1.00
C250   C     0.72624   0.66014   0.19239   0.00000  Uiso   1.00
C251   C     0.60054   0.75912   0.92496   0.00000  Uiso   1.00
C252   C     0.59616   0.82531   0.90242   0.00000  Uiso   1.00
C253   C     0.53543   0.85428   0.91521   0.00000  Uiso   1.00
H254   H     0.51973   0.62346   0.00580   0.00000  Uiso   1.00
H255   H     0.52631   0.54521   0.84021   0.00000  Uiso   1.00
H256   H     0.57430   0.59096   0.18849   0.00000  Uiso   1.00
H257   H     0.44339   0.72415   0.99830   0.00000  Uiso   1.00
H258   H     0.55760   0.47430   0.64161   0.00000  Uiso   1.00
H259   H     0.65877   0.57080   0.37598   0.00000  Uiso   1.00
H260   H     0.38272   0.85165   0.97495   0.00000  Uiso   1.00
H261   H     0.70444   0.74574   0.88988   0.00000  Uiso   1.00
H262   H     0.72116   0.67420   0.71793   0.00000  Uiso   1.00
H263   H     0.76915   0.71995   0.06621   0.00000  Uiso   1.00
H264   H     0.63823   0.85314   0.87603   0.00000  Uiso   1.00
H265   H     0.71574   0.57899   0.54236   0.00000  Uiso   1.00
H266   H     0.81692   0.67549   0.27674   0.00000  Uiso   1.00
H267   H     0.54086   0.95634   0.87571   0.00000  Uiso   1.00
O268   O     0.64435   0.47736   0.48098   0.00000  Uiso   1.00
O269   O     0.77708   0.60397   0.44446   0.00000  Uiso   1.00
O270   O     0.41490   0.97244   0.91831   0.00000  Uiso   1.00
N271   N     0.59251   0.50877   0.64183   0.00000  Uiso   1.00
N272   N     0.68711   0.59898   0.32843   0.00000  Uiso   1.00
N273   N     0.42903   0.86156   0.95352   0.00000  Uiso   1.00
N274   N     0.67761   0.56510   0.58843   0.00000  Uiso   1.00
N275   N     0.77221   0.65531   0.27502   0.00000  Uiso   1.00
N276   N     0.51412   0.91789   0.90012   0.00000  Uiso   1.00
C277   C     0.65148   0.43795   0.02077   0.00000  Uiso   1.00
C278   C     0.62592   0.40877   0.12681   0.00000  Uiso   1.00
C279   C     0.57305   0.43162   0.18622   0.00000  Uiso   1.00
C280   C     0.55741   0.39816   0.28106   0.00000  Uiso   1.00
C281   C     0.51223   0.36109   0.44051   0.00000  Uiso   1.00
C282   C     0.65077   0.38269   0.93759   0.00000  Uiso   1.00
C283   C     0.61880   0.38362   0.83789   0.00000  Uiso   1.00
C284   C     0.62409   0.32821   0.77344   0.00000  Uiso   1.00
C285   C     0.61754   0.25067   0.63908   0.00000  Uiso   1.00
C286   C     0.72313   0.45382   0.04093   0.00000  Uiso   1.00
C287   C     0.75201   0.51456   0.02809   0.00000  Uiso   1.00
C288   C     0.81823   0.51903   0.05062   0.00000  Uiso   1.00
C289   C     0.92403   0.55193   0.07671   0.00000  Uiso   1.00
C290   C     0.71772   0.33788   0.08356   0.00000  Uiso   1.00
C291   C     0.66190   0.35441   0.16092   0.00000  Uiso   1.00
C292   C     0.64634   0.32090   0.25570   0.00000  Uiso   1.00
C293   C     0.59345   0.34371   0.31524   0.00000  Uiso   1.00
C294   C     0.68675   0.32833   0.97169   0.00000  Uiso   1.00
C295   C     0.69210   0.27291   0.90737   0.00000  Uiso   1.00
C296   C     0.66014   0.27376   0.80761   0.00000  Uiso   1.00
C297   C     0.75912   0.39946   0.07504   0.00000  Uiso   1.00
C298   C     0.82531   0.40384   0.09758   0.00000  Uiso   1.00
C299   C     0.85428   0.46457   0.08479   0.00000  Uiso   1.00
H300   H     0.62346   0.48027   0.99420   0.00000  Uiso   1.00
H301   H     0.54521   0.47369   0.15979   0.00000  Uiso   1.00
H302   H     0.59096   0.42570   0.81151   0.00000  Uiso   1.00
H303   H     0.72415   0.55661   0.00170   0.00000  Uiso   1.00
H304   H     0.47430   0.44240   0.35839   0.00000  Uiso   1.00
H305   H     0.57080   0.34123   0.62402   0.00000  Uiso   1.00
H306   H     0.85165   0.61728   0.02505   0.00000  Uiso   1.00
H307   H     0.74574   0.29556   0.11012   0.00000  Uiso   1.00
H308   H     0.67420   0.27884   0.28207   0.00000  Uiso   1.00
H309   H     0.71995   0.23085   0.93379   0.00000  Uiso   1.00
H310   H     0.85314   0.36177   0.12397   0.00000  Uiso   1.00
H311   H     0.57899   0.28426   0.45764   0.00000  Uiso   1.00
H312   H     0.67549   0.18308   0.72326   0.00000  Uiso   1.00
H313   H     0.95634   0.45914   0.12429   0.00000  Uiso   1.00
O314   O     0.47736   0.35565   0.51902   0.00000  Uiso   1.00
O315   O     0.60397   0.22292   0.55554   0.00000  Uiso   1.00
O316   O     0.97244   0.58510   0.08169   0.00000  Uiso   1.00
N317   N     0.50877   0.40749   0.35817   0.00000  Uiso   1.00
N318   N     0.59898   0.31289   0.67157   0.00000  Uiso   1.00
N319   N     0.86156   0.57097   0.04648   0.00000  Uiso   1.00
N320   N     0.56510   0.32239   0.41157   0.00000  Uiso   1.00
N321   N     0.65531   0.22779   0.72498   0.00000  Uiso   1.00
N322   N     0.91789   0.48588   0.09988   0.00000  Uiso   1.00
C323   C     0.34852   0.56205   0.02077   0.00000  Uiso   1.00
C324   C     0.37408   0.59123   0.12681   0.00000  Uiso   1.00
C325   C     0.42695   0.56838   0.18622   0.00000  Uiso   1.00
C326   C     0.44259   0.60184   0.28106   0.00000  Uiso   1.00
C327   C     0.48777   0.63891   0.44051   0.00000  Uiso   1.00
C328   C     0.34923   0.61731   0.93759   0.00000  Uiso   1.00
C329   C     0.38120   0.61638   0.83789   0.00000  Uiso   1.00
C330   C     0.37591   0.67179   0.77344   0.00000  Uiso   1.00
C331   C     0.38246   0.74933   0.63908   0.00000  Uiso   1.00
C332   C     0.27687   0.54618   0.04093   0.00000  Uiso   1.00
C333   C     0.24799   0.48544   0.02809   0.00000  Uiso   1.00
C334   C     0.18177   0.48097   0.05062   0.00000  Uiso   1.00
C335   C     0.07597   0.44807   0.07671   0.00000  Uiso   1.00
C336   C     0.28228   0.66212   0.08356   0.00000  Uiso   1.00
C337   C     0.33810   0.64559   0.16092   0.00000  Uiso   1.00
C338   C     0.35366   0.67910   0.25570   0.00000  Uiso   1.00
C339   C     0.40655   0.65629   0.31524   0.00000  Uiso   1.00
C340   C     0.31325   0.67167   0.97169   0.00000  Uiso   1.00
C341   C     0.30790   0.72709   0.90737   0.00000  Uiso   1.00
C342   C     0.33986   0.72624   0.80761   0.00000  Uiso   1.00
C343   C     0.24088   0.60054   0.07504   0.00000  Uiso   1.00
C344   C     0.17469   0.59616   0.09758   0.00000  Uiso   1.00
C345   C     0.14572   0.53543   0.08479   0.00000  Uiso   1.00
H346   H     0.37654   0.51973   0.99420   0.00000  Uiso   1.00
H347   H     0.45479   0.52631   0.15979   0.00000  Uiso   1.00
H348   H     0.40904   0.57430   0.81151   0.00000  Uiso   1.00
H349   H     0.27585   0.44339   0.00170   0.00000  Uiso   1.00
H350   H     0.52570   0.55760   0.35839   0.00000  Uiso   1.00
H351   H     0.42920   0.65877   0.62402   0.00000  Uiso   1.00
H352   H     0.14835   0.38272   0.02505   0.00000  Uiso   1.00
H353   H     0.25426   0.70444   0.11012   0.00000  Uiso   1.00
H354   H     0.32580   0.72116   0.28207   0.00000  Uiso   1.00
H355   H     0.28005   0.76915   0.93379   0.00000  Uiso   1.00
H356   H     0.14686   0.63823   0.12397   0.00000  Uiso   1.00
H357   H     0.42101   0.71574   0.45764   0.00000  Uiso   1.00
H358   H     0.32451   0.81692   0.72326   0.00000  Uiso   1.00
H359   H     0.04366   0.54086   0.12429   0.00000  Uiso   1.00
O360   O     0.52264   0.64435   0.51902   0.00000  Uiso   1.00
O361   O     0.39603   0.77708   0.55554   0.00000  Uiso   1.00
O362   O     0.02756   0.41490   0.08169   0.00000  Uiso   1.00
N363   N     0.49123   0.59251   0.35817   0.00000  Uiso   1.00
N364   N     0.40102   0.68711   0.67157   0.00000  Uiso   1.00
N365   N     0.13844   0.42903   0.04648   0.00000  Uiso   1.00
N366   N     0.43490   0.67761   0.41157   0.00000  Uiso   1.00
N367   N     0.34469   0.77221   0.72498   0.00000  Uiso   1.00
N368   N     0.08211   0.51412   0.09988   0.00000  Uiso   1.00
