data_job_02889
_audit_creation_date              2018-12-19
_audit_creation_method            'Materials Studio'
_symmetry_space_group_name_H-M    'P1'
_symmetry_Int_Tables_number       1
_symmetry_cell_setting            triclinic
loop_
_symmetry_equiv_pos_as_xyz
  x,y,z
_cell_length_a                    12.8714
_cell_length_b                    14.5597
_cell_length_c                    23.8641
_cell_angle_alpha                 90.0000
_cell_angle_beta                  131.6076
_cell_angle_gamma                 90.0000
loop_
_atom_site_label
_atom_site_type_symbol
_atom_site_fract_x
_atom_site_fract_y
_atom_site_fract_z
_atom_site_U_iso_or_equiv
_atom_site_adp_type
_atom_site_occupancy
C1     C     0.61418   0.47796   0.89087   0.00000  Uiso   1.00
C2     C     0.67173   0.42609   0.96191   0.00000  Uiso   1.00
C3     C     0.72958   0.46571   0.03010   0.00000  Uiso   1.00
C4     C     0.77629   0.40643   0.08833   0.00000  Uiso   1.00
C5     C     0.86736   0.34041   0.20012   0.00000  Uiso   1.00
C6     C     0.69277   0.44163   0.86816   0.00000  Uiso   1.00
C7     C     0.76829   0.49431   0.85750   0.00000  Uiso   1.00
C8     C     0.83268   0.44811   0.83679   0.00000  Uiso   1.00
C9     C     0.95633   0.40621   0.80297   0.00000  Uiso   1.00
C10    C     0.46439   0.44576   0.83032   0.00000  Uiso   1.00
C11    C     0.34789   0.50191   0.78784   0.00000  Uiso   1.00
C12    C     0.22000   0.45919   0.73526   0.00000  Uiso   1.00
C13    C     0.98906   0.42370   0.64270   0.00000  Uiso   1.00
C14    C     0.59424   0.30224   0.87302   0.00000  Uiso   1.00
C15    C     0.66091   0.33065   0.95222   0.00000  Uiso   1.00
C16    C     0.70753   0.27130   0.01035   0.00000  Uiso   1.00
C17    C     0.76543   0.31082   0.07862   0.00000  Uiso   1.00
C18    C     0.68194   0.34619   0.85846   0.00000  Uiso   1.00
C19    C     0.74623   0.29990   0.83775   0.00000  Uiso   1.00
C20    C     0.82184   0.35250   0.82708   0.00000  Uiso   1.00
C21    C     0.45356   0.35031   0.82063   0.00000  Uiso   1.00
C22    C     0.32583   0.30750   0.76810   0.00000  Uiso   1.00
C23    C     0.20915   0.36357   0.72555   0.00000  Uiso   1.00
H24    H     0.62262   0.55227   0.89842   0.00000  Uiso   1.00
H25    H     0.73796   0.53958   0.03758   0.00000  Uiso   1.00
H26    H     0.77664   0.56817   0.86500   0.00000  Uiso   1.00
H27    H     0.35631   0.57577   0.79536   0.00000  Uiso   1.00
H28    H     0.86111   0.48341   0.18760   0.00000  Uiso   1.00
H29    H     0.94263   0.54371   0.82368   0.00000  Uiso   1.00
H30    H     0.05627   0.55973   0.67682   0.00000  Uiso   1.00
H31    H     0.58581   0.22793   0.86547   0.00000  Uiso   1.00
H32    H     0.69913   0.19744   0.00283   0.00000  Uiso   1.00
H33    H     0.73782   0.22604   0.83025   0.00000  Uiso   1.00
H34    H     0.31749   0.23364   0.76061   0.00000  Uiso   1.00
H35    H     0.82960   0.20572   0.15940   0.00000  Uiso   1.00
H36    H     0.91113   0.26602   0.79548   0.00000  Uiso   1.00
H37    H     0.02477   0.28204   0.64862   0.00000  Uiso   1.00
O38    O     0.92061   0.33035   0.26446   0.00000  Uiso   1.00
O39    O     0.02754   0.40947   0.78700   0.00000  Uiso   1.00
O40    O     0.86466   0.43049   0.59433   0.00000  Uiso   1.00
N41    N     0.83811   0.42224   0.16211   0.00000  Uiso   1.00
N42    N     0.91436   0.47862   0.82188   0.00000  Uiso   1.00
N43    N     0.08569   0.49360   0.68456   0.00000  Uiso   1.00
N44    N     0.82116   0.27282   0.14694   0.00000  Uiso   1.00
N45    N     0.89740   0.32920   0.80670   0.00000  Uiso   1.00
N46    N     0.06873   0.34417   0.66939   0.00000  Uiso   1.00
C47    C     0.38582   0.97796   0.60913   0.00000  Uiso   1.00
C48    C     0.32827   0.92609   0.53809   0.00000  Uiso   1.00
C49    C     0.27042   0.96571   0.46990   0.00000  Uiso   1.00
C50    C     0.22371   0.90643   0.41167   0.00000  Uiso   1.00
C51    C     0.13264   0.84041   0.29988   0.00000  Uiso   1.00
C52    C     0.30723   0.94163   0.63184   0.00000  Uiso   1.00
C53    C     0.23171   0.99431   0.64250   0.00000  Uiso   1.00
C54    C     0.16732   0.94811   0.66321   0.00000  Uiso   1.00
C55    C     0.04367   0.90621   0.69703   0.00000  Uiso   1.00
C56    C     0.53561   0.94576   0.66968   0.00000  Uiso   1.00
C57    C     0.65211   0.00191   0.71216   0.00000  Uiso   1.00
C58    C     0.78000   0.95919   0.76474   0.00000  Uiso   1.00
C59    C     0.01094   0.92370   0.85730   0.00000  Uiso   1.00
C60    C     0.40576   0.80224   0.62698   0.00000  Uiso   1.00
C61    C     0.33909   0.83065   0.54778   0.00000  Uiso   1.00
C62    C     0.29247   0.77130   0.48965   0.00000  Uiso   1.00
C63    C     0.23457   0.81082   0.42138   0.00000  Uiso   1.00
C64    C     0.31806   0.84619   0.64154   0.00000  Uiso   1.00
C65    C     0.25377   0.79990   0.66225   0.00000  Uiso   1.00
C66    C     0.17816   0.85250   0.67292   0.00000  Uiso   1.00
C67    C     0.54644   0.85031   0.67937   0.00000  Uiso   1.00
C68    C     0.67417   0.80750   0.73190   0.00000  Uiso   1.00
C69    C     0.79085   0.86357   0.77445   0.00000  Uiso   1.00
H70    H     0.37738   0.05227   0.60158   0.00000  Uiso   1.00
H71    H     0.26204   0.03958   0.46242   0.00000  Uiso   1.00
H72    H     0.22336   0.06817   0.63500   0.00000  Uiso   1.00
H73    H     0.64369   0.07577   0.70464   0.00000  Uiso   1.00
H74    H     0.13889   0.98341   0.31240   0.00000  Uiso   1.00
H75    H     0.05737   0.04371   0.67632   0.00000  Uiso   1.00
H76    H     0.94373   0.05973   0.82318   0.00000  Uiso   1.00
H77    H     0.41419   0.72793   0.63453   0.00000  Uiso   1.00
H78    H     0.30087   0.69744   0.49717   0.00000  Uiso   1.00
H79    H     0.26218   0.72604   0.66975   0.00000  Uiso   1.00
H80    H     0.68251   0.73364   0.73939   0.00000  Uiso   1.00
H81    H     0.17040   0.70572   0.34060   0.00000  Uiso   1.00
H82    H     0.08887   0.76602   0.70452   0.00000  Uiso   1.00
H83    H     0.97523   0.78204   0.85138   0.00000  Uiso   1.00
O84    O     0.07939   0.83035   0.23554   0.00000  Uiso   1.00
O85    O     0.97246   0.90947   0.71300   0.00000  Uiso   1.00
O86    O     0.13534   0.93049   0.90567   0.00000  Uiso   1.00
N87    N     0.16189   0.92224   0.33789   0.00000  Uiso   1.00
N88    N     0.08564   0.97862   0.67812   0.00000  Uiso   1.00
N89    N     0.91431   0.99360   0.81544   0.00000  Uiso   1.00
N90    N     0.17884   0.77282   0.35306   0.00000  Uiso   1.00
N91    N     0.10260   0.82920   0.69330   0.00000  Uiso   1.00
N92    N     0.93127   0.84417   0.83061   0.00000  Uiso   1.00
C93    C     0.38582   0.52204   0.10913   0.00000  Uiso   1.00
C94    C     0.32827   0.57391   0.03809   0.00000  Uiso   1.00
C95    C     0.27042   0.53429   0.96990   0.00000  Uiso   1.00
C96    C     0.22371   0.59357   0.91167   0.00000  Uiso   1.00
C97    C     0.13264   0.65959   0.79988   0.00000  Uiso   1.00
C98    C     0.30723   0.55837   0.13184   0.00000  Uiso   1.00
C99    C     0.23171   0.50569   0.14250   0.00000  Uiso   1.00
C100   C     0.16732   0.55189   0.16321   0.00000  Uiso   1.00
C101   C     0.04367   0.59379   0.19703   0.00000  Uiso   1.00
C102   C     0.53561   0.55424   0.16968   0.00000  Uiso   1.00
C103   C     0.65211   0.49809   0.21216   0.00000  Uiso   1.00
C104   C     0.78000   0.54081   0.26474   0.00000  Uiso   1.00
C105   C     0.01094   0.57630   0.35730   0.00000  Uiso   1.00
C106   C     0.40576   0.69776   0.12698   0.00000  Uiso   1.00
C107   C     0.33909   0.66935   0.04778   0.00000  Uiso   1.00
C108   C     0.29247   0.72870   0.98965   0.00000  Uiso   1.00
C109   C     0.23457   0.68918   0.92138   0.00000  Uiso   1.00
C110   C     0.31806   0.65381   0.14154   0.00000  Uiso   1.00
C111   C     0.25377   0.70010   0.16225   0.00000  Uiso   1.00
C112   C     0.17816   0.64750   0.17292   0.00000  Uiso   1.00
C113   C     0.54644   0.64969   0.17937   0.00000  Uiso   1.00
C114   C     0.67417   0.69250   0.23190   0.00000  Uiso   1.00
C115   C     0.79085   0.63643   0.27445   0.00000  Uiso   1.00
H116   H     0.37738   0.44773   0.10158   0.00000  Uiso   1.00
H117   H     0.26204   0.46042   0.96242   0.00000  Uiso   1.00
H118   H     0.22336   0.43183   0.13500   0.00000  Uiso   1.00
H119   H     0.64369   0.42423   0.20464   0.00000  Uiso   1.00
H120   H     0.13889   0.51659   0.81240   0.00000  Uiso   1.00
H121   H     0.05737   0.45629   0.17632   0.00000  Uiso   1.00
H122   H     0.94373   0.44027   0.32318   0.00000  Uiso   1.00
H123   H     0.41419   0.77207   0.13453   0.00000  Uiso   1.00
H124   H     0.30087   0.80256   0.99717   0.00000  Uiso   1.00
H125   H     0.26218   0.77396   0.16975   0.00000  Uiso   1.00
H126   H     0.68251   0.76636   0.23939   0.00000  Uiso   1.00
H127   H     0.17040   0.79428   0.84060   0.00000  Uiso   1.00
H128   H     0.08887   0.73398   0.20452   0.00000  Uiso   1.00
H129   H     0.97523   0.71796   0.35138   0.00000  Uiso   1.00
O130   O     0.07939   0.66965   0.73554   0.00000  Uiso   1.00
O131   O     0.97246   0.59053   0.21300   0.00000  Uiso   1.00
O132   O     0.13534   0.56951   0.40567   0.00000  Uiso   1.00
N133   N     0.16189   0.57776   0.83789   0.00000  Uiso   1.00
N134   N     0.08564   0.52138   0.17812   0.00000  Uiso   1.00
N135   N     0.91431   0.50640   0.31544   0.00000  Uiso   1.00
N136   N     0.17884   0.72718   0.85306   0.00000  Uiso   1.00
N137   N     0.10260   0.67080   0.19330   0.00000  Uiso   1.00
N138   N     0.93127   0.65583   0.33061   0.00000  Uiso   1.00
C139   C     0.61418   0.02204   0.39087   0.00000  Uiso   1.00
C140   C     0.67173   0.07391   0.46191   0.00000  Uiso   1.00
C141   C     0.72958   0.03429   0.53010   0.00000  Uiso   1.00
C142   C     0.77629   0.09357   0.58833   0.00000  Uiso   1.00
C143   C     0.86736   0.15959   0.70012   0.00000  Uiso   1.00
C144   C     0.69277   0.05837   0.36816   0.00000  Uiso   1.00
C145   C     0.76829   0.00569   0.35750   0.00000  Uiso   1.00
C146   C     0.83268   0.05189   0.33679   0.00000  Uiso   1.00
C147   C     0.95633   0.09379   0.30297   0.00000  Uiso   1.00
C148   C     0.46439   0.05424   0.33032   0.00000  Uiso   1.00
C149   C     0.34789   0.99809   0.28784   0.00000  Uiso   1.00
C150   C     0.22000   0.04081   0.23526   0.00000  Uiso   1.00
C151   C     0.98906   0.07630   0.14270   0.00000  Uiso   1.00
C152   C     0.59424   0.19776   0.37302   0.00000  Uiso   1.00
C153   C     0.66091   0.16935   0.45222   0.00000  Uiso   1.00
C154   C     0.70753   0.22870   0.51035   0.00000  Uiso   1.00
C155   C     0.76543   0.18918   0.57862   0.00000  Uiso   1.00
C156   C     0.68194   0.15381   0.35846   0.00000  Uiso   1.00
C157   C     0.74623   0.20010   0.33775   0.00000  Uiso   1.00
C158   C     0.82184   0.14750   0.32708   0.00000  Uiso   1.00
C159   C     0.45356   0.14969   0.32063   0.00000  Uiso   1.00
C160   C     0.32583   0.19250   0.26810   0.00000  Uiso   1.00
C161   C     0.20915   0.13643   0.22555   0.00000  Uiso   1.00
H162   H     0.62262   0.94773   0.39842   0.00000  Uiso   1.00
H163   H     0.73796   0.96042   0.53758   0.00000  Uiso   1.00
H164   H     0.77664   0.93183   0.36500   0.00000  Uiso   1.00
H165   H     0.35631   0.92423   0.29536   0.00000  Uiso   1.00
H166   H     0.86111   0.01659   0.68760   0.00000  Uiso   1.00
H167   H     0.94263   0.95629   0.32368   0.00000  Uiso   1.00
H168   H     0.05627   0.94027   0.17682   0.00000  Uiso   1.00
H169   H     0.58581   0.27207   0.36547   0.00000  Uiso   1.00
H170   H     0.69913   0.30256   0.50283   0.00000  Uiso   1.00
H171   H     0.73782   0.27396   0.33025   0.00000  Uiso   1.00
H172   H     0.31749   0.26636   0.26061   0.00000  Uiso   1.00
H173   H     0.82960   0.29428   0.65940   0.00000  Uiso   1.00
H174   H     0.91113   0.23398   0.29548   0.00000  Uiso   1.00
H175   H     0.02477   0.21796   0.14862   0.00000  Uiso   1.00
O176   O     0.92061   0.16965   0.76446   0.00000  Uiso   1.00
O177   O     0.02754   0.09053   0.28700   0.00000  Uiso   1.00
O178   O     0.86466   0.06951   0.09433   0.00000  Uiso   1.00
N179   N     0.83811   0.07776   0.66211   0.00000  Uiso   1.00
N180   N     0.91436   0.02138   0.32188   0.00000  Uiso   1.00
N181   N     0.08569   0.00640   0.18456   0.00000  Uiso   1.00
N182   N     0.82116   0.22718   0.64694   0.00000  Uiso   1.00
N183   N     0.89740   0.17080   0.30670   0.00000  Uiso   1.00
N184   N     0.06873   0.15583   0.16939   0.00000  Uiso   1.00
