data_job_02876
_audit_creation_date              2018-12-19
_audit_creation_method            'Materials Studio'
_symmetry_space_group_name_H-M    'P1'
_symmetry_Int_Tables_number       1
_symmetry_cell_setting            triclinic
loop_
_symmetry_equiv_pos_as_xyz
  x,y,z
_cell_length_a                    42.4978
_cell_length_b                    12.3188
_cell_length_c                    14.6695
_cell_angle_alpha                 90.0000
_cell_angle_beta                  70.1679
_cell_angle_gamma                 90.0000
loop_
_atom_site_label
_atom_site_type_symbol
_atom_site_fract_x
_atom_site_fract_y
_atom_site_fract_z
_atom_site_U_iso_or_equiv
_atom_site_adp_type
_atom_site_occupancy
C1     C     0.64753   0.01813   0.13029   0.00000  Uiso   1.00
C2     C     0.66686   0.91331   0.09447   0.00000  Uiso   1.00
C3     C     0.66690   0.85397   0.01402   0.00000  Uiso   1.00
C4     C     0.68621   0.76032   0.99331   0.00000  Uiso   1.00
C5     C     0.71338   0.60257   0.92893   0.00000  Uiso   1.00
C6     C     0.62578   0.99723   0.23524   0.00000  Uiso   1.00
C7     C     0.59126   0.00847   0.27315   0.00000  Uiso   1.00
C8     C     0.57599   0.98547   0.37094   0.00000  Uiso   1.00
C9     C     0.53938   0.95808   0.52513   0.00000  Uiso   1.00
C10    C     0.67341   0.10217   0.13400   0.00000  Uiso   1.00
C11    C     0.67895   0.20165   0.08681   0.00000  Uiso   1.00
C12    C     0.70378   0.26702   0.09938   0.00000  Uiso   1.00
C13    C     0.74113   0.40256   0.09638   0.00000  Uiso   1.00
C14    C     0.68177   0.95733   0.23656   0.00000  Uiso   1.00
C15    C     0.68546   0.88029   0.15220   0.00000  Uiso   1.00
C16    C     0.70478   0.78671   0.13160   0.00000  Uiso   1.00
C17    C     0.70484   0.72724   0.05113   0.00000  Uiso   1.00
C18    C     0.64437   0.96421   0.29296   0.00000  Uiso   1.00
C19    C     0.62914   0.94120   0.39072   0.00000  Uiso   1.00
C20    C     0.59462   0.95239   0.42877   0.00000  Uiso   1.00
C21    C     0.69201   0.06915   0.19172   0.00000  Uiso   1.00
C22    C     0.71683   0.13438   0.20438   0.00000  Uiso   1.00
C23    C     0.72241   0.23394   0.15721   0.00000  Uiso   1.00
H24    H     0.63305   0.04384   0.08536   0.00000  Uiso   1.00
H25    H     0.65250   0.87955   0.96938   0.00000  Uiso   1.00
H26    H     0.57688   0.03403   0.22847   0.00000  Uiso   1.00
H27    H     0.66455   0.22718   0.04215   0.00000  Uiso   1.00
H28    H     0.68225   0.68283   0.86626   0.00000  Uiso   1.00
H29    H     0.52281   0.00860   0.41257   0.00000  Uiso   1.00
H30    H     0.70768   0.41589   0.01969   0.00000  Uiso   1.00
H31    H     0.69625   0.93162   0.28150   0.00000  Uiso   1.00
H32    H     0.71917   0.76117   0.17628   0.00000  Uiso   1.00
H33    H     0.64354   0.91565   0.43537   0.00000  Uiso   1.00
H34    H     0.73122   0.10880   0.24905   0.00000  Uiso   1.00
H35    H     0.73636   0.58674   0.03419   0.00000  Uiso   1.00
H36    H     0.57691   0.91252   0.58051   0.00000  Uiso   1.00
H37    H     0.76179   0.31980   0.18762   0.00000  Uiso   1.00
O38    O     0.72323   0.52466   0.87749   0.00000  Uiso   1.00
O39    O     0.51405   0.95208   0.59423   0.00000  Uiso   1.00
O40    O     0.75660   0.48643   0.07876   0.00000  Uiso   1.00
N41    N     0.69185   0.68362   0.92022   0.00000  Uiso   1.00
N42    N     0.54277   0.98817   0.43098   0.00000  Uiso   1.00
N43    N     0.71561   0.36897   0.06368   0.00000  Uiso   1.00
N44    N     0.72096   0.63191   0.01058   0.00000  Uiso   1.00
N45    N     0.57189   0.93647   0.52134   0.00000  Uiso   1.00
N46    N     0.74473   0.31727   0.15404   0.00000  Uiso   1.00
C47    C     0.14753   0.51813   0.13029   0.00000  Uiso   1.00
C48    C     0.16686   0.41331   0.09447   0.00000  Uiso   1.00
C49    C     0.16690   0.35397   0.01402   0.00000  Uiso   1.00
C50    C     0.18621   0.26032   0.99331   0.00000  Uiso   1.00
C51    C     0.21338   0.10257   0.92893   0.00000  Uiso   1.00
C52    C     0.12578   0.49723   0.23524   0.00000  Uiso   1.00
C53    C     0.09126   0.50847   0.27315   0.00000  Uiso   1.00
C54    C     0.07599   0.48547   0.37094   0.00000  Uiso   1.00
C55    C     0.03938   0.45808   0.52513   0.00000  Uiso   1.00
C56    C     0.17341   0.60217   0.13400   0.00000  Uiso   1.00
C57    C     0.17895   0.70165   0.08681   0.00000  Uiso   1.00
C58    C     0.20378   0.76702   0.09938   0.00000  Uiso   1.00
C59    C     0.24113   0.90256   0.09638   0.00000  Uiso   1.00
C60    C     0.18177   0.45733   0.23656   0.00000  Uiso   1.00
C61    C     0.18546   0.38029   0.15220   0.00000  Uiso   1.00
C62    C     0.20478   0.28671   0.13160   0.00000  Uiso   1.00
C63    C     0.20484   0.22724   0.05113   0.00000  Uiso   1.00
C64    C     0.14437   0.46421   0.29296   0.00000  Uiso   1.00
C65    C     0.12914   0.44120   0.39072   0.00000  Uiso   1.00
C66    C     0.09462   0.45239   0.42877   0.00000  Uiso   1.00
C67    C     0.19201   0.56915   0.19172   0.00000  Uiso   1.00
C68    C     0.21683   0.63438   0.20438   0.00000  Uiso   1.00
C69    C     0.22241   0.73394   0.15721   0.00000  Uiso   1.00
H70    H     0.13305   0.54384   0.08536   0.00000  Uiso   1.00
H71    H     0.15250   0.37955   0.96938   0.00000  Uiso   1.00
H72    H     0.07688   0.53403   0.22847   0.00000  Uiso   1.00
H73    H     0.16455   0.72718   0.04215   0.00000  Uiso   1.00
H74    H     0.18225   0.18283   0.86626   0.00000  Uiso   1.00
H75    H     0.02281   0.50860   0.41257   0.00000  Uiso   1.00
H76    H     0.20768   0.91589   0.01969   0.00000  Uiso   1.00
H77    H     0.19625   0.43162   0.28150   0.00000  Uiso   1.00
H78    H     0.21917   0.26117   0.17628   0.00000  Uiso   1.00
H79    H     0.14354   0.41565   0.43537   0.00000  Uiso   1.00
H80    H     0.23122   0.60880   0.24905   0.00000  Uiso   1.00
H81    H     0.23636   0.08674   0.03419   0.00000  Uiso   1.00
H82    H     0.07691   0.41252   0.58051   0.00000  Uiso   1.00
H83    H     0.26179   0.81980   0.18762   0.00000  Uiso   1.00
O84    O     0.22323   0.02466   0.87749   0.00000  Uiso   1.00
O85    O     0.01405   0.45208   0.59423   0.00000  Uiso   1.00
O86    O     0.25660   0.98643   0.07876   0.00000  Uiso   1.00
N87    N     0.19185   0.18362   0.92022   0.00000  Uiso   1.00
N88    N     0.04277   0.48817   0.43098   0.00000  Uiso   1.00
N89    N     0.21561   0.86897   0.06368   0.00000  Uiso   1.00
N90    N     0.22096   0.13191   0.01058   0.00000  Uiso   1.00
N91    N     0.07189   0.43647   0.52134   0.00000  Uiso   1.00
N92    N     0.24473   0.81727   0.15404   0.00000  Uiso   1.00
C93    C     0.35247   0.01813   0.36971   0.00000  Uiso   1.00
C94    C     0.33314   0.91331   0.40553   0.00000  Uiso   1.00
C95    C     0.33310   0.85397   0.48598   0.00000  Uiso   1.00
C96    C     0.31379   0.76032   0.50669   0.00000  Uiso   1.00
C97    C     0.28662   0.60257   0.57107   0.00000  Uiso   1.00
C98    C     0.37422   0.99723   0.26476   0.00000  Uiso   1.00
C99    C     0.40874   0.00847   0.22685   0.00000  Uiso   1.00
C100   C     0.42401   0.98547   0.12906   0.00000  Uiso   1.00
C101   C     0.46062   0.95808   0.97487   0.00000  Uiso   1.00
C102   C     0.32659   0.10217   0.36600   0.00000  Uiso   1.00
C103   C     0.32105   0.20165   0.41319   0.00000  Uiso   1.00
C104   C     0.29622   0.26702   0.40062   0.00000  Uiso   1.00
C105   C     0.25887   0.40256   0.40362   0.00000  Uiso   1.00
C106   C     0.31823   0.95733   0.26344   0.00000  Uiso   1.00
C107   C     0.31454   0.88029   0.34780   0.00000  Uiso   1.00
C108   C     0.29522   0.78671   0.36840   0.00000  Uiso   1.00
C109   C     0.29516   0.72724   0.44887   0.00000  Uiso   1.00
C110   C     0.35563   0.96421   0.20704   0.00000  Uiso   1.00
C111   C     0.37086   0.94120   0.10928   0.00000  Uiso   1.00
C112   C     0.40538   0.95239   0.07123   0.00000  Uiso   1.00
C113   C     0.30799   0.06915   0.30828   0.00000  Uiso   1.00
C114   C     0.28317   0.13438   0.29562   0.00000  Uiso   1.00
C115   C     0.27759   0.23394   0.34279   0.00000  Uiso   1.00
H116   H     0.36695   0.04384   0.41464   0.00000  Uiso   1.00
H117   H     0.34750   0.87955   0.53062   0.00000  Uiso   1.00
H118   H     0.42312   0.03403   0.27153   0.00000  Uiso   1.00
H119   H     0.33545   0.22718   0.45785   0.00000  Uiso   1.00
H120   H     0.31775   0.68283   0.63374   0.00000  Uiso   1.00
H121   H     0.47719   0.00860   0.08743   0.00000  Uiso   1.00
H122   H     0.29232   0.41589   0.48031   0.00000  Uiso   1.00
H123   H     0.30375   0.93162   0.21850   0.00000  Uiso   1.00
H124   H     0.28083   0.76117   0.32372   0.00000  Uiso   1.00
H125   H     0.35646   0.91565   0.06463   0.00000  Uiso   1.00
H126   H     0.26878   0.10880   0.25095   0.00000  Uiso   1.00
H127   H     0.26364   0.58674   0.46581   0.00000  Uiso   1.00
H128   H     0.42309   0.91252   0.91949   0.00000  Uiso   1.00
H129   H     0.23821   0.31980   0.31238   0.00000  Uiso   1.00
O130   O     0.27677   0.52466   0.62251   0.00000  Uiso   1.00
O131   O     0.48595   0.95208   0.90577   0.00000  Uiso   1.00
O132   O     0.24340   0.48643   0.42124   0.00000  Uiso   1.00
N133   N     0.30815   0.68362   0.57978   0.00000  Uiso   1.00
N134   N     0.45723   0.98817   0.06902   0.00000  Uiso   1.00
N135   N     0.28439   0.36897   0.43632   0.00000  Uiso   1.00
N136   N     0.27904   0.63191   0.48942   0.00000  Uiso   1.00
N137   N     0.42811   0.93647   0.97866   0.00000  Uiso   1.00
N138   N     0.25527   0.31727   0.34596   0.00000  Uiso   1.00
C139   C     0.85247   0.51813   0.36971   0.00000  Uiso   1.00
C140   C     0.83314   0.41331   0.40553   0.00000  Uiso   1.00
C141   C     0.83310   0.35397   0.48598   0.00000  Uiso   1.00
C142   C     0.81379   0.26032   0.50669   0.00000  Uiso   1.00
C143   C     0.78662   0.10257   0.57107   0.00000  Uiso   1.00
C144   C     0.87422   0.49723   0.26476   0.00000  Uiso   1.00
C145   C     0.90874   0.50847   0.22685   0.00000  Uiso   1.00
C146   C     0.92401   0.48547   0.12906   0.00000  Uiso   1.00
C147   C     0.96062   0.45808   0.97487   0.00000  Uiso   1.00
C148   C     0.82659   0.60217   0.36600   0.00000  Uiso   1.00
C149   C     0.82105   0.70165   0.41319   0.00000  Uiso   1.00
C150   C     0.79622   0.76702   0.40062   0.00000  Uiso   1.00
C151   C     0.75887   0.90256   0.40362   0.00000  Uiso   1.00
C152   C     0.81823   0.45733   0.26344   0.00000  Uiso   1.00
C153   C     0.81454   0.38029   0.34780   0.00000  Uiso   1.00
C154   C     0.79522   0.28671   0.36840   0.00000  Uiso   1.00
C155   C     0.79516   0.22724   0.44887   0.00000  Uiso   1.00
C156   C     0.85563   0.46421   0.20704   0.00000  Uiso   1.00
C157   C     0.87086   0.44120   0.10928   0.00000  Uiso   1.00
C158   C     0.90538   0.45239   0.07123   0.00000  Uiso   1.00
C159   C     0.80799   0.56915   0.30828   0.00000  Uiso   1.00
C160   C     0.78317   0.63438   0.29562   0.00000  Uiso   1.00
C161   C     0.77759   0.73394   0.34279   0.00000  Uiso   1.00
H162   H     0.86695   0.54384   0.41464   0.00000  Uiso   1.00
H163   H     0.84750   0.37955   0.53062   0.00000  Uiso   1.00
H164   H     0.92312   0.53403   0.27153   0.00000  Uiso   1.00
H165   H     0.83545   0.72718   0.45785   0.00000  Uiso   1.00
H166   H     0.81775   0.18283   0.63374   0.00000  Uiso   1.00
H167   H     0.97719   0.50860   0.08743   0.00000  Uiso   1.00
H168   H     0.79232   0.91589   0.48031   0.00000  Uiso   1.00
H169   H     0.80375   0.43162   0.21850   0.00000  Uiso   1.00
H170   H     0.78083   0.26117   0.32372   0.00000  Uiso   1.00
H171   H     0.85646   0.41565   0.06463   0.00000  Uiso   1.00
H172   H     0.76878   0.60880   0.25095   0.00000  Uiso   1.00
H173   H     0.76364   0.08674   0.46581   0.00000  Uiso   1.00
H174   H     0.92309   0.41252   0.91949   0.00000  Uiso   1.00
H175   H     0.73821   0.81980   0.31238   0.00000  Uiso   1.00
O176   O     0.77677   0.02466   0.62251   0.00000  Uiso   1.00
O177   O     0.98595   0.45208   0.90577   0.00000  Uiso   1.00
O178   O     0.74340   0.98643   0.42124   0.00000  Uiso   1.00
N179   N     0.80815   0.18362   0.57978   0.00000  Uiso   1.00
N180   N     0.95723   0.48817   0.06902   0.00000  Uiso   1.00
N181   N     0.78439   0.86897   0.43632   0.00000  Uiso   1.00
N182   N     0.77904   0.13191   0.48942   0.00000  Uiso   1.00
N183   N     0.92811   0.43647   0.97866   0.00000  Uiso   1.00
N184   N     0.75527   0.81727   0.34596   0.00000  Uiso   1.00
C185   C     0.35247   0.98187   0.86971   0.00000  Uiso   1.00
C186   C     0.33314   0.08669   0.90553   0.00000  Uiso   1.00
C187   C     0.33310   0.14603   0.98598   0.00000  Uiso   1.00
C188   C     0.31379   0.23968   0.00669   0.00000  Uiso   1.00
C189   C     0.28662   0.39743   0.07107   0.00000  Uiso   1.00
C190   C     0.37422   0.00277   0.76476   0.00000  Uiso   1.00
C191   C     0.40874   0.99153   0.72685   0.00000  Uiso   1.00
C192   C     0.42401   0.01453   0.62906   0.00000  Uiso   1.00
C193   C     0.46062   0.04192   0.47487   0.00000  Uiso   1.00
C194   C     0.32659   0.89783   0.86600   0.00000  Uiso   1.00
C195   C     0.32105   0.79835   0.91319   0.00000  Uiso   1.00
C196   C     0.29622   0.73298   0.90062   0.00000  Uiso   1.00
C197   C     0.25887   0.59744   0.90362   0.00000  Uiso   1.00
C198   C     0.31823   0.04267   0.76344   0.00000  Uiso   1.00
C199   C     0.31454   0.11971   0.84780   0.00000  Uiso   1.00
C200   C     0.29522   0.21329   0.86840   0.00000  Uiso   1.00
C201   C     0.29516   0.27276   0.94887   0.00000  Uiso   1.00
C202   C     0.35563   0.03579   0.70704   0.00000  Uiso   1.00
C203   C     0.37086   0.05880   0.60928   0.00000  Uiso   1.00
C204   C     0.40538   0.04761   0.57123   0.00000  Uiso   1.00
C205   C     0.30799   0.93085   0.80828   0.00000  Uiso   1.00
C206   C     0.28317   0.86562   0.79562   0.00000  Uiso   1.00
C207   C     0.27759   0.76606   0.84279   0.00000  Uiso   1.00
H208   H     0.36695   0.95616   0.91464   0.00000  Uiso   1.00
H209   H     0.34750   0.12045   0.03062   0.00000  Uiso   1.00
H210   H     0.42312   0.96597   0.77153   0.00000  Uiso   1.00
H211   H     0.33545   0.77282   0.95785   0.00000  Uiso   1.00
H212   H     0.31775   0.31717   0.13374   0.00000  Uiso   1.00
H213   H     0.47719   0.99140   0.58743   0.00000  Uiso   1.00
H214   H     0.29232   0.58411   0.98031   0.00000  Uiso   1.00
H215   H     0.30375   0.06838   0.71850   0.00000  Uiso   1.00
H216   H     0.28083   0.23883   0.82372   0.00000  Uiso   1.00
H217   H     0.35646   0.08435   0.56463   0.00000  Uiso   1.00
H218   H     0.26878   0.89120   0.75095   0.00000  Uiso   1.00
H219   H     0.26364   0.41326   0.96581   0.00000  Uiso   1.00
H220   H     0.42309   0.08748   0.41949   0.00000  Uiso   1.00
H221   H     0.23821   0.68020   0.81238   0.00000  Uiso   1.00
O222   O     0.27677   0.47534   0.12251   0.00000  Uiso   1.00
O223   O     0.48595   0.04792   0.40577   0.00000  Uiso   1.00
O224   O     0.24340   0.51357   0.92124   0.00000  Uiso   1.00
N225   N     0.30815   0.31638   0.07978   0.00000  Uiso   1.00
N226   N     0.45723   0.01183   0.56902   0.00000  Uiso   1.00
N227   N     0.28439   0.63103   0.93632   0.00000  Uiso   1.00
N228   N     0.27904   0.36809   0.98942   0.00000  Uiso   1.00
N229   N     0.42811   0.06353   0.47866   0.00000  Uiso   1.00
N230   N     0.25527   0.68273   0.84596   0.00000  Uiso   1.00
C231   C     0.85247   0.48187   0.86971   0.00000  Uiso   1.00
C232   C     0.83314   0.58669   0.90553   0.00000  Uiso   1.00
C233   C     0.83310   0.64603   0.98598   0.00000  Uiso   1.00
C234   C     0.81379   0.73968   0.00669   0.00000  Uiso   1.00
C235   C     0.78662   0.89743   0.07107   0.00000  Uiso   1.00
C236   C     0.87422   0.50277   0.76476   0.00000  Uiso   1.00
C237   C     0.90874   0.49153   0.72685   0.00000  Uiso   1.00
C238   C     0.92401   0.51453   0.62906   0.00000  Uiso   1.00
C239   C     0.96062   0.54192   0.47487   0.00000  Uiso   1.00
C240   C     0.82659   0.39783   0.86600   0.00000  Uiso   1.00
C241   C     0.82105   0.29835   0.91319   0.00000  Uiso   1.00
C242   C     0.79622   0.23298   0.90062   0.00000  Uiso   1.00
C243   C     0.75887   0.09744   0.90362   0.00000  Uiso   1.00
C244   C     0.81823   0.54267   0.76344   0.00000  Uiso   1.00
C245   C     0.81454   0.61971   0.84780   0.00000  Uiso   1.00
C246   C     0.79522   0.71329   0.86840   0.00000  Uiso   1.00
C247   C     0.79516   0.77276   0.94887   0.00000  Uiso   1.00
C248   C     0.85563   0.53579   0.70704   0.00000  Uiso   1.00
C249   C     0.87086   0.55880   0.60928   0.00000  Uiso   1.00
C250   C     0.90538   0.54761   0.57123   0.00000  Uiso   1.00
C251   C     0.80799   0.43085   0.80828   0.00000  Uiso   1.00
C252   C     0.78317   0.36562   0.79562   0.00000  Uiso   1.00
C253   C     0.77759   0.26606   0.84279   0.00000  Uiso   1.00
H254   H     0.86695   0.45616   0.91464   0.00000  Uiso   1.00
H255   H     0.84750   0.62045   0.03062   0.00000  Uiso   1.00
H256   H     0.92312   0.46597   0.77153   0.00000  Uiso   1.00
H257   H     0.83545   0.27282   0.95785   0.00000  Uiso   1.00
H258   H     0.81775   0.81717   0.13374   0.00000  Uiso   1.00
H259   H     0.97719   0.49140   0.58743   0.00000  Uiso   1.00
H260   H     0.79232   0.08411   0.98031   0.00000  Uiso   1.00
H261   H     0.80375   0.56838   0.71850   0.00000  Uiso   1.00
H262   H     0.78083   0.73883   0.82372   0.00000  Uiso   1.00
H263   H     0.85646   0.58435   0.56463   0.00000  Uiso   1.00
H264   H     0.76878   0.39120   0.75095   0.00000  Uiso   1.00
H265   H     0.76364   0.91326   0.96581   0.00000  Uiso   1.00
H266   H     0.92309   0.58748   0.41949   0.00000  Uiso   1.00
H267   H     0.73821   0.18020   0.81238   0.00000  Uiso   1.00
O268   O     0.77677   0.97534   0.12251   0.00000  Uiso   1.00
O269   O     0.98595   0.54792   0.40577   0.00000  Uiso   1.00
O270   O     0.74340   0.01357   0.92124   0.00000  Uiso   1.00
N271   N     0.80815   0.81638   0.07978   0.00000  Uiso   1.00
N272   N     0.95723   0.51183   0.56902   0.00000  Uiso   1.00
N273   N     0.78439   0.13103   0.93632   0.00000  Uiso   1.00
N274   N     0.77904   0.86809   0.98942   0.00000  Uiso   1.00
N275   N     0.92811   0.56353   0.47866   0.00000  Uiso   1.00
N276   N     0.75527   0.18273   0.84596   0.00000  Uiso   1.00
C277   C     0.64753   0.98187   0.63029   0.00000  Uiso   1.00
C278   C     0.66686   0.08669   0.59447   0.00000  Uiso   1.00
C279   C     0.66690   0.14603   0.51402   0.00000  Uiso   1.00
C280   C     0.68621   0.23968   0.49331   0.00000  Uiso   1.00
C281   C     0.71338   0.39743   0.42893   0.00000  Uiso   1.00
C282   C     0.62578   0.00277   0.73524   0.00000  Uiso   1.00
C283   C     0.59126   0.99153   0.77315   0.00000  Uiso   1.00
C284   C     0.57599   0.01453   0.87094   0.00000  Uiso   1.00
C285   C     0.53938   0.04192   0.02513   0.00000  Uiso   1.00
C286   C     0.67341   0.89783   0.63400   0.00000  Uiso   1.00
C287   C     0.67895   0.79835   0.58681   0.00000  Uiso   1.00
C288   C     0.70378   0.73298   0.59938   0.00000  Uiso   1.00
C289   C     0.74113   0.59744   0.59638   0.00000  Uiso   1.00
C290   C     0.68177   0.04267   0.73656   0.00000  Uiso   1.00
C291   C     0.68546   0.11971   0.65220   0.00000  Uiso   1.00
C292   C     0.70478   0.21329   0.63160   0.00000  Uiso   1.00
C293   C     0.70484   0.27276   0.55113   0.00000  Uiso   1.00
C294   C     0.64437   0.03579   0.79296   0.00000  Uiso   1.00
C295   C     0.62914   0.05880   0.89072   0.00000  Uiso   1.00
C296   C     0.59462   0.04761   0.92877   0.00000  Uiso   1.00
C297   C     0.69201   0.93085   0.69172   0.00000  Uiso   1.00
C298   C     0.71683   0.86562   0.70438   0.00000  Uiso   1.00
C299   C     0.72241   0.76606   0.65721   0.00000  Uiso   1.00
H300   H     0.63305   0.95616   0.58536   0.00000  Uiso   1.00
H301   H     0.65250   0.12045   0.46938   0.00000  Uiso   1.00
H302   H     0.57688   0.96597   0.72847   0.00000  Uiso   1.00
H303   H     0.66455   0.77282   0.54215   0.00000  Uiso   1.00
H304   H     0.68225   0.31717   0.36626   0.00000  Uiso   1.00
H305   H     0.52281   0.99140   0.91257   0.00000  Uiso   1.00
H306   H     0.70768   0.58411   0.51969   0.00000  Uiso   1.00
H307   H     0.69625   0.06838   0.78150   0.00000  Uiso   1.00
H308   H     0.71917   0.23883   0.67628   0.00000  Uiso   1.00
H309   H     0.64354   0.08435   0.93537   0.00000  Uiso   1.00
H310   H     0.73122   0.89120   0.74905   0.00000  Uiso   1.00
H311   H     0.73636   0.41326   0.53419   0.00000  Uiso   1.00
H312   H     0.57691   0.08748   0.08051   0.00000  Uiso   1.00
H313   H     0.76179   0.68020   0.68762   0.00000  Uiso   1.00
O314   O     0.72323   0.47534   0.37749   0.00000  Uiso   1.00
O315   O     0.51405   0.04792   0.09423   0.00000  Uiso   1.00
O316   O     0.75660   0.51357   0.57876   0.00000  Uiso   1.00
N317   N     0.69185   0.31638   0.42022   0.00000  Uiso   1.00
N318   N     0.54277   0.01183   0.93098   0.00000  Uiso   1.00
N319   N     0.71561   0.63103   0.56368   0.00000  Uiso   1.00
N320   N     0.72096   0.36809   0.51058   0.00000  Uiso   1.00
N321   N     0.57189   0.06353   0.02134   0.00000  Uiso   1.00
N322   N     0.74473   0.68273   0.65404   0.00000  Uiso   1.00
C323   C     0.14753   0.48187   0.63029   0.00000  Uiso   1.00
C324   C     0.16686   0.58669   0.59447   0.00000  Uiso   1.00
C325   C     0.16690   0.64603   0.51402   0.00000  Uiso   1.00
C326   C     0.18621   0.73968   0.49331   0.00000  Uiso   1.00
C327   C     0.21338   0.89743   0.42893   0.00000  Uiso   1.00
C328   C     0.12578   0.50277   0.73524   0.00000  Uiso   1.00
C329   C     0.09126   0.49153   0.77315   0.00000  Uiso   1.00
C330   C     0.07599   0.51453   0.87094   0.00000  Uiso   1.00
C331   C     0.03938   0.54192   0.02513   0.00000  Uiso   1.00
C332   C     0.17341   0.39783   0.63400   0.00000  Uiso   1.00
C333   C     0.17895   0.29835   0.58681   0.00000  Uiso   1.00
C334   C     0.20378   0.23298   0.59938   0.00000  Uiso   1.00
C335   C     0.24113   0.09744   0.59638   0.00000  Uiso   1.00
C336   C     0.18177   0.54267   0.73656   0.00000  Uiso   1.00
C337   C     0.18546   0.61971   0.65220   0.00000  Uiso   1.00
C338   C     0.20478   0.71329   0.63160   0.00000  Uiso   1.00
C339   C     0.20484   0.77276   0.55113   0.00000  Uiso   1.00
C340   C     0.14437   0.53579   0.79296   0.00000  Uiso   1.00
C341   C     0.12914   0.55880   0.89072   0.00000  Uiso   1.00
C342   C     0.09462   0.54761   0.92877   0.00000  Uiso   1.00
C343   C     0.19201   0.43085   0.69172   0.00000  Uiso   1.00
C344   C     0.21683   0.36562   0.70438   0.00000  Uiso   1.00
C345   C     0.22241   0.26606   0.65721   0.00000  Uiso   1.00
H346   H     0.13305   0.45616   0.58536   0.00000  Uiso   1.00
H347   H     0.15250   0.62045   0.46938   0.00000  Uiso   1.00
H348   H     0.07688   0.46597   0.72847   0.00000  Uiso   1.00
H349   H     0.16455   0.27282   0.54215   0.00000  Uiso   1.00
H350   H     0.18225   0.81717   0.36626   0.00000  Uiso   1.00
H351   H     0.02281   0.49140   0.91257   0.00000  Uiso   1.00
H352   H     0.20768   0.08411   0.51969   0.00000  Uiso   1.00
H353   H     0.19625   0.56838   0.78150   0.00000  Uiso   1.00
H354   H     0.21917   0.73883   0.67628   0.00000  Uiso   1.00
H355   H     0.14354   0.58435   0.93537   0.00000  Uiso   1.00
H356   H     0.23122   0.39120   0.74905   0.00000  Uiso   1.00
H357   H     0.23636   0.91326   0.53419   0.00000  Uiso   1.00
H358   H     0.07691   0.58748   0.08051   0.00000  Uiso   1.00
H359   H     0.26179   0.18020   0.68762   0.00000  Uiso   1.00
O360   O     0.22323   0.97534   0.37749   0.00000  Uiso   1.00
O361   O     0.01405   0.54792   0.09423   0.00000  Uiso   1.00
O362   O     0.25660   0.01357   0.57876   0.00000  Uiso   1.00
N363   N     0.19185   0.81638   0.42022   0.00000  Uiso   1.00
N364   N     0.04277   0.51183   0.93098   0.00000  Uiso   1.00
N365   N     0.21561   0.13103   0.56368   0.00000  Uiso   1.00
N366   N     0.22096   0.86809   0.51058   0.00000  Uiso   1.00
N367   N     0.07189   0.56353   0.02134   0.00000  Uiso   1.00
N368   N     0.24473   0.18273   0.65404   0.00000  Uiso   1.00
