data_job_05447
_audit_creation_date              2018-12-19
_audit_creation_method            'Materials Studio'
_symmetry_space_group_name_H-M    'P1'
_symmetry_Int_Tables_number       1
_symmetry_cell_setting            triclinic
loop_
_symmetry_equiv_pos_as_xyz
  x,y,z
_cell_length_a                    19.8444
_cell_length_b                    11.3126
_cell_length_c                    11.3256
_cell_angle_alpha                 90.0000
_cell_angle_beta                  90.0000
_cell_angle_gamma                 90.0000
loop_
_atom_site_label
_atom_site_type_symbol
_atom_site_fract_x
_atom_site_fract_y
_atom_site_fract_z
_atom_site_U_iso_or_equiv
_atom_site_adp_type
_atom_site_occupancy
C1     C     0.60545   0.73430   0.22293   0.00000  Uiso   1.00
C2     C     0.63012   0.84671   0.16247   0.00000  Uiso   1.00
C3     C     0.67792   0.85222   0.07320   0.00000  Uiso   1.00
C4     C     0.69363   0.96353   0.02952   0.00000  Uiso   1.00
C5     C     0.73668   0.12255   0.92898   0.00000  Uiso   1.00
C6     C     0.61797   0.75217   0.35457   0.00000  Uiso   1.00
C7     C     0.65554   0.67818   0.42682   0.00000  Uiso   1.00
C8     C     0.66101   0.70992   0.54485   0.00000  Uiso   1.00
C9     C     0.68515   0.72211   0.74257   0.00000  Uiso   1.00
C10    C     0.52913   0.73279   0.20737   0.00000  Uiso   1.00
C11    C     0.49201   0.64250   0.15589   0.00000  Uiso   1.00
C12    C     0.42267   0.65790   0.15002   0.00000  Uiso   1.00
C13    C     0.30888   0.64001   0.11919   0.00000  Uiso   1.00
C14    C     0.54833   0.92219   0.30409   0.00000  Uiso   1.00
C15    C     0.59910   0.94876   0.20656   0.00000  Uiso   1.00
C16    C     0.61473   0.06010   0.16300   0.00000  Uiso   1.00
C17    C     0.66255   0.06577   0.07368   0.00000  Uiso   1.00
C18    C     0.58694   0.85422   0.39866   0.00000  Uiso   1.00
C19    C     0.59235   0.88606   0.51661   0.00000  Uiso   1.00
C20    C     0.62993   0.81215   0.58902   0.00000  Uiso   1.00
C21    C     0.49810   0.83485   0.25146   0.00000  Uiso   1.00
C22    C     0.42881   0.85038   0.24568   0.00000  Uiso   1.00
C23    C     0.39159   0.76014   0.19419   0.00000  Uiso   1.00
H24    H     0.62961   0.65485   0.18861   0.00000  Uiso   1.00
H25    H     0.70193   0.77322   0.03912   0.00000  Uiso   1.00
H26    H     0.67954   0.59921   0.39268   0.00000  Uiso   1.00
H27    H     0.51603   0.56354   0.12178   0.00000  Uiso   1.00
H28    H     0.76844   0.94947   0.89285   0.00000  Uiso   1.00
H29    H     0.72123   0.58254   0.63836   0.00000  Uiso   1.00
H30    H     0.37643   0.50731   0.06713   0.00000  Uiso   1.00
H31    H     0.52418   0.00165   0.33842   0.00000  Uiso   1.00
H32    H     0.59071   0.13906   0.19713   0.00000  Uiso   1.00
H33    H     0.56833   0.96504   0.55070   0.00000  Uiso   1.00
H34    H     0.40482   0.92937   0.27980   0.00000  Uiso   1.00
H35    H     0.67818   0.24639   0.02110   0.00000  Uiso   1.00
H36    H     0.63096   0.87945   0.76662   0.00000  Uiso   1.00
H37    H     0.28617   0.80424   0.19538   0.00000  Uiso   1.00
O38    O     0.76900   0.18207   0.86136   0.00000  Uiso   1.00
O39    O     0.70704   0.70065   0.83944   0.00000  Uiso   1.00
O40    O     0.25468   0.60196   0.09000   0.00000  Uiso   1.00
N41    N     0.73806   0.00049   0.94240   0.00000  Uiso   1.00
N42    N     0.69392   0.65744   0.63941   0.00000  Uiso   1.00
N43    N     0.37157   0.58710   0.10538   0.00000  Uiso   1.00
N44    N     0.68949   0.16026   0.01142   0.00000  Uiso   1.00
N45    N     0.64535   0.81721   0.70842   0.00000  Uiso   1.00
N46    N     0.32300   0.74687   0.17440   0.00000  Uiso   1.00
C47    C     0.39455   0.26570   0.72293   0.00000  Uiso   1.00
C48    C     0.36988   0.15329   0.66247   0.00000  Uiso   1.00
C49    C     0.32208   0.14778   0.57320   0.00000  Uiso   1.00
C50    C     0.30637   0.03647   0.52952   0.00000  Uiso   1.00
C51    C     0.26332   0.87745   0.42898   0.00000  Uiso   1.00
C52    C     0.38203   0.24783   0.85457   0.00000  Uiso   1.00
C53    C     0.34446   0.32182   0.92682   0.00000  Uiso   1.00
C54    C     0.33899   0.29008   0.04485   0.00000  Uiso   1.00
C55    C     0.31485   0.27789   0.24257   0.00000  Uiso   1.00
C56    C     0.47087   0.26721   0.70737   0.00000  Uiso   1.00
C57    C     0.50799   0.35750   0.65589   0.00000  Uiso   1.00
C58    C     0.57733   0.34210   0.65002   0.00000  Uiso   1.00
C59    C     0.69112   0.35999   0.61919   0.00000  Uiso   1.00
C60    C     0.45167   0.07781   0.80409   0.00000  Uiso   1.00
C61    C     0.40090   0.05124   0.70656   0.00000  Uiso   1.00
C62    C     0.38527   0.93990   0.66300   0.00000  Uiso   1.00
C63    C     0.33745   0.93423   0.57368   0.00000  Uiso   1.00
C64    C     0.41306   0.14578   0.89866   0.00000  Uiso   1.00
C65    C     0.40765   0.11394   0.01661   0.00000  Uiso   1.00
C66    C     0.37007   0.18785   0.08902   0.00000  Uiso   1.00
C67    C     0.50190   0.16515   0.75146   0.00000  Uiso   1.00
C68    C     0.57119   0.14962   0.74568   0.00000  Uiso   1.00
C69    C     0.60841   0.23986   0.69419   0.00000  Uiso   1.00
H70    H     0.37039   0.34515   0.68861   0.00000  Uiso   1.00
H71    H     0.29807   0.22678   0.53912   0.00000  Uiso   1.00
H72    H     0.32046   0.40079   0.89268   0.00000  Uiso   1.00
H73    H     0.48397   0.43646   0.62178   0.00000  Uiso   1.00
H74    H     0.23156   0.05053   0.39285   0.00000  Uiso   1.00
H75    H     0.27877   0.41746   0.13836   0.00000  Uiso   1.00
H76    H     0.62357   0.49269   0.56713   0.00000  Uiso   1.00
H77    H     0.47582   0.99835   0.83842   0.00000  Uiso   1.00
H78    H     0.40929   0.86094   0.69713   0.00000  Uiso   1.00
H79    H     0.43167   0.03496   0.05070   0.00000  Uiso   1.00
H80    H     0.59518   0.07063   0.77980   0.00000  Uiso   1.00
H81    H     0.32182   0.75361   0.52110   0.00000  Uiso   1.00
H82    H     0.36904   0.12055   0.26662   0.00000  Uiso   1.00
H83    H     0.71383   0.19576   0.69538   0.00000  Uiso   1.00
O84    O     0.23100   0.81793   0.36136   0.00000  Uiso   1.00
O85    O     0.29296   0.29935   0.33944   0.00000  Uiso   1.00
O86    O     0.74532   0.39804   0.59000   0.00000  Uiso   1.00
N87    N     0.26194   0.99951   0.44240   0.00000  Uiso   1.00
N88    N     0.30608   0.34256   0.13941   0.00000  Uiso   1.00
N89    N     0.62843   0.41290   0.60538   0.00000  Uiso   1.00
N90    N     0.31051   0.83974   0.51142   0.00000  Uiso   1.00
N91    N     0.35465   0.18279   0.20842   0.00000  Uiso   1.00
N92    N     0.67700   0.25313   0.67440   0.00000  Uiso   1.00
C93    C     0.10545   0.26570   0.22293   0.00000  Uiso   1.00
C94    C     0.13012   0.15329   0.16247   0.00000  Uiso   1.00
C95    C     0.17792   0.14778   0.07320   0.00000  Uiso   1.00
C96    C     0.19363   0.03647   0.02952   0.00000  Uiso   1.00
C97    C     0.23668   0.87745   0.92898   0.00000  Uiso   1.00
C98    C     0.11797   0.24783   0.35457   0.00000  Uiso   1.00
C99    C     0.15554   0.32182   0.42682   0.00000  Uiso   1.00
C100   C     0.16101   0.29008   0.54485   0.00000  Uiso   1.00
C101   C     0.18515   0.27789   0.74257   0.00000  Uiso   1.00
C102   C     0.02913   0.26721   0.20737   0.00000  Uiso   1.00
C103   C     0.99201   0.35750   0.15589   0.00000  Uiso   1.00
C104   C     0.92267   0.34210   0.15002   0.00000  Uiso   1.00
C105   C     0.80888   0.35999   0.11919   0.00000  Uiso   1.00
C106   C     0.04833   0.07781   0.30409   0.00000  Uiso   1.00
C107   C     0.09910   0.05124   0.20656   0.00000  Uiso   1.00
C108   C     0.11473   0.93990   0.16300   0.00000  Uiso   1.00
C109   C     0.16255   0.93423   0.07368   0.00000  Uiso   1.00
C110   C     0.08694   0.14578   0.39866   0.00000  Uiso   1.00
C111   C     0.09235   0.11394   0.51661   0.00000  Uiso   1.00
C112   C     0.12993   0.18785   0.58902   0.00000  Uiso   1.00
C113   C     0.99810   0.16515   0.25146   0.00000  Uiso   1.00
C114   C     0.92881   0.14962   0.24568   0.00000  Uiso   1.00
C115   C     0.89159   0.23986   0.19419   0.00000  Uiso   1.00
H116   H     0.12961   0.34515   0.18861   0.00000  Uiso   1.00
H117   H     0.20193   0.22678   0.03912   0.00000  Uiso   1.00
H118   H     0.17954   0.40079   0.39268   0.00000  Uiso   1.00
H119   H     0.01603   0.43646   0.12178   0.00000  Uiso   1.00
H120   H     0.26844   0.05053   0.89285   0.00000  Uiso   1.00
H121   H     0.22123   0.41746   0.63836   0.00000  Uiso   1.00
H122   H     0.87643   0.49269   0.06713   0.00000  Uiso   1.00
H123   H     0.02418   0.99835   0.33842   0.00000  Uiso   1.00
H124   H     0.09071   0.86094   0.19713   0.00000  Uiso   1.00
H125   H     0.06833   0.03496   0.55070   0.00000  Uiso   1.00
H126   H     0.90482   0.07063   0.27980   0.00000  Uiso   1.00
H127   H     0.17818   0.75361   0.02110   0.00000  Uiso   1.00
H128   H     0.13096   0.12055   0.76662   0.00000  Uiso   1.00
H129   H     0.78617   0.19576   0.19538   0.00000  Uiso   1.00
O130   O     0.26900   0.81793   0.86136   0.00000  Uiso   1.00
O131   O     0.20704   0.29935   0.83944   0.00000  Uiso   1.00
O132   O     0.75468   0.39804   0.09000   0.00000  Uiso   1.00
N133   N     0.23806   0.99951   0.94240   0.00000  Uiso   1.00
N134   N     0.19392   0.34256   0.63941   0.00000  Uiso   1.00
N135   N     0.87157   0.41290   0.10538   0.00000  Uiso   1.00
N136   N     0.18949   0.83974   0.01142   0.00000  Uiso   1.00
N137   N     0.14535   0.18279   0.70842   0.00000  Uiso   1.00
N138   N     0.82300   0.25313   0.17440   0.00000  Uiso   1.00
C139   C     0.89455   0.73430   0.72293   0.00000  Uiso   1.00
C140   C     0.86988   0.84671   0.66247   0.00000  Uiso   1.00
C141   C     0.82208   0.85222   0.57320   0.00000  Uiso   1.00
C142   C     0.80637   0.96353   0.52952   0.00000  Uiso   1.00
C143   C     0.76332   0.12255   0.42898   0.00000  Uiso   1.00
C144   C     0.88203   0.75217   0.85457   0.00000  Uiso   1.00
C145   C     0.84446   0.67818   0.92682   0.00000  Uiso   1.00
C146   C     0.83899   0.70992   0.04485   0.00000  Uiso   1.00
C147   C     0.81485   0.72211   0.24257   0.00000  Uiso   1.00
C148   C     0.97087   0.73279   0.70737   0.00000  Uiso   1.00
C149   C     0.00799   0.64250   0.65589   0.00000  Uiso   1.00
C150   C     0.07733   0.65790   0.65002   0.00000  Uiso   1.00
C151   C     0.19112   0.64001   0.61919   0.00000  Uiso   1.00
C152   C     0.95167   0.92219   0.80409   0.00000  Uiso   1.00
C153   C     0.90090   0.94876   0.70656   0.00000  Uiso   1.00
C154   C     0.88527   0.06010   0.66300   0.00000  Uiso   1.00
C155   C     0.83745   0.06577   0.57368   0.00000  Uiso   1.00
C156   C     0.91306   0.85422   0.89866   0.00000  Uiso   1.00
C157   C     0.90765   0.88606   0.01661   0.00000  Uiso   1.00
C158   C     0.87007   0.81215   0.08902   0.00000  Uiso   1.00
C159   C     0.00190   0.83485   0.75146   0.00000  Uiso   1.00
C160   C     0.07119   0.85038   0.74568   0.00000  Uiso   1.00
C161   C     0.10841   0.76014   0.69419   0.00000  Uiso   1.00
H162   H     0.87039   0.65485   0.68861   0.00000  Uiso   1.00
H163   H     0.79807   0.77322   0.53912   0.00000  Uiso   1.00
H164   H     0.82046   0.59921   0.89268   0.00000  Uiso   1.00
H165   H     0.98397   0.56354   0.62178   0.00000  Uiso   1.00
H166   H     0.73156   0.94947   0.39285   0.00000  Uiso   1.00
H167   H     0.77877   0.58254   0.13836   0.00000  Uiso   1.00
H168   H     0.12357   0.50731   0.56713   0.00000  Uiso   1.00
H169   H     0.97582   0.00165   0.83842   0.00000  Uiso   1.00
H170   H     0.90929   0.13906   0.69713   0.00000  Uiso   1.00
H171   H     0.93167   0.96504   0.05070   0.00000  Uiso   1.00
H172   H     0.09518   0.92937   0.77980   0.00000  Uiso   1.00
H173   H     0.82182   0.24639   0.52110   0.00000  Uiso   1.00
H174   H     0.86904   0.87945   0.26662   0.00000  Uiso   1.00
H175   H     0.21383   0.80424   0.69538   0.00000  Uiso   1.00
O176   O     0.73100   0.18207   0.36136   0.00000  Uiso   1.00
O177   O     0.79296   0.70065   0.33944   0.00000  Uiso   1.00
O178   O     0.24532   0.60196   0.59000   0.00000  Uiso   1.00
N179   N     0.76194   0.00049   0.44240   0.00000  Uiso   1.00
N180   N     0.80608   0.65744   0.13941   0.00000  Uiso   1.00
N181   N     0.12843   0.58710   0.60538   0.00000  Uiso   1.00
N182   N     0.81051   0.16026   0.51142   0.00000  Uiso   1.00
N183   N     0.85465   0.81721   0.20842   0.00000  Uiso   1.00
N184   N     0.17700   0.74687   0.67440   0.00000  Uiso   1.00
