data_job_06760
_audit_creation_date              2018-12-19
_audit_creation_method            'Materials Studio'
_symmetry_space_group_name_H-M    'P1'
_symmetry_Int_Tables_number       1
_symmetry_cell_setting            triclinic
loop_
_symmetry_equiv_pos_as_xyz
  x,y,z
_cell_length_a                    18.2352
_cell_length_b                    24.2929
_cell_length_c                    24.4356
_cell_angle_alpha                 118.8896
_cell_angle_beta                  71.5471
_cell_angle_gamma                 102.5180
loop_
_atom_site_label
_atom_site_type_symbol
_atom_site_fract_x
_atom_site_fract_y
_atom_site_fract_z
_atom_site_U_iso_or_equiv
_atom_site_adp_type
_atom_site_occupancy
C1     C     0.44694   0.38640   0.33774   0.00000  Uiso   1.00
C2     C     0.53255   0.38397   0.30228   0.00000  Uiso   1.00
C3     C     0.57188   0.32970   0.26281   0.00000  Uiso   1.00
C4     C     0.65007   0.33745   0.23477   0.00000  Uiso   1.00
C5     C     0.77731   0.32456   0.17804   0.00000  Uiso   1.00
C6     C     0.44413   0.42923   0.40887   0.00000  Uiso   1.00
C7     C     0.40912   0.41303   0.45902   0.00000  Uiso   1.00
C8     C     0.41288   0.45888   0.52071   0.00000  Uiso   1.00
C9     C     0.40281   0.51629   0.62948   0.00000  Uiso   1.00
C10    C     0.41137   0.42154   0.31606   0.00000  Uiso   1.00
C11    C     0.34879   0.39889   0.28819   0.00000  Uiso   1.00
C12    C     0.32495   0.43827   0.27176   0.00000  Uiso   1.00
C13    C     0.26401   0.48374   0.23642   0.00000  Uiso   1.00
C14    C     0.51585   0.49664   0.35813   0.00000  Uiso   1.00
C15    C     0.56997   0.44385   0.31335   0.00000  Uiso   1.00
C16    C     0.64812   0.45167   0.28536   0.00000  Uiso   1.00
C17    C     0.68757   0.39743   0.24586   0.00000  Uiso   1.00
C18    C     0.48156   0.48911   0.41995   0.00000  Uiso   1.00
C19    C     0.48536   0.53500   0.48158   0.00000  Uiso   1.00
C20    C     0.45038   0.51887   0.53181   0.00000  Uiso   1.00
C21    C     0.44879   0.48142   0.32713   0.00000  Uiso   1.00
C22    C     0.42504   0.52086   0.31075   0.00000  Uiso   1.00
C23    C     0.36245   0.49826   0.28286   0.00000  Uiso   1.00
H24    H     0.41780   0.33978   0.32913   0.00000  Uiso   1.00
H25    H     0.54290   0.28337   0.25425   0.00000  Uiso   1.00
H26    H     0.38016   0.36669   0.45044   0.00000  Uiso   1.00
H27    H     0.31985   0.35255   0.27963   0.00000  Uiso   1.00
H28    H     0.69811   0.24724   0.17615   0.00000  Uiso   1.00
H29    H     0.35494   0.42293   0.58981   0.00000  Uiso   1.00
H30    H     0.22775   0.39310   0.22964   0.00000  Uiso   1.00
H31    H     0.54499   0.54326   0.36676   0.00000  Uiso   1.00
H32    H     0.67707   0.49802   0.29394   0.00000  Uiso   1.00
H33    H     0.51433   0.58133   0.49013   0.00000  Uiso   1.00
H34    H     0.45401   0.56719   0.31932   0.00000  Uiso   1.00
H35    H     0.80701   0.42146   0.20836   0.00000  Uiso   1.00
H36    H     0.46383   0.59714   0.62203   0.00000  Uiso   1.00
H37    H     0.33665   0.56732   0.26185   0.00000  Uiso   1.00
O38    O     0.83716   0.30092   0.14370   0.00000  Uiso   1.00
O39    O     0.38692   0.53141   0.68641   0.00000  Uiso   1.00
O40    O     0.22006   0.49228   0.21386   0.00000  Uiso   1.00
N41    N     0.70561   0.29445   0.19371   0.00000  Uiso   1.00
N42    N     0.38477   0.45870   0.58046   0.00000  Uiso   1.00
N43    N     0.26585   0.43083   0.24374   0.00000  Uiso   1.00
N44    N     0.76421   0.38819   0.21105   0.00000  Uiso   1.00
N45    N     0.44337   0.55245   0.59780   0.00000  Uiso   1.00
N46    N     0.32445   0.52457   0.26108   0.00000  Uiso   1.00
C47    C     0.68263   0.23390   0.50272   0.00000  Uiso   1.00
C48    C     0.71724   0.28122   0.55914   0.00000  Uiso   1.00
C49    C     0.77835   0.32612   0.55698   0.00000  Uiso   1.00
C50    C     0.80149   0.36499   0.61378   0.00000  Uiso   1.00
C51    C     0.86082   0.43934   0.69273   0.00000  Uiso   1.00
C52    C     0.68792   0.16893   0.49576   0.00000  Uiso   1.00
C53    C     0.72436   0.11942   0.44030   0.00000  Uiso   1.00
C54    C     0.72281   0.06376   0.44375   0.00000  Uiso   1.00
C55    C     0.73657   0.96377   0.42429   0.00000  Uiso   1.00
C56    C     0.59645   0.24413   0.52500   0.00000  Uiso   1.00
C57    C     0.55598   0.25784   0.49413   0.00000  Uiso   1.00
C58    C     0.47741   0.26548   0.52219   0.00000  Uiso   1.00
C59    C     0.34915   0.28224   0.54813   0.00000  Uiso   1.00
C60    C     0.61505   0.22309   0.60743   0.00000  Uiso   1.00
C61    C     0.68053   0.27534   0.61601   0.00000  Uiso   1.00
C62    C     0.70358   0.31416   0.67283   0.00000  Uiso   1.00
C63    C     0.76471   0.35911   0.67076   0.00000  Uiso   1.00
C64    C     0.65121   0.16306   0.55263   0.00000  Uiso   1.00
C65    C     0.64959   0.10746   0.55616   0.00000  Uiso   1.00
C66    C     0.68604   0.05788   0.50073   0.00000  Uiso   1.00
C67    C     0.55974   0.23826   0.58188   0.00000  Uiso   1.00
C68    C     0.48121   0.24588   0.60999   0.00000  Uiso   1.00
C69    C     0.44063   0.25959   0.57917   0.00000  Uiso   1.00
H70    H     0.71121   0.23847   0.45843   0.00000  Uiso   1.00
H71    H     0.80674   0.33065   0.51295   0.00000  Uiso   1.00
H72    H     0.75276   0.12398   0.39630   0.00000  Uiso   1.00
H73    H     0.58440   0.26238   0.45012   0.00000  Uiso   1.00
H74    H     0.89649   0.43024   0.59847   0.00000  Uiso   1.00
H75    H     0.78264   0.99446   0.35249   0.00000  Uiso   1.00
H76    H     0.42762   0.28630   0.46598   0.00000  Uiso   1.00
H77    H     0.58648   0.21851   0.65171   0.00000  Uiso   1.00
H78    H     0.67516   0.30960   0.71684   0.00000  Uiso   1.00
H79    H     0.62118   0.10293   0.60018   0.00000  Uiso   1.00
H80    H     0.45282   0.24133   0.65400   0.00000  Uiso   1.00
H81    H     0.78969   0.41316   0.76395   0.00000  Uiso   1.00
H82    H     0.67584   0.97737   0.51797   0.00000  Uiso   1.00
H83    H     0.32083   0.26921   0.63146   0.00000  Uiso   1.00
O84    O     0.90370   0.48197   0.72056   0.00000  Uiso   1.00
O85    O     0.75432   0.91023   0.39784   0.00000  Uiso   1.00
O86    O     0.28855   0.29312   0.54674   0.00000  Uiso   1.00
N87    N     0.85917   0.41373   0.62848   0.00000  Uiso   1.00
N88    N     0.75274   0.00630   0.39851   0.00000  Uiso   1.00
N89    N     0.42083   0.27913   0.50460   0.00000  Uiso   1.00
N90    N     0.80171   0.40454   0.71753   0.00000  Uiso   1.00
N91    N     0.69527   0.99711   0.48755   0.00000  Uiso   1.00
N92    N     0.36336   0.26994   0.59365   0.00000  Uiso   1.00
C93    C     0.43736   0.40102   0.77920   0.00000  Uiso   1.00
C94    C     0.48270   0.36325   0.79061   0.00000  Uiso   1.00
C95    C     0.46244   0.30188   0.78277   0.00000  Uiso   1.00
C96    C     0.51155   0.27564   0.79566   0.00000  Uiso   1.00
C97    C     0.57175   0.21184   0.81038   0.00000  Uiso   1.00
C98    C     0.41981   0.46120   0.84219   0.00000  Uiso   1.00
C99    C     0.34667   0.48218   0.87770   0.00000  Uiso   1.00
C100   C     0.34284   0.53839   0.93400   0.00000  Uiso   1.00
C101   C     0.30541   0.62668   0.02876   0.00000  Uiso   1.00
C102   C     0.49402   0.42147   0.73004   0.00000  Uiso   1.00
C103   C     0.48327   0.40906   0.67127   0.00000  Uiso   1.00
C104   C     0.54192   0.43184   0.63316   0.00000  Uiso   1.00
C105   C     0.61970   0.45844   0.55380   0.00000  Uiso   1.00
C106   C     0.56060   0.46355   0.81604   0.00000  Uiso   1.00
C107   C     0.54964   0.39722   0.81062   0.00000  Uiso   1.00
C108   C     0.59879   0.37106   0.82353   0.00000  Uiso   1.00
C109   C     0.57861   0.30966   0.81571   0.00000  Uiso   1.00
C110   C     0.48674   0.49516   0.86220   0.00000  Uiso   1.00
C111   C     0.48302   0.55136   0.91846   0.00000  Uiso   1.00
C112   C     0.40990   0.57242   0.95405   0.00000  Uiso   1.00
C113   C     0.56096   0.45543   0.75005   0.00000  Uiso   1.00
C114   C     0.61962   0.47824   0.71203   0.00000  Uiso   1.00
C115   C     0.60897   0.46587   0.65321   0.00000  Uiso   1.00
H116   H     0.38524   0.37458   0.76362   0.00000  Uiso   1.00
H117   H     0.41063   0.27561   0.76729   0.00000  Uiso   1.00
H118   H     0.29488   0.45589   0.86220   0.00000  Uiso   1.00
H119   H     0.43147   0.38278   0.65580   0.00000  Uiso   1.00
H120   H     0.46828   0.18087   0.78020   0.00000  Uiso   1.00
H121   H     0.22423   0.56100   0.98032   0.00000  Uiso   1.00
H122   H     0.51223   0.40684   0.54509   0.00000  Uiso   1.00
H123   H     0.61271   0.48999   0.83162   0.00000  Uiso   1.00
H124   H     0.65059   0.39735   0.83901   0.00000  Uiso   1.00
H125   H     0.53484   0.57763   0.93393   0.00000  Uiso   1.00
H126   H     0.67142   0.50452   0.72753   0.00000  Uiso   1.00
H127   H     0.66304   0.27969   0.83842   0.00000  Uiso   1.00
H128   H     0.41898   0.65982   0.03853   0.00000  Uiso   1.00
H129   H     0.70699   0.50565   0.60330   0.00000  Uiso   1.00
O130   O     0.58645   0.16727   0.81297   0.00000  Uiso   1.00
O131   O     0.26626   0.66598   0.07550   0.00000  Uiso   1.00
O132   O     0.64412   0.46372   0.50449   0.00000  Uiso   1.00
N133   N     0.50893   0.21684   0.79288   0.00000  Uiso   1.00
N134   N     0.28075   0.57223   0.97998   0.00000  Uiso   1.00
N135   N     0.55000   0.42811   0.57308   0.00000  Uiso   1.00
N136   N     0.61372   0.27001   0.82420   0.00000  Uiso   1.00
N137   N     0.38554   0.62540   0.01130   0.00000  Uiso   1.00
N138   N     0.65480   0.48128   0.60441   0.00000  Uiso   1.00
C139   C     0.02590   0.76278   0.43883   0.00000  Uiso   1.00
C140   C     0.11052   0.77871   0.41095   0.00000  Uiso   1.00
C141   C     0.13936   0.83208   0.40156   0.00000  Uiso   1.00
C142   C     0.21854   0.83800   0.37547   0.00000  Uiso   1.00
C143   C     0.34257   0.86972   0.33466   0.00000  Uiso   1.00
C144   C     0.02490   0.75383   0.49669   0.00000  Uiso   1.00
C145   C     0.98174   0.78628   0.55937   0.00000  Uiso   1.00
C146   C     0.98884   0.77125   0.60545   0.00000  Uiso   1.00
C147   C     0.97989   0.76432   0.69774   0.00000  Uiso   1.00
C148   C     0.00348   0.69797   0.38855   0.00000  Uiso   1.00
C149   C     0.94230   0.68345   0.36032   0.00000  Uiso   1.00
C150   C     0.93136   0.62138   0.31537   0.00000  Uiso   1.00
C151   C     0.88916   0.52772   0.23975   0.00000  Uiso   1.00
C152   C     0.11522   0.67839   0.40920   0.00000  Uiso   1.00
C153   C     0.15904   0.73287   0.39486   0.00000  Uiso   1.00
C154   C     0.23819   0.73871   0.36877   0.00000  Uiso   1.00
C155   C     0.26715   0.79208   0.35934   0.00000  Uiso   1.00
C156   C     0.07342   0.70799   0.48059   0.00000  Uiso   1.00
C157   C     0.08057   0.69291   0.52659   0.00000  Uiso   1.00
C158   C     0.03745   0.72533   0.58933   0.00000  Uiso   1.00
C159   C     0.05200   0.65213   0.37245   0.00000  Uiso   1.00
C160   C     0.04114   0.59007   0.32754   0.00000  Uiso   1.00
C161   C     0.97996   0.57546   0.29924   0.00000  Uiso   1.00
H162   H     0.98812   0.79847   0.45136   0.00000  Uiso   1.00
H163   H     0.10180   0.86755   0.41402   0.00000  Uiso   1.00
H164   H     0.94420   0.82175   0.57181   0.00000  Uiso   1.00
H165   H     0.90477   0.71893   0.37279   0.00000  Uiso   1.00
H166   H     0.24923   0.92393   0.36555   0.00000  Uiso   1.00
H167   H     0.91690   0.82735   0.69825   0.00000  Uiso   1.00
H168   H     0.83376   0.61053   0.27858   0.00000  Uiso   1.00
H169   H     0.15300   0.64269   0.39667   0.00000  Uiso   1.00
H170   H     0.27573   0.70322   0.35633   0.00000  Uiso   1.00
H171   H     0.11812   0.65743   0.51412   0.00000  Uiso   1.00
H172   H     0.07870   0.55461   0.31509   0.00000  Uiso   1.00
H173   H     0.39040   0.79056   0.31873   0.00000  Uiso   1.00
H174   H     0.05806   0.69398   0.65143   0.00000  Uiso   1.00
H175   H     0.97492   0.47717   0.23175   0.00000  Uiso   1.00
O176   O     0.39758   0.89988   0.31661   0.00000  Uiso   1.00
O177   O     0.96156   0.77316   0.75309   0.00000  Uiso   1.00
O178   O     0.85248   0.48872   0.20249   0.00000  Uiso   1.00
N179   N     0.26561   0.88423   0.36006   0.00000  Uiso   1.00
N180   N     0.95491   0.79394   0.67111   0.00000  Uiso   1.00
N181   N     0.87717   0.59123   0.27876   0.00000  Uiso   1.00
N182   N     0.34157   0.81246   0.33486   0.00000  Uiso   1.00
N183   N     0.03087   0.72217   0.64591   0.00000  Uiso   1.00
N184   N     0.95313   0.51947   0.25357   0.00000  Uiso   1.00
C185   C     0.39869   0.02253   0.86748   0.00000  Uiso   1.00
C186   C     0.41087   0.99497   0.90805   0.00000  Uiso   1.00
C187   C     0.48162   0.98168   0.90719   0.00000  Uiso   1.00
C188   C     0.48053   0.95663   0.94791   0.00000  Uiso   1.00
C189   C     0.51000   0.91559   0.00482   0.00000  Uiso   1.00
C190   C     0.35684   0.08220   0.91511   0.00000  Uiso   1.00
C191   C     0.38215   0.14225   0.92019   0.00000  Uiso   1.00
C192   C     0.33558   0.19064   0.96685   0.00000  Uiso   1.00
C193   C     0.28113   0.28502   0.03469   0.00000  Uiso   1.00
C194   C     0.34083   0.97614   0.82988   0.00000  Uiso   1.00
C195   C     0.35267   0.94703   0.76330   0.00000  Uiso   1.00
C196   C     0.29260   0.90613   0.73819   0.00000  Uiso   1.00
C197   C     0.21330   0.83583   0.67371   0.00000  Uiso   1.00
C198   C     0.27096   0.00168   0.94131   0.00000  Uiso   1.00
C199   C     0.34149   0.98365   0.94815   0.00000  Uiso   1.00
C200   C     0.34029   0.95861   0.98887   0.00000  Uiso   1.00
C201   C     0.41102   0.94528   0.98808   0.00000  Uiso   1.00
C202   C     0.28746   0.07088   0.95521   0.00000  Uiso   1.00
C203   C     0.24083   0.11919   0.00187   0.00000  Uiso   1.00
C204   C     0.26607   0.17930   0.00702   0.00000  Uiso   1.00
C205   C     0.27145   0.96481   0.86998   0.00000  Uiso   1.00
C206   C     0.21135   0.92396   0.84498   0.00000  Uiso   1.00
C207   C     0.22310   0.89478   0.77837   0.00000  Uiso   1.00
H208   H     0.45270   0.03135   0.83627   0.00000  Uiso   1.00
H209   H     0.53530   0.99045   0.87616   0.00000  Uiso   1.00
H210   H     0.43584   0.15100   0.88915   0.00000  Uiso   1.00
H211   H     0.40637   0.95580   0.73228   0.00000  Uiso   1.00
H212   H     0.59627   0.94014   0.93809   0.00000  Uiso   1.00
H213   H     0.38656   0.27866   0.96546   0.00000  Uiso   1.00
H214   H     0.32440   0.86705   0.63468   0.00000  Uiso   1.00
H215   H     0.21694   0.99287   0.97253   0.00000  Uiso   1.00
H216   H     0.28659   0.94985   0.01990   0.00000  Uiso   1.00
H217   H     0.18714   0.11040   0.03289   0.00000  Uiso   1.00
H218   H     0.15767   0.91521   0.87602   0.00000  Uiso   1.00
H219   H     0.39442   0.90719   0.05476   0.00000  Uiso   1.00
H220   H     0.18470   0.24571   0.08213   0.00000  Uiso   1.00
H221   H     0.12254   0.83410   0.75134   0.00000  Uiso   1.00
O222   O     0.54542   0.89608   0.02514   0.00000  Uiso   1.00
O223   O     0.27028   0.34021   0.06104   0.00000  Uiso   1.00
O224   O     0.18873   0.80018   0.62706   0.00000  Uiso   1.00
N225   N     0.53920   0.93827   0.95904   0.00000  Uiso   1.00
N226   N     0.34314   0.25478   0.98464   0.00000  Uiso   1.00
N227   N     0.28502   0.86996   0.67538   0.00000  Uiso   1.00
N228   N     0.43059   0.92054   0.02181   0.00000  Uiso   1.00
N229   N     0.23452   0.23704   0.04741   0.00000  Uiso   1.00
N230   N     0.17640   0.85223   0.73815   0.00000  Uiso   1.00
C231   C     0.74064   0.80490   0.05000   0.00000  Uiso   1.00
C232   C     0.71331   0.82436   0.12222   0.00000  Uiso   1.00
C233   C     0.64301   0.84883   0.16209   0.00000  Uiso   1.00
C234   C     0.62886   0.86369   0.22680   0.00000  Uiso   1.00
C235   C     0.57816   0.89529   0.33530   0.00000  Uiso   1.00
C236   C     0.75892   0.73615   0.01787   0.00000  Uiso   1.00
C237   C     0.72699   0.68647   0.97001   0.00000  Uiso   1.00
C238   C     0.75125   0.62707   0.94688   0.00000  Uiso   1.00
C239   C     0.77141   0.52174   0.89335   0.00000  Uiso   1.00
C240   C     0.81813   0.84243   0.04005   0.00000  Uiso   1.00
C241   C     0.83598   0.88209   0.01082   0.00000  Uiso   1.00
C242   C     0.91010   0.91216   0.00635   0.00000  Uiso   1.00
C243   C     0.02218   0.97184   0.98725   0.00000  Uiso   1.00
C244   C     0.84051   0.78776   0.09400   0.00000  Uiso   1.00
C245   C     0.76756   0.81505   0.14611   0.00000  Uiso   1.00
C246   C     0.75351   0.82987   0.21078   0.00000  Uiso   1.00
C247   C     0.68321   0.85436   0.25074   0.00000  Uiso   1.00
C248   C     0.81317   0.72684   0.04177   0.00000  Uiso   1.00
C249   C     0.83749   0.66750   0.01870   0.00000  Uiso   1.00
C250   C     0.80560   0.61774   0.97082   0.00000  Uiso   1.00
C251   C     0.87238   0.83312   0.06395   0.00000  Uiso   1.00
C252   C     0.94648   0.86313   0.05951   0.00000  Uiso   1.00
C253   C     0.96445   0.90283   0.03029   0.00000  Uiso   1.00
H254   H     0.69840   0.81214   0.03139   0.00000  Uiso   1.00
H255   H     0.60104   0.85603   0.14358   0.00000  Uiso   1.00
H256   H     0.68501   0.69369   0.95152   0.00000  Uiso   1.00
H257   H     0.79399   0.88928   0.99233   0.00000  Uiso   1.00
H258   H     0.51701   0.90055   0.27850   0.00000  Uiso   1.00
H259   H     0.69409   0.55825   0.87353   0.00000  Uiso   1.00
H260   H     0.92389   0.97071   0.95958   0.00000  Uiso   1.00
H261   H     0.88275   0.78051   0.11261   0.00000  Uiso   1.00
H262   H     0.79551   0.82266   0.22926   0.00000  Uiso   1.00
H263   H     0.87947   0.66032   0.03720   0.00000  Uiso   1.00
H264   H     0.98845   0.85591   0.07801   0.00000  Uiso   1.00
H265   H     0.67484   0.87347   0.34804   0.00000  Uiso   1.00
H266   H     0.85192   0.53117   0.94307   0.00000  Uiso   1.00
H267   H     0.08172   0.94362   0.02912   0.00000  Uiso   1.00
O268   O     0.53520   0.91529   0.38854   0.00000  Uiso   1.00
O269   O     0.76753   0.46621   0.85722   0.00000  Uiso   1.00
O270   O     0.06901   0.00734   0.97012   0.00000  Uiso   1.00
N271   N     0.56614   0.88840   0.27886   0.00000  Uiso   1.00
N272   N     0.73168   0.56837   0.90024   0.00000  Uiso   1.00
N273   N     0.94653   0.95397   0.98068   0.00000  Uiso   1.00
N274   N     0.65106   0.87383   0.31628   0.00000  Uiso   1.00
N275   N     0.81661   0.55380   0.93766   0.00000  Uiso   1.00
N276   N     0.03146   0.93940   0.01810   0.00000  Uiso   1.00
C277   C     0.56309   0.76889   0.73065   0.00000  Uiso   1.00
C278   C     0.51250   0.72266   0.75524   0.00000  Uiso   1.00
C279   C     0.43393   0.72576   0.78537   0.00000  Uiso   1.00
C280   C     0.39808   0.67896   0.80429   0.00000  Uiso   1.00
C281   C     0.31323   0.61448   0.84408   0.00000  Uiso   1.00
C282   C     0.59919   0.72939   0.65929   0.00000  Uiso   1.00
C283   C     0.59351   0.73817   0.60875   0.00000  Uiso   1.00
C284   C     0.63066   0.69705   0.54689   0.00000  Uiso   1.00
C285   C     0.68044   0.64305   0.43772   0.00000  Uiso   1.00
C286   C     0.62971   0.79387   0.76373   0.00000  Uiso   1.00
C287   C     0.64972   0.85687   0.80099   0.00000  Uiso   1.00
C288   C     0.71258   0.87004   0.82705   0.00000  Uiso   1.00
C289   C     0.80975   0.91616   0.88004   0.00000  Uiso   1.00
C290   C     0.63915   0.68025   0.71066   0.00000  Uiso   1.00
C291   C     0.55381   0.67451   0.74437   0.00000  Uiso   1.00
C292   C     0.51808   0.62770   0.76325   0.00000  Uiso   1.00
C293   C     0.43947   0.63074   0.79341   0.00000  Uiso   1.00
C294   C     0.64050   0.68125   0.64842   0.00000  Uiso   1.00
C295   C     0.67766   0.64011   0.58662   0.00000  Uiso   1.00
C296   C     0.67204   0.64882   0.53600   0.00000  Uiso   1.00
C297   C     0.67102   0.74573   0.75287   0.00000  Uiso   1.00
C298   C     0.73387   0.75880   0.77887   0.00000  Uiso   1.00
C299   C     0.75396   0.82181   0.81616   0.00000  Uiso   1.00
H300   H     0.53093   0.80637   0.73911   0.00000  Uiso   1.00
H301   H     0.40197   0.76302   0.79376   0.00000  Uiso   1.00
H302   H     0.56155   0.77543   0.61717   0.00000  Uiso   1.00
H303   H     0.61774   0.89411   0.80938   0.00000  Uiso   1.00
H304   H     0.27722   0.69372   0.84955   0.00000  Uiso   1.00
H305   H     0.61370   0.71990   0.47719   0.00000  Uiso   1.00
H306   H     0.73220   0.97016   0.88251   0.00000  Uiso   1.00
H307   H     0.67132   0.64277   0.70220   0.00000  Uiso   1.00
H308   H     0.55006   0.59045   0.75484   0.00000  Uiso   1.00
H309   H     0.70963   0.60286   0.57824   0.00000  Uiso   1.00
H310   H     0.76582   0.72154   0.77045   0.00000  Uiso   1.00
H311   H     0.39741   0.55365   0.81796   0.00000  Uiso   1.00
H312   H     0.73390   0.57983   0.44559   0.00000  Uiso   1.00
H313   H     0.85239   0.83009   0.85091   0.00000  Uiso   1.00
O314   O     0.25501   0.59221   0.86903   0.00000  Uiso   1.00
O315   O     0.69648   0.62656   0.38051   0.00000  Uiso   1.00
O316   O     0.85194   0.95490   0.91228   0.00000  Uiso   1.00
N317   N     0.32215   0.66795   0.83491   0.00000  Uiso   1.00
N318   N     0.63673   0.69242   0.48677   0.00000  Uiso   1.00
N319   N     0.74753   0.92639   0.86569   0.00000  Uiso   1.00
N320   N     0.38682   0.59258   0.81790   0.00000  Uiso   1.00
N321   N     0.70140   0.61705   0.46977   0.00000  Uiso   1.00
N322   N     0.81220   0.85102   0.84869   0.00000  Uiso   1.00
C323   C     0.92564   0.95816   0.58332   0.00000  Uiso   1.00
C324   C     0.91425   0.92542   0.51504   0.00000  Uiso   1.00
C325   C     0.86487   0.87222   0.49077   0.00000  Uiso   1.00
C326   C     0.86273   0.84947   0.42707   0.00000  Uiso   1.00
C327   C     0.83808   0.79418   0.32683   0.00000  Uiso   1.00
C328   C     0.90805   0.02652   0.61108   0.00000  Uiso   1.00
C329   C     0.85346   0.05832   0.66757   0.00000  Uiso   1.00
C330   C     0.84612   0.12068   0.68472   0.00000  Uiso   1.00
C331   C     0.81187   0.22236   0.73361   0.00000  Uiso   1.00
C332   C     0.01220   0.95970   0.57591   0.00000  Uiso   1.00
C333   C     0.04518   0.93533   0.60283   0.00000  Uiso   1.00
C334   C     0.12551   0.94146   0.59039   0.00000  Uiso   1.00
C335   C     0.25297   0.93938   0.58467   0.00000  Uiso   1.00
C336   C     0.00967   0.01237   0.51335   0.00000  Uiso   1.00
C337   C     0.95989   0.95487   0.47703   0.00000  Uiso   1.00
C338   C     0.95783   0.93220   0.41335   0.00000  Uiso   1.00
C339   C     0.90845   0.87897   0.38899   0.00000  Uiso   1.00
C340   C     0.95369   0.05596   0.57308   0.00000  Uiso   1.00
C341   C     0.94642   0.11830   0.59015   0.00000  Uiso   1.00
C342   C     0.89184   0.15018   0.64665   0.00000  Uiso   1.00
C343   C     0.05784   0.98914   0.53790   0.00000  Uiso   1.00
C344   C     0.13814   0.99531   0.52542   0.00000  Uiso   1.00
C345   C     0.17123   0.97096   0.55232   0.00000  Uiso   1.00
H346   H     0.89011   0.93524   0.61291   0.00000  Uiso   1.00
H347   H     0.82956   0.84945   0.52020   0.00000  Uiso   1.00
H348   H     0.81816   0.03552   0.69697   0.00000  Uiso   1.00
H349   H     0.00984   0.91255   0.63224   0.00000  Uiso   1.00
H350   H     0.78253   0.76733   0.40065   0.00000  Uiso   1.00
H351   H     0.75851   0.15968   0.77339   0.00000  Uiso   1.00
H352   H     0.16271   0.90038   0.63691   0.00000  Uiso   1.00
H353   H     0.04520   0.03530   0.48377   0.00000  Uiso   1.00
H354   H     0.99315   0.95499   0.38396   0.00000  Uiso   1.00
H355   H     0.98175   0.14107   0.56073   0.00000  Uiso   1.00
H356   H     0.17343   0.01810   0.49600   0.00000  Uiso   1.00
H357   H     0.91530   0.85300   0.29007   0.00000  Uiso   1.00
H358   H     0.89129   0.24535   0.66282   0.00000  Uiso   1.00
H359   H     0.29549   0.98605   0.52633   0.00000  Uiso   1.00
O360   O     0.81186   0.75554   0.28204   0.00000  Uiso   1.00
O361   O     0.78037   0.27030   0.77107   0.00000  Uiso   1.00
O362   O     0.31066   0.93009   0.59201   0.00000  Uiso   1.00
N363   N     0.82093   0.79851   0.38832   0.00000  Uiso   1.00
N364   N     0.79847   0.16533   0.73681   0.00000  Uiso   1.00
N365   N     0.17636   0.92292   0.60922   0.00000  Uiso   1.00
N366   N     0.89238   0.84460   0.32882   0.00000  Uiso   1.00
N367   N     0.86992   0.21143   0.67731   0.00000  Uiso   1.00
N368   N     0.24781   0.96901   0.54972   0.00000  Uiso   1.00
C369   C     0.54653   0.66457   0.12117   0.00000  Uiso   1.00
C370   C     0.48991   0.70710   0.12870   0.00000  Uiso   1.00
C371   C     0.50608   0.74753   0.10051   0.00000  Uiso   1.00
C372   C     0.44645   0.78245   0.11331   0.00000  Uiso   1.00
C373   C     0.36965   0.84927   0.11896   0.00000  Uiso   1.00
C374   C     0.50772   0.59781   0.09540   0.00000  Uiso   1.00
C375   C     0.53887   0.54635   0.03922   0.00000  Uiso   1.00
C376   C     0.49424   0.48927   0.02400   0.00000  Uiso   1.00
C377   C     0.44512   0.38641   0.97798   0.00000  Uiso   1.00
C378   C     0.54967   0.68203   0.18934   0.00000  Uiso   1.00
C379   C     0.61611   0.70137   0.21213   0.00000  Uiso   1.00
C380   C     0.60680   0.71518   0.27599   0.00000  Uiso   1.00
C381   C     0.62282   0.74308   0.37581   0.00000  Uiso   1.00
C382   C     0.41187   0.65469   0.19405   0.00000  Uiso   1.00
C383   C     0.41677   0.70173   0.16829   0.00000  Uiso   1.00
C384   C     0.35710   0.73660   0.18114   0.00000  Uiso   1.00
C385   C     0.37318   0.77707   0.15297   0.00000  Uiso   1.00
C386   C     0.43458   0.59244   0.13499   0.00000  Uiso   1.00
C387   C     0.38990   0.53542   0.11985   0.00000  Uiso   1.00
C388   C     0.42097   0.48389   0.06366   0.00000  Uiso   1.00
C389   C     0.47654   0.67666   0.22892   0.00000  Uiso   1.00
C390   C     0.46713   0.69044   0.29276   0.00000  Uiso   1.00
C391   C     0.53353   0.70980   0.31565   0.00000  Uiso   1.00
H392   H     0.60346   0.66875   0.09035   0.00000  Uiso   1.00
H393   H     0.56269   0.75166   0.06987   0.00000  Uiso   1.00
H394   H     0.59547   0.55052   0.00860   0.00000  Uiso   1.00
H395   H     0.67269   0.70551   0.18148   0.00000  Uiso   1.00
H396   H     0.48521   0.84121   0.06461   0.00000  Uiso   1.00
H397   H     0.55436   0.41708   0.93542   0.00000  Uiso   1.00
H398   H     0.71720   0.74392   0.29998   0.00000  Uiso   1.00
H399   H     0.35493   0.65051   0.22487   0.00000  Uiso   1.00
H400   H     0.30051   0.73243   0.21178   0.00000  Uiso   1.00
H401   H     0.33330   0.53128   0.15050   0.00000  Uiso   1.00
H402   H     0.41052   0.68628   0.32338   0.00000  Uiso   1.00
H403   H     0.27242   0.82560   0.17978   0.00000  Uiso   1.00
H404   H     0.34157   0.40146   0.05059   0.00000  Uiso   1.00
H405   H     0.50441   0.72830   0.41515   0.00000  Uiso   1.00
O406   O     0.34749   0.88761   0.11114   0.00000  Uiso   1.00
O407   O     0.43823   0.33116   0.94165   0.00000  Uiso   1.00
O408   O     0.65186   0.75997   0.41994   0.00000  Uiso   1.00
N409   N     0.44260   0.82630   0.09352   0.00000  Uiso   1.00
N410   N     0.50725   0.42977   0.97273   0.00000  Uiso   1.00
N411   N     0.65949   0.73532   0.31356   0.00000  Uiso   1.00
N412   N     0.32810   0.81790   0.15550   0.00000  Uiso   1.00
N413   N     0.39275   0.42137   0.03471   0.00000  Uiso   1.00
N414   N     0.54499   0.72691   0.37553   0.00000  Uiso   1.00
C415   C     0.17216   0.51096   0.56481   0.00000  Uiso   1.00
C416   C     0.09112   0.53436   0.59207   0.00000  Uiso   1.00
C417   C     0.03080   0.50895   0.56160   0.00000  Uiso   1.00
C418   C     0.96112   0.53711   0.59455   0.00000  Uiso   1.00
C419   C     0.83667   0.56560   0.62756   0.00000  Uiso   1.00
C420   C     0.22825   0.56758   0.56499   0.00000  Uiso   1.00
C421   C     0.28322   0.57011   0.51175   0.00000  Uiso   1.00
C422   C     0.32897   0.62624   0.52192   0.00000  Uiso   1.00
C423   C     0.41745   0.70629   0.51289   0.00000  Uiso   1.00
C424   C     0.18582   0.49616   0.61461   0.00000  Uiso   1.00
C425   C     0.20514   0.43865   0.60308   0.00000  Uiso   1.00
C426   C     0.21519   0.43465   0.65501   0.00000  Uiso   1.00
C427   C     0.23779   0.40382   0.72302   0.00000  Uiso   1.00
C428   C     0.15569   0.60614   0.67754   0.00000  Uiso   1.00
C429   C     0.08218   0.58606   0.65330   0.00000  Uiso   1.00
C430   C     0.01257   0.61426   0.68632   0.00000  Uiso   1.00
C431   C     0.95215   0.58890   0.65590   0.00000  Uiso   1.00
C432   C     0.21930   0.61928   0.62622   0.00000  Uiso   1.00
C433   C     0.26499   0.67542   0.63647   0.00000  Uiso   1.00
C434   C     0.32001   0.67803   0.58326   0.00000  Uiso   1.00
C435   C     0.17687   0.54786   0.67584   0.00000  Uiso   1.00
C436   C     0.18691   0.54395   0.72780   0.00000  Uiso   1.00
C437   C     0.20623   0.48644   0.71635   0.00000  Uiso   1.00
H438   H     0.17913   0.47071   0.51714   0.00000  Uiso   1.00
H439   H     0.03774   0.46895   0.51421   0.00000  Uiso   1.00
H440   H     0.29013   0.53009   0.46437   0.00000  Uiso   1.00
H441   H     0.21205   0.39865   0.55569   0.00000  Uiso   1.00
H442   H     0.87706   0.48980   0.53795   0.00000  Uiso   1.00
H443   H     0.40924   0.61873   0.43288   0.00000  Uiso   1.00
H444   H     0.24461   0.34155   0.62543   0.00000  Uiso   1.00
H445   H     0.14873   0.64639   0.72521   0.00000  Uiso   1.00
H446   H     0.00567   0.65427   0.73370   0.00000  Uiso   1.00
H447   H     0.25806   0.71541   0.68386   0.00000  Uiso   1.00
H448   H     0.17998   0.58397   0.77518   0.00000  Uiso   1.00
H449   H     0.85103   0.64022   0.71610   0.00000  Uiso   1.00
H450   H     0.38322   0.76914   0.61103   0.00000  Uiso   1.00
H451   H     0.21858   0.49197   0.80358   0.00000  Uiso   1.00
O452   O     0.77049   0.56703   0.62885   0.00000  Uiso   1.00
O453   O     0.46871   0.73617   0.49100   0.00000  Uiso   1.00
O454   O     0.25271   0.37253   0.74362   0.00000  Uiso   1.00
N455   N     0.89056   0.52411   0.57872   0.00000  Uiso   1.00
N456   N     0.38811   0.64465   0.48048   0.00000  Uiso   1.00
N457   N     0.23422   0.38552   0.66049   0.00000  Uiso   1.00
N458   N     0.87655   0.60505   0.67458   0.00000  Uiso   1.00
N459   N     0.37411   0.72559   0.57634   0.00000  Uiso   1.00
N460   N     0.22021   0.46646   0.75635   0.00000  Uiso   1.00
C461   C     0.58361   0.19432   0.29850   0.00000  Uiso   1.00
C462   C     0.61608   0.15358   0.22673   0.00000  Uiso   1.00
C463   C     0.59538   0.15348   0.17670   0.00000  Uiso   1.00
C464   C     0.63170   0.11278   0.11435   0.00000  Uiso   1.00
C465   C     0.67371   0.05546   0.00470   0.00000  Uiso   1.00
C466   C     0.55080   0.14878   0.32826   0.00000  Uiso   1.00
C467   C     0.47521   0.14465   0.36360   0.00000  Uiso   1.00
C468   C     0.45659   0.09991   0.38672   0.00000  Uiso   1.00
C469   C     0.39727   0.03517   0.43474   0.00000  Uiso   1.00
C470   C     0.65339   0.23116   0.32559   0.00000  Uiso   1.00
C471   C     0.66405   0.29631   0.35871   0.00000  Uiso   1.00
C472   C     0.73180   0.32092   0.37959   0.00000  Uiso   1.00
C473   C     0.83176   0.38409   0.42346   0.00000  Uiso   1.00
C474   C     0.68495   0.12219   0.27671   0.00000  Uiso   1.00
C475   C     0.67112   0.11440   0.21489   0.00000  Uiso   1.00
C476   C     0.70749   0.07368   0.15259   0.00000  Uiso   1.00
C477   C     0.68684   0.07353   0.10249   0.00000  Uiso   1.00
C478   C     0.60584   0.10960   0.31642   0.00000  Uiso   1.00
C479   C     0.58733   0.06485   0.33949   0.00000  Uiso   1.00
C480   C     0.51173   0.06066   0.37486   0.00000  Uiso   1.00
C481   C     0.70844   0.19198   0.31375   0.00000  Uiso   1.00
C482   C     0.77617   0.21650   0.33459   0.00000  Uiso   1.00
C483   C     0.78694   0.28167   0.36773   0.00000  Uiso   1.00
H484   H     0.54076   0.22482   0.30772   0.00000  Uiso   1.00
H485   H     0.55277   0.18381   0.18589   0.00000  Uiso   1.00
H486   H     0.43263   0.17498   0.37276   0.00000  Uiso   1.00
H487   H     0.62145   0.32661   0.36786   0.00000  Uiso   1.00
H488   H     0.59034   0.12105   0.04559   0.00000  Uiso   1.00
H489   H     0.33703   0.10245   0.43965   0.00000  Uiso   1.00
H490   H     0.73518   0.42219   0.42931   0.00000  Uiso   1.00
H491   H     0.72780   0.09168   0.26750   0.00000  Uiso   1.00
H492   H     0.75008   0.04337   0.14345   0.00000  Uiso   1.00
H493   H     0.62994   0.03454   0.33033   0.00000  Uiso   1.00
H494   H     0.81875   0.18617   0.32542   0.00000  Uiso   1.00
H495   H     0.75048   0.00706   0.01115   0.00000  Uiso   1.00
H496   H     0.49717   0.98847   0.40521   0.00000  Uiso   1.00
H497   H     0.89532   0.30820   0.39486   0.00000  Uiso   1.00
O498   O     0.68167   0.03466   0.94749   0.00000  Uiso   1.00
O499   O     0.34935   0.01027   0.46449   0.00000  Uiso   1.00
O500   O     0.87170   0.42976   0.45092   0.00000  Uiso   1.00
N501   N     0.62499   0.10086   0.05451   0.00000  Uiso   1.00
N502   N     0.38815   0.08347   0.42292   0.00000  Uiso   1.00
N503   N     0.76037   0.38240   0.41327   0.00000  Uiso   1.00
N504   N     0.71116   0.03952   0.03597   0.00000  Uiso   1.00
N505   N     0.47432   0.02213   0.40438   0.00000  Uiso   1.00
N506   N     0.84655   0.32106   0.39473   0.00000  Uiso   1.00
C507   C     0.07346   0.48605   0.98452   0.00000  Uiso   1.00
C508   C     0.03004   0.45229   0.93138   0.00000  Uiso   1.00
C509   C     0.06289   0.43363   0.86605   0.00000  Uiso   1.00
C510   C     0.01333   0.40339   0.82520   0.00000  Uiso   1.00
C511   C     0.95800   0.35270   0.73910   0.00000  Uiso   1.00
C512   C     0.03364   0.54662   0.03263   0.00000  Uiso   1.00
C513   C     0.06952   0.60726   0.05243   0.00000  Uiso   1.00
C514   C     0.02300   0.65643   0.09680   0.00000  Uiso   1.00
C515   C     0.97327   0.75217   0.16792   0.00000  Uiso   1.00
C516   C     0.05636   0.44520   0.01943   0.00000  Uiso   1.00
C517   C     0.11133   0.42058   0.02814   0.00000  Uiso   1.00
C518   C     0.08393   0.38438   0.06142   0.00000  Uiso   1.00
C519   C     0.06947   0.32266   0.11205   0.00000  Uiso   1.00
C520   C     0.92704   0.46555   0.02814   0.00000  Uiso   1.00
C521   C     0.95051   0.44116   0.95508   0.00000  Uiso   1.00
C522   C     0.90089   0.41094   0.91431   0.00000  Uiso   1.00
C523   C     0.93366   0.39223   0.84893   0.00000  Uiso   1.00
C524   C     0.95412   0.53548   0.05632   0.00000  Uiso   1.00
C525   C     0.90753   0.58457   0.10068   0.00000  Uiso   1.00
C526   C     0.94333   0.64527   0.12054   0.00000  Uiso   1.00
C527   C     0.97683   0.43406   0.04312   0.00000  Uiso   1.00
C528   C     0.94933   0.39790   0.07640   0.00000  Uiso   1.00
C529   C     0.00426   0.37322   0.08516   0.00000  Uiso   1.00
H530   H     0.13537   0.49473   0.96607   0.00000  Uiso   1.00
H531   H     0.12443   0.44226   0.84774   0.00000  Uiso   1.00
H532   H     0.13107   0.61586   0.03409   0.00000  Uiso   1.00
H533   H     0.17287   0.42921   0.00980   0.00000  Uiso   1.00
H534   H     0.07723   0.37920   0.72699   0.00000  Uiso   1.00
H535   H     0.09122   0.74524   0.11993   0.00000  Uiso   1.00
H536   H     0.17936   0.35166   0.06873   0.00000  Uiso   1.00
H537   H     0.86513   0.45688   0.04658   0.00000  Uiso   1.00
H538   H     0.83935   0.40233   0.93266   0.00000  Uiso   1.00
H539   H     0.84599   0.57594   0.11901   0.00000  Uiso   1.00
H540   H     0.88779   0.38929   0.09473   0.00000  Uiso   1.00
H541   H     0.84585   0.34680   0.79592   0.00000  Uiso   1.00
H542   H     0.85984   0.71284   0.18886   0.00000  Uiso   1.00
H543   H     0.94798   0.31926   0.13766   0.00000  Uiso   1.00
O544   O     0.94945   0.32782   0.68506   0.00000  Uiso   1.00
O545   O     0.96782   0.80805   0.20060   0.00000  Uiso   1.00
O546   O     0.08346   0.29168   0.13342   0.00000  Uiso   1.00
N547   N     0.02631   0.37905   0.75885   0.00000  Uiso   1.00
N548   N     0.03939   0.72128   0.12622   0.00000  Uiso   1.00
N549   N     0.12180   0.35333   0.07836   0.00000  Uiso   1.00
N550   N     0.90181   0.36161   0.79593   0.00000  Uiso   1.00
N551   N     0.91489   0.70384   0.16331   0.00000  Uiso   1.00
N552   N     0.99730   0.33589   0.11545   0.00000  Uiso   1.00
