data_job_02989
_audit_creation_date              2018-12-19
_audit_creation_method            'Materials Studio'
_symmetry_space_group_name_H-M    'P1'
_symmetry_Int_Tables_number       1
_symmetry_cell_setting            triclinic
loop_
_symmetry_equiv_pos_as_xyz
  x,y,z
_cell_length_a                    31.6498
_cell_length_b                    12.4573
_cell_length_c                    26.1225
_cell_angle_alpha                 90.0000
_cell_angle_beta                  137.8979
_cell_angle_gamma                 90.0000
loop_
_atom_site_label
_atom_site_type_symbol
_atom_site_fract_x
_atom_site_fract_y
_atom_site_fract_z
_atom_site_U_iso_or_equiv
_atom_site_adp_type
_atom_site_occupancy
C1     C     0.12302   0.93342   0.51137   0.00000  Uiso   1.00
C2     C     0.14945   0.04080   0.51710   0.00000  Uiso   1.00
C3     C     0.19236   0.10388   0.58217   0.00000  Uiso   1.00
C4     C     0.21072   0.19939   0.57570   0.00000  Uiso   1.00
C5     C     0.25534   0.36140   0.59509   0.00000  Uiso   1.00
C6     C     0.05153   0.94593   0.44710   0.00000  Uiso   1.00
C7     C     0.01212   0.92922   0.45333   0.00000  Uiso   1.00
C8     C     0.94806   0.94485   0.38792   0.00000  Uiso   1.00
C9     C     0.84066   0.95949   0.29864   0.00000  Uiso   1.00
C10    C     0.13812   0.85291   0.48273   0.00000  Uiso   1.00
C11    C     0.17150   0.75798   0.51889   0.00000  Uiso   1.00
C12    C     0.18033   0.69528   0.48346   0.00000  Uiso   1.00
C13    C     0.20737   0.56549   0.44948   0.00000  Uiso   1.00
C14    C     0.07931   0.99085   0.38415   0.00000  Uiso   1.00
C15    C     0.12570   0.07199   0.44800   0.00000  Uiso   1.00
C16    C     0.14400   0.16742   0.44142   0.00000  Uiso   1.00
C17    C     0.18694   0.23064   0.50647   0.00000  Uiso   1.00
C18    C     0.02779   0.97712   0.37801   0.00000  Uiso   1.00
C19    C     0.96376   0.99276   0.31258   0.00000  Uiso   1.00
C20    C     0.92427   0.97610   0.31870   0.00000  Uiso   1.00
C21    C     0.11438   0.88410   0.41363   0.00000  Uiso   1.00
C22    C     0.12315   0.82153   0.37813   0.00000  Uiso   1.00
C23    C     0.15654   0.72653   0.41423   0.00000  Uiso   1.00
H24    H     0.14150   0.90914   0.56517   0.00000  Uiso   1.00
H25    H     0.21072   0.07972   0.63564   0.00000  Uiso   1.00
H26    H     0.03051   0.90508   0.50681   0.00000  Uiso   1.00
H27    H     0.18987   0.73387   0.57236   0.00000  Uiso   1.00
H28    H     0.27697   0.28262   0.68329   0.00000  Uiso   1.00
H29    H     0.89699   0.91434   0.41164   0.00000  Uiso   1.00
H30    H     0.23303   0.55330   0.54986   0.00000  Uiso   1.00
H31    H     0.06082   0.01514   0.33035   0.00000  Uiso   1.00
H32    H     0.12562   0.19154   0.38794   0.00000  Uiso   1.00
H33    H     0.94541   0.01690   0.25911   0.00000  Uiso   1.00
H34    H     0.10477   0.84569   0.32466   0.00000  Uiso   1.00
H35    H     0.20790   0.37338   0.48224   0.00000  Uiso   1.00
H36    H     0.82792   0.00509   0.21059   0.00000  Uiso   1.00
H37    H     0.16396   0.64406   0.34882   0.00000  Uiso   1.00
O38    O     0.28650   0.44215   0.62488   0.00000  Uiso   1.00
O39    O     0.78798   0.95896   0.26848   0.00000  Uiso   1.00
O40    O     0.22886   0.48529   0.44983   0.00000  Uiso   1.00
N41    N     0.25184   0.27976   0.62807   0.00000  Uiso   1.00
N42    N     0.89658   0.93546   0.37410   0.00000  Uiso   1.00
N43    N     0.21073   0.59790   0.50332   0.00000  Uiso   1.00
N44    N     0.21467   0.32860   0.51989   0.00000  Uiso   1.00
N45    N     0.85941   0.98429   0.26592   0.00000  Uiso   1.00
N46    N     0.17356   0.64674   0.39514   0.00000  Uiso   1.00
C47    C     0.62302   0.43342   0.51137   0.00000  Uiso   1.00
C48    C     0.64945   0.54080   0.51710   0.00000  Uiso   1.00
C49    C     0.69236   0.60388   0.58217   0.00000  Uiso   1.00
C50    C     0.71072   0.69939   0.57570   0.00000  Uiso   1.00
C51    C     0.75534   0.86140   0.59509   0.00000  Uiso   1.00
C52    C     0.55153   0.44593   0.44710   0.00000  Uiso   1.00
C53    C     0.51212   0.42922   0.45333   0.00000  Uiso   1.00
C54    C     0.44806   0.44485   0.38792   0.00000  Uiso   1.00
C55    C     0.34066   0.45949   0.29864   0.00000  Uiso   1.00
C56    C     0.63812   0.35291   0.48273   0.00000  Uiso   1.00
C57    C     0.67150   0.25798   0.51889   0.00000  Uiso   1.00
C58    C     0.68033   0.19528   0.48346   0.00000  Uiso   1.00
C59    C     0.70737   0.06549   0.44948   0.00000  Uiso   1.00
C60    C     0.57931   0.49085   0.38415   0.00000  Uiso   1.00
C61    C     0.62570   0.57199   0.44800   0.00000  Uiso   1.00
C62    C     0.64400   0.66742   0.44142   0.00000  Uiso   1.00
C63    C     0.68694   0.73064   0.50647   0.00000  Uiso   1.00
C64    C     0.52779   0.47712   0.37801   0.00000  Uiso   1.00
C65    C     0.46376   0.49276   0.31258   0.00000  Uiso   1.00
C66    C     0.42427   0.47610   0.31870   0.00000  Uiso   1.00
C67    C     0.61438   0.38410   0.41363   0.00000  Uiso   1.00
C68    C     0.62315   0.32153   0.37813   0.00000  Uiso   1.00
C69    C     0.65654   0.22653   0.41423   0.00000  Uiso   1.00
H70    H     0.64150   0.40914   0.56517   0.00000  Uiso   1.00
H71    H     0.71072   0.57972   0.63564   0.00000  Uiso   1.00
H72    H     0.53051   0.40508   0.50681   0.00000  Uiso   1.00
H73    H     0.68987   0.23387   0.57236   0.00000  Uiso   1.00
H74    H     0.77697   0.78262   0.68329   0.00000  Uiso   1.00
H75    H     0.39699   0.41434   0.41164   0.00000  Uiso   1.00
H76    H     0.73303   0.05330   0.54986   0.00000  Uiso   1.00
H77    H     0.56082   0.51514   0.33035   0.00000  Uiso   1.00
H78    H     0.62562   0.69154   0.38794   0.00000  Uiso   1.00
H79    H     0.44541   0.51690   0.25911   0.00000  Uiso   1.00
H80    H     0.60477   0.34569   0.32466   0.00000  Uiso   1.00
H81    H     0.70790   0.87338   0.48224   0.00000  Uiso   1.00
H82    H     0.32792   0.50509   0.21059   0.00000  Uiso   1.00
H83    H     0.66396   0.14406   0.34882   0.00000  Uiso   1.00
O84    O     0.78650   0.94215   0.62488   0.00000  Uiso   1.00
O85    O     0.28798   0.45896   0.26848   0.00000  Uiso   1.00
O86    O     0.72886   0.98529   0.44983   0.00000  Uiso   1.00
N87    N     0.75184   0.77976   0.62807   0.00000  Uiso   1.00
N88    N     0.39658   0.43546   0.37410   0.00000  Uiso   1.00
N89    N     0.71073   0.09790   0.50332   0.00000  Uiso   1.00
N90    N     0.71467   0.82860   0.51989   0.00000  Uiso   1.00
N91    N     0.35941   0.48429   0.26592   0.00000  Uiso   1.00
N92    N     0.67356   0.14674   0.39514   0.00000  Uiso   1.00
C93    C     0.87698   0.93342   0.98863   0.00000  Uiso   1.00
C94    C     0.85055   0.04080   0.98290   0.00000  Uiso   1.00
C95    C     0.80764   0.10388   0.91783   0.00000  Uiso   1.00
C96    C     0.78928   0.19939   0.92430   0.00000  Uiso   1.00
C97    C     0.74466   0.36140   0.90491   0.00000  Uiso   1.00
C98    C     0.94847   0.94593   0.05290   0.00000  Uiso   1.00
C99    C     0.98788   0.92922   0.04667   0.00000  Uiso   1.00
C100   C     0.05194   0.94485   0.11208   0.00000  Uiso   1.00
C101   C     0.15934   0.95949   0.20136   0.00000  Uiso   1.00
C102   C     0.86188   0.85291   0.01727   0.00000  Uiso   1.00
C103   C     0.82850   0.75798   0.98111   0.00000  Uiso   1.00
C104   C     0.81967   0.69528   0.01654   0.00000  Uiso   1.00
C105   C     0.79263   0.56549   0.05052   0.00000  Uiso   1.00
C106   C     0.92069   0.99085   0.11585   0.00000  Uiso   1.00
C107   C     0.87430   0.07199   0.05200   0.00000  Uiso   1.00
C108   C     0.85600   0.16742   0.05858   0.00000  Uiso   1.00
C109   C     0.81306   0.23064   0.99353   0.00000  Uiso   1.00
C110   C     0.97221   0.97712   0.12199   0.00000  Uiso   1.00
C111   C     0.03624   0.99276   0.18742   0.00000  Uiso   1.00
C112   C     0.07573   0.97610   0.18130   0.00000  Uiso   1.00
C113   C     0.88562   0.88410   0.08637   0.00000  Uiso   1.00
C114   C     0.87685   0.82153   0.12187   0.00000  Uiso   1.00
C115   C     0.84346   0.72653   0.08577   0.00000  Uiso   1.00
H116   H     0.85850   0.90914   0.93483   0.00000  Uiso   1.00
H117   H     0.78928   0.07972   0.86436   0.00000  Uiso   1.00
H118   H     0.96949   0.90508   0.99319   0.00000  Uiso   1.00
H119   H     0.81013   0.73387   0.92764   0.00000  Uiso   1.00
H120   H     0.72303   0.28262   0.81671   0.00000  Uiso   1.00
H121   H     0.10301   0.91434   0.08836   0.00000  Uiso   1.00
H122   H     0.76697   0.55330   0.95014   0.00000  Uiso   1.00
H123   H     0.93918   0.01514   0.16965   0.00000  Uiso   1.00
H124   H     0.87438   0.19154   0.11206   0.00000  Uiso   1.00
H125   H     0.05459   0.01690   0.24089   0.00000  Uiso   1.00
H126   H     0.89523   0.84569   0.17534   0.00000  Uiso   1.00
H127   H     0.79210   0.37338   0.01776   0.00000  Uiso   1.00
H128   H     0.17208   0.00509   0.28941   0.00000  Uiso   1.00
H129   H     0.83604   0.64406   0.15118   0.00000  Uiso   1.00
O130   O     0.71350   0.44215   0.87512   0.00000  Uiso   1.00
O131   O     0.21202   0.95896   0.23152   0.00000  Uiso   1.00
O132   O     0.77114   0.48529   0.05017   0.00000  Uiso   1.00
N133   N     0.74816   0.27976   0.87193   0.00000  Uiso   1.00
N134   N     0.10342   0.93546   0.12590   0.00000  Uiso   1.00
N135   N     0.78927   0.59790   0.99668   0.00000  Uiso   1.00
N136   N     0.78533   0.32860   0.98011   0.00000  Uiso   1.00
N137   N     0.14059   0.98429   0.23408   0.00000  Uiso   1.00
N138   N     0.82644   0.64674   0.10486   0.00000  Uiso   1.00
C139   C     0.37698   0.43342   0.98863   0.00000  Uiso   1.00
C140   C     0.35055   0.54080   0.98290   0.00000  Uiso   1.00
C141   C     0.30764   0.60388   0.91783   0.00000  Uiso   1.00
C142   C     0.28928   0.69939   0.92430   0.00000  Uiso   1.00
C143   C     0.24466   0.86140   0.90491   0.00000  Uiso   1.00
C144   C     0.44847   0.44593   0.05290   0.00000  Uiso   1.00
C145   C     0.48788   0.42922   0.04667   0.00000  Uiso   1.00
C146   C     0.55194   0.44485   0.11208   0.00000  Uiso   1.00
C147   C     0.65934   0.45949   0.20136   0.00000  Uiso   1.00
C148   C     0.36188   0.35291   0.01727   0.00000  Uiso   1.00
C149   C     0.32850   0.25798   0.98111   0.00000  Uiso   1.00
C150   C     0.31967   0.19528   0.01654   0.00000  Uiso   1.00
C151   C     0.29263   0.06549   0.05052   0.00000  Uiso   1.00
C152   C     0.42069   0.49085   0.11585   0.00000  Uiso   1.00
C153   C     0.37430   0.57199   0.05200   0.00000  Uiso   1.00
C154   C     0.35600   0.66742   0.05858   0.00000  Uiso   1.00
C155   C     0.31306   0.73064   0.99353   0.00000  Uiso   1.00
C156   C     0.47221   0.47712   0.12199   0.00000  Uiso   1.00
C157   C     0.53624   0.49276   0.18742   0.00000  Uiso   1.00
C158   C     0.57573   0.47610   0.18130   0.00000  Uiso   1.00
C159   C     0.38562   0.38410   0.08637   0.00000  Uiso   1.00
C160   C     0.37685   0.32153   0.12187   0.00000  Uiso   1.00
C161   C     0.34346   0.22653   0.08577   0.00000  Uiso   1.00
H162   H     0.35850   0.40914   0.93483   0.00000  Uiso   1.00
H163   H     0.28928   0.57972   0.86436   0.00000  Uiso   1.00
H164   H     0.46949   0.40508   0.99319   0.00000  Uiso   1.00
H165   H     0.31013   0.23387   0.92764   0.00000  Uiso   1.00
H166   H     0.22303   0.78262   0.81671   0.00000  Uiso   1.00
H167   H     0.60301   0.41434   0.08836   0.00000  Uiso   1.00
H168   H     0.26697   0.05330   0.95014   0.00000  Uiso   1.00
H169   H     0.43918   0.51514   0.16965   0.00000  Uiso   1.00
H170   H     0.37438   0.69154   0.11206   0.00000  Uiso   1.00
H171   H     0.55459   0.51690   0.24089   0.00000  Uiso   1.00
H172   H     0.39523   0.34569   0.17534   0.00000  Uiso   1.00
H173   H     0.29210   0.87338   0.01776   0.00000  Uiso   1.00
H174   H     0.67208   0.50509   0.28941   0.00000  Uiso   1.00
H175   H     0.33604   0.14406   0.15118   0.00000  Uiso   1.00
O176   O     0.21350   0.94215   0.87512   0.00000  Uiso   1.00
O177   O     0.71202   0.45896   0.23152   0.00000  Uiso   1.00
O178   O     0.27114   0.98529   0.05017   0.00000  Uiso   1.00
N179   N     0.24816   0.77976   0.87193   0.00000  Uiso   1.00
N180   N     0.60342   0.43546   0.12590   0.00000  Uiso   1.00
N181   N     0.28927   0.09790   0.99668   0.00000  Uiso   1.00
N182   N     0.28533   0.82860   0.98011   0.00000  Uiso   1.00
N183   N     0.64059   0.48429   0.23408   0.00000  Uiso   1.00
N184   N     0.32644   0.14674   0.10486   0.00000  Uiso   1.00
C185   C     0.87698   0.06658   0.48863   0.00000  Uiso   1.00
C186   C     0.85055   0.95920   0.48290   0.00000  Uiso   1.00
C187   C     0.80764   0.89612   0.41783   0.00000  Uiso   1.00
C188   C     0.78928   0.80061   0.42430   0.00000  Uiso   1.00
C189   C     0.74466   0.63860   0.40491   0.00000  Uiso   1.00
C190   C     0.94847   0.05407   0.55290   0.00000  Uiso   1.00
C191   C     0.98788   0.07078   0.54667   0.00000  Uiso   1.00
C192   C     0.05194   0.05515   0.61208   0.00000  Uiso   1.00
C193   C     0.15934   0.04051   0.70136   0.00000  Uiso   1.00
C194   C     0.86188   0.14709   0.51727   0.00000  Uiso   1.00
C195   C     0.82850   0.24202   0.48111   0.00000  Uiso   1.00
C196   C     0.81967   0.30472   0.51654   0.00000  Uiso   1.00
C197   C     0.79263   0.43451   0.55052   0.00000  Uiso   1.00
C198   C     0.92069   0.00915   0.61585   0.00000  Uiso   1.00
C199   C     0.87430   0.92801   0.55200   0.00000  Uiso   1.00
C200   C     0.85600   0.83258   0.55858   0.00000  Uiso   1.00
C201   C     0.81306   0.76936   0.49353   0.00000  Uiso   1.00
C202   C     0.97221   0.02288   0.62199   0.00000  Uiso   1.00
C203   C     0.03624   0.00724   0.68742   0.00000  Uiso   1.00
C204   C     0.07573   0.02390   0.68130   0.00000  Uiso   1.00
C205   C     0.88562   0.11590   0.58637   0.00000  Uiso   1.00
C206   C     0.87685   0.17847   0.62187   0.00000  Uiso   1.00
C207   C     0.84346   0.27347   0.58577   0.00000  Uiso   1.00
H208   H     0.85850   0.09086   0.43483   0.00000  Uiso   1.00
H209   H     0.78928   0.92028   0.36436   0.00000  Uiso   1.00
H210   H     0.96949   0.09492   0.49319   0.00000  Uiso   1.00
H211   H     0.81013   0.26613   0.42764   0.00000  Uiso   1.00
H212   H     0.72303   0.71738   0.31671   0.00000  Uiso   1.00
H213   H     0.10301   0.08566   0.58836   0.00000  Uiso   1.00
H214   H     0.76697   0.44670   0.45014   0.00000  Uiso   1.00
H215   H     0.93918   0.98486   0.66965   0.00000  Uiso   1.00
H216   H     0.87438   0.80846   0.61206   0.00000  Uiso   1.00
H217   H     0.05459   0.98310   0.74089   0.00000  Uiso   1.00
H218   H     0.89523   0.15431   0.67534   0.00000  Uiso   1.00
H219   H     0.79210   0.62662   0.51776   0.00000  Uiso   1.00
H220   H     0.17208   0.99491   0.78941   0.00000  Uiso   1.00
H221   H     0.83604   0.35594   0.65118   0.00000  Uiso   1.00
O222   O     0.71350   0.55785   0.37512   0.00000  Uiso   1.00
O223   O     0.21202   0.04104   0.73152   0.00000  Uiso   1.00
O224   O     0.77114   0.51471   0.55017   0.00000  Uiso   1.00
N225   N     0.74816   0.72024   0.37193   0.00000  Uiso   1.00
N226   N     0.10342   0.06454   0.62590   0.00000  Uiso   1.00
N227   N     0.78927   0.40210   0.49668   0.00000  Uiso   1.00
N228   N     0.78533   0.67140   0.48011   0.00000  Uiso   1.00
N229   N     0.14059   0.01571   0.73408   0.00000  Uiso   1.00
N230   N     0.82644   0.35326   0.60486   0.00000  Uiso   1.00
C231   C     0.37698   0.56658   0.48863   0.00000  Uiso   1.00
C232   C     0.35055   0.45920   0.48290   0.00000  Uiso   1.00
C233   C     0.30764   0.39612   0.41783   0.00000  Uiso   1.00
C234   C     0.28928   0.30061   0.42430   0.00000  Uiso   1.00
C235   C     0.24466   0.13860   0.40491   0.00000  Uiso   1.00
C236   C     0.44847   0.55407   0.55290   0.00000  Uiso   1.00
C237   C     0.48788   0.57078   0.54667   0.00000  Uiso   1.00
C238   C     0.55194   0.55515   0.61208   0.00000  Uiso   1.00
C239   C     0.65934   0.54051   0.70136   0.00000  Uiso   1.00
C240   C     0.36188   0.64709   0.51727   0.00000  Uiso   1.00
C241   C     0.32850   0.74202   0.48111   0.00000  Uiso   1.00
C242   C     0.31967   0.80472   0.51654   0.00000  Uiso   1.00
C243   C     0.29263   0.93451   0.55052   0.00000  Uiso   1.00
C244   C     0.42069   0.50915   0.61585   0.00000  Uiso   1.00
C245   C     0.37430   0.42801   0.55200   0.00000  Uiso   1.00
C246   C     0.35600   0.33258   0.55858   0.00000  Uiso   1.00
C247   C     0.31306   0.26936   0.49353   0.00000  Uiso   1.00
C248   C     0.47221   0.52288   0.62199   0.00000  Uiso   1.00
C249   C     0.53624   0.50724   0.68742   0.00000  Uiso   1.00
C250   C     0.57573   0.52390   0.68130   0.00000  Uiso   1.00
C251   C     0.38562   0.61590   0.58637   0.00000  Uiso   1.00
C252   C     0.37685   0.67847   0.62187   0.00000  Uiso   1.00
C253   C     0.34346   0.77347   0.58577   0.00000  Uiso   1.00
H254   H     0.35850   0.59086   0.43483   0.00000  Uiso   1.00
H255   H     0.28928   0.42028   0.36436   0.00000  Uiso   1.00
H256   H     0.46949   0.59492   0.49319   0.00000  Uiso   1.00
H257   H     0.31013   0.76613   0.42764   0.00000  Uiso   1.00
H258   H     0.22303   0.21738   0.31671   0.00000  Uiso   1.00
H259   H     0.60301   0.58566   0.58836   0.00000  Uiso   1.00
H260   H     0.26697   0.94670   0.45014   0.00000  Uiso   1.00
H261   H     0.43918   0.48486   0.66965   0.00000  Uiso   1.00
H262   H     0.37438   0.30846   0.61206   0.00000  Uiso   1.00
H263   H     0.55459   0.48310   0.74089   0.00000  Uiso   1.00
H264   H     0.39523   0.65431   0.67534   0.00000  Uiso   1.00
H265   H     0.29210   0.12662   0.51776   0.00000  Uiso   1.00
H266   H     0.67208   0.49491   0.78941   0.00000  Uiso   1.00
H267   H     0.33604   0.85594   0.65118   0.00000  Uiso   1.00
O268   O     0.21350   0.05785   0.37512   0.00000  Uiso   1.00
O269   O     0.71202   0.54104   0.73152   0.00000  Uiso   1.00
O270   O     0.27114   0.01471   0.55017   0.00000  Uiso   1.00
N271   N     0.24816   0.22024   0.37193   0.00000  Uiso   1.00
N272   N     0.60342   0.56454   0.62590   0.00000  Uiso   1.00
N273   N     0.28927   0.90210   0.49668   0.00000  Uiso   1.00
N274   N     0.28533   0.17140   0.48011   0.00000  Uiso   1.00
N275   N     0.64059   0.51571   0.73408   0.00000  Uiso   1.00
N276   N     0.32644   0.85326   0.60486   0.00000  Uiso   1.00
C277   C     0.12302   0.06658   0.01137   0.00000  Uiso   1.00
C278   C     0.14945   0.95920   0.01710   0.00000  Uiso   1.00
C279   C     0.19236   0.89612   0.08217   0.00000  Uiso   1.00
C280   C     0.21072   0.80061   0.07570   0.00000  Uiso   1.00
C281   C     0.25534   0.63860   0.09509   0.00000  Uiso   1.00
C282   C     0.05153   0.05407   0.94710   0.00000  Uiso   1.00
C283   C     0.01212   0.07078   0.95333   0.00000  Uiso   1.00
C284   C     0.94806   0.05515   0.88792   0.00000  Uiso   1.00
C285   C     0.84066   0.04051   0.79864   0.00000  Uiso   1.00
C286   C     0.13812   0.14709   0.98273   0.00000  Uiso   1.00
C287   C     0.17150   0.24202   0.01889   0.00000  Uiso   1.00
C288   C     0.18033   0.30472   0.98346   0.00000  Uiso   1.00
C289   C     0.20737   0.43451   0.94948   0.00000  Uiso   1.00
C290   C     0.07931   0.00915   0.88415   0.00000  Uiso   1.00
C291   C     0.12570   0.92801   0.94800   0.00000  Uiso   1.00
C292   C     0.14400   0.83258   0.94142   0.00000  Uiso   1.00
C293   C     0.18694   0.76936   0.00647   0.00000  Uiso   1.00
C294   C     0.02779   0.02288   0.87801   0.00000  Uiso   1.00
C295   C     0.96376   0.00724   0.81258   0.00000  Uiso   1.00
C296   C     0.92427   0.02390   0.81870   0.00000  Uiso   1.00
C297   C     0.11438   0.11590   0.91363   0.00000  Uiso   1.00
C298   C     0.12315   0.17847   0.87813   0.00000  Uiso   1.00
C299   C     0.15654   0.27347   0.91423   0.00000  Uiso   1.00
H300   H     0.14150   0.09086   0.06517   0.00000  Uiso   1.00
H301   H     0.21072   0.92028   0.13564   0.00000  Uiso   1.00
H302   H     0.03051   0.09492   0.00681   0.00000  Uiso   1.00
H303   H     0.18987   0.26613   0.07236   0.00000  Uiso   1.00
H304   H     0.27697   0.71738   0.18329   0.00000  Uiso   1.00
H305   H     0.89699   0.08566   0.91164   0.00000  Uiso   1.00
H306   H     0.23303   0.44670   0.04986   0.00000  Uiso   1.00
H307   H     0.06082   0.98486   0.83035   0.00000  Uiso   1.00
H308   H     0.12562   0.80846   0.88794   0.00000  Uiso   1.00
H309   H     0.94541   0.98310   0.75911   0.00000  Uiso   1.00
H310   H     0.10477   0.15431   0.82466   0.00000  Uiso   1.00
H311   H     0.20790   0.62662   0.98224   0.00000  Uiso   1.00
H312   H     0.82792   0.99491   0.71059   0.00000  Uiso   1.00
H313   H     0.16396   0.35594   0.84882   0.00000  Uiso   1.00
O314   O     0.28650   0.55785   0.12488   0.00000  Uiso   1.00
O315   O     0.78798   0.04104   0.76848   0.00000  Uiso   1.00
O316   O     0.22886   0.51471   0.94983   0.00000  Uiso   1.00
N317   N     0.25184   0.72024   0.12807   0.00000  Uiso   1.00
N318   N     0.89658   0.06454   0.87410   0.00000  Uiso   1.00
N319   N     0.21073   0.40210   0.00332   0.00000  Uiso   1.00
N320   N     0.21467   0.67140   0.01989   0.00000  Uiso   1.00
N321   N     0.85941   0.01571   0.76592   0.00000  Uiso   1.00
N322   N     0.17356   0.35326   0.89514   0.00000  Uiso   1.00
C323   C     0.62302   0.56658   0.01137   0.00000  Uiso   1.00
C324   C     0.64945   0.45920   0.01710   0.00000  Uiso   1.00
C325   C     0.69236   0.39612   0.08217   0.00000  Uiso   1.00
C326   C     0.71072   0.30061   0.07570   0.00000  Uiso   1.00
C327   C     0.75534   0.13860   0.09509   0.00000  Uiso   1.00
C328   C     0.55153   0.55407   0.94710   0.00000  Uiso   1.00
C329   C     0.51212   0.57078   0.95333   0.00000  Uiso   1.00
C330   C     0.44806   0.55515   0.88792   0.00000  Uiso   1.00
C331   C     0.34066   0.54051   0.79864   0.00000  Uiso   1.00
C332   C     0.63812   0.64709   0.98273   0.00000  Uiso   1.00
C333   C     0.67150   0.74202   0.01889   0.00000  Uiso   1.00
C334   C     0.68033   0.80472   0.98346   0.00000  Uiso   1.00
C335   C     0.70737   0.93451   0.94948   0.00000  Uiso   1.00
C336   C     0.57931   0.50915   0.88415   0.00000  Uiso   1.00
C337   C     0.62570   0.42801   0.94800   0.00000  Uiso   1.00
C338   C     0.64400   0.33258   0.94142   0.00000  Uiso   1.00
C339   C     0.68694   0.26936   0.00647   0.00000  Uiso   1.00
C340   C     0.52779   0.52288   0.87801   0.00000  Uiso   1.00
C341   C     0.46376   0.50724   0.81258   0.00000  Uiso   1.00
C342   C     0.42427   0.52390   0.81870   0.00000  Uiso   1.00
C343   C     0.61438   0.61590   0.91363   0.00000  Uiso   1.00
C344   C     0.62315   0.67847   0.87813   0.00000  Uiso   1.00
C345   C     0.65654   0.77347   0.91423   0.00000  Uiso   1.00
H346   H     0.64150   0.59086   0.06517   0.00000  Uiso   1.00
H347   H     0.71072   0.42028   0.13564   0.00000  Uiso   1.00
H348   H     0.53051   0.59492   0.00681   0.00000  Uiso   1.00
H349   H     0.68987   0.76613   0.07236   0.00000  Uiso   1.00
H350   H     0.77697   0.21738   0.18329   0.00000  Uiso   1.00
H351   H     0.39699   0.58566   0.91164   0.00000  Uiso   1.00
H352   H     0.73303   0.94670   0.04986   0.00000  Uiso   1.00
H353   H     0.56082   0.48486   0.83035   0.00000  Uiso   1.00
H354   H     0.62562   0.30846   0.88794   0.00000  Uiso   1.00
H355   H     0.44541   0.48310   0.75911   0.00000  Uiso   1.00
H356   H     0.60477   0.65431   0.82466   0.00000  Uiso   1.00
H357   H     0.70790   0.12662   0.98224   0.00000  Uiso   1.00
H358   H     0.32792   0.49491   0.71059   0.00000  Uiso   1.00
H359   H     0.66396   0.85594   0.84882   0.00000  Uiso   1.00
O360   O     0.78650   0.05785   0.12488   0.00000  Uiso   1.00
O361   O     0.28798   0.54104   0.76848   0.00000  Uiso   1.00
O362   O     0.72886   0.01471   0.94983   0.00000  Uiso   1.00
N363   N     0.75184   0.22024   0.12807   0.00000  Uiso   1.00
N364   N     0.39658   0.56454   0.87410   0.00000  Uiso   1.00
N365   N     0.71073   0.90210   0.00332   0.00000  Uiso   1.00
N366   N     0.71467   0.17140   0.01989   0.00000  Uiso   1.00
N367   N     0.35941   0.51571   0.76592   0.00000  Uiso   1.00
N368   N     0.67356   0.85326   0.89514   0.00000  Uiso   1.00
