data_job_06908
_audit_creation_date              2018-12-19
_audit_creation_method            'Materials Studio'
_symmetry_space_group_name_H-M    'P1'
_symmetry_Int_Tables_number       1
_symmetry_cell_setting            triclinic
loop_
_symmetry_equiv_pos_as_xyz
  x,y,z
_cell_length_a                    21.0599
_cell_length_b                    22.8231
_cell_length_c                    23.4622
_cell_angle_alpha                 81.5129
_cell_angle_beta                  66.2451
_cell_angle_gamma                 114.2421
loop_
_atom_site_label
_atom_site_type_symbol
_atom_site_fract_x
_atom_site_fract_y
_atom_site_fract_z
_atom_site_U_iso_or_equiv
_atom_site_adp_type
_atom_site_occupancy
C1     C     0.47216   0.26551   0.93085   0.00000  Uiso   1.00
C2     C     0.47957   0.20465   0.95664   0.00000  Uiso   1.00
C3     C     0.42530   0.13534   0.97389   0.00000  Uiso   1.00
C4     C     0.44287   0.08751   0.99644   0.00000  Uiso   1.00
C5     C     0.44380   0.98984   0.03574   0.00000  Uiso   1.00
C6     C     0.47385   0.30393   0.97867   0.00000  Uiso   1.00
C7     C     0.41477   0.31810   0.01443   0.00000  Uiso   1.00
C8     C     0.42753   0.35384   0.05552   0.00000  Uiso   1.00
C9     C     0.41960   0.41036   0.12897   0.00000  Uiso   1.00
C10    C     0.55058   0.31419   0.86368   0.00000  Uiso   1.00
C11    C     0.55603   0.33700   0.80276   0.00000  Uiso   1.00
C12    C     0.63340   0.38140   0.74704   0.00000  Uiso   1.00
C13    C     0.74462   0.45384   0.64196   0.00000  Uiso   1.00
C14    C     0.59987   0.30380   0.94021   0.00000  Uiso   1.00
C15    C     0.54894   0.22545   0.96172   0.00000  Uiso   1.00
C16    C     0.56660   0.17771   0.98425   0.00000  Uiso   1.00
C17    C     0.51236   0.10834   0.00153   0.00000  Uiso   1.00
C18    C     0.54321   0.32473   0.98375   0.00000  Uiso   1.00
C19    C     0.55606   0.36047   0.02479   0.00000  Uiso   1.00
C20    C     0.49702   0.37468   0.06061   0.00000  Uiso   1.00
C21    C     0.61995   0.33499   0.86876   0.00000  Uiso   1.00
C22    C     0.69733   0.37937   0.81312   0.00000  Uiso   1.00
C23    C     0.70289   0.40224   0.75213   0.00000  Uiso   1.00
H24    H     0.41816   0.24931   0.92690   0.00000  Uiso   1.00
H25    H     0.37162   0.11926   0.96996   0.00000  Uiso   1.00
H26    H     0.36110   0.30200   0.01048   0.00000  Uiso   1.00
H27    H     0.50234   0.32089   0.79885   0.00000  Uiso   1.00
H28    H     0.35061   0.98425   0.01996   0.00000  Uiso   1.00
H29    H     0.32843   0.36958   0.10539   0.00000  Uiso   1.00
H30    H     0.62626   0.40942   0.65912   0.00000  Uiso   1.00
H31    H     0.65388   0.32000   0.94417   0.00000  Uiso   1.00
H32    H     0.62028   0.19382   0.98818   0.00000  Uiso   1.00
H33    H     0.60975   0.37656   0.02871   0.00000  Uiso   1.00
H34    H     0.75099   0.39545   0.81707   0.00000  Uiso   1.00
H35    H     0.55242   0.04476   0.03475   0.00000  Uiso   1.00
H36    H     0.53024   0.43010   0.12019   0.00000  Uiso   1.00
H37    H     0.82808   0.46994   0.67392   0.00000  Uiso   1.00
O38    O     0.42514   0.93023   0.05601   0.00000  Uiso   1.00
O39    O     0.39605   0.43577   0.16809   0.00000  Uiso   1.00
O40    O     0.78681   0.48804   0.58260   0.00000  Uiso   1.00
N41    N     0.40272   0.01581   0.01739   0.00000  Uiso   1.00
N42    N     0.38198   0.37606   0.09727   0.00000  Uiso   1.00
N43    N     0.66043   0.41332   0.68005   0.00000  Uiso   1.00
N44    N     0.51132   0.04837   0.02535   0.00000  Uiso   1.00
N45    N     0.49057   0.40862   0.10523   0.00000  Uiso   1.00
N46    N     0.76903   0.44589   0.68801   0.00000  Uiso   1.00
C47    C     0.21230   0.63235   0.20461   0.00000  Uiso   1.00
C48    C     0.28981   0.68726   0.13917   0.00000  Uiso   1.00
C49    C     0.29382   0.72752   0.08589   0.00000  Uiso   1.00
C50    C     0.37054   0.77485   0.03046   0.00000  Uiso   1.00
C51    C     0.48021   0.85906   0.92914   0.00000  Uiso   1.00
C52    C     0.21345   0.56536   0.21133   0.00000  Uiso   1.00
C53    C     0.15326   0.50311   0.21873   0.00000  Uiso   1.00
C54    C     0.16569   0.44782   0.22406   0.00000  Uiso   1.00
C55    C     0.15678   0.34275   0.23482   0.00000  Uiso   1.00
C56    C     0.22212   0.65297   0.26080   0.00000  Uiso   1.00
C57    C     0.16921   0.66438   0.30981   0.00000  Uiso   1.00
C58    C     0.18893   0.68283   0.35680   0.00000  Uiso   1.00
C59    C     0.19350   0.71381   0.44437   0.00000  Uiso   1.00
C60    C     0.34140   0.64482   0.20092   0.00000  Uiso   1.00
C61    C     0.35993   0.69403   0.13716   0.00000  Uiso   1.00
C62    C     0.43665   0.74132   0.08181   0.00000  Uiso   1.00
C63    C     0.44078   0.78164   0.02845   0.00000  Uiso   1.00
C64    C     0.28357   0.57213   0.20932   0.00000  Uiso   1.00
C65    C     0.29608   0.51691   0.21465   0.00000  Uiso   1.00
C66    C     0.23593   0.45460   0.22205   0.00000  Uiso   1.00
C67    C     0.29224   0.65975   0.25880   0.00000  Uiso   1.00
C68    C     0.31205   0.67818   0.30573   0.00000  Uiso   1.00
C69    C     0.25918   0.68962   0.35480   0.00000  Uiso   1.00
H70    H     0.15771   0.62707   0.20617   0.00000  Uiso   1.00
H71    H     0.23954   0.72225   0.08745   0.00000  Uiso   1.00
H72    H     0.09900   0.49788   0.22029   0.00000  Uiso   1.00
H73    H     0.11496   0.65913   0.31135   0.00000  Uiso   1.00
H74    H     0.36119   0.83075   0.95494   0.00000  Uiso   1.00
H75    H     0.06483   0.35765   0.23505   0.00000  Uiso   1.00
H76    H     0.09847   0.69767   0.42707   0.00000  Uiso   1.00
H77    H     0.39599   0.65009   0.19936   0.00000  Uiso   1.00
H78    H     0.49091   0.74655   0.08027   0.00000  Uiso   1.00
H79    H     0.35035   0.52217   0.21310   0.00000  Uiso   1.00
H80    H     0.36631   0.68342   0.30416   0.00000  Uiso   1.00
H81    H     0.56521   0.85047   0.94911   0.00000  Uiso   1.00
H82    H     0.26883   0.37736   0.22922   0.00000  Uiso   1.00
H83    H     0.30249   0.71738   0.42124   0.00000  Uiso   1.00
O84    O     0.52133   0.90363   0.87380   0.00000  Uiso   1.00
O85    O     0.13250   0.28293   0.24130   0.00000  Uiso   1.00
O86    O     0.17665   0.72903   0.49322   0.00000  Uiso   1.00
N87    N     0.39618   0.82217   0.96992   0.00000  Uiso   1.00
N88    N     0.11910   0.37985   0.23179   0.00000  Uiso   1.00
N89    N     0.15055   0.69771   0.41133   0.00000  Uiso   1.00
N90    N     0.50596   0.83277   0.96678   0.00000  Uiso   1.00
N91    N     0.22888   0.39045   0.22865   0.00000  Uiso   1.00
N92    N     0.26033   0.70832   0.40819   0.00000  Uiso   1.00
C93    C     0.53420   0.98104   0.59730   0.00000  Uiso   1.00
C94    C     0.55977   0.99892   0.64764   0.00000  Uiso   1.00
C95    C     0.51681   0.00986   0.70351   0.00000  Uiso   1.00
C96    C     0.55043   0.02570   0.74334   0.00000  Uiso   1.00
C97    C     0.57891   0.05279   0.82385   0.00000  Uiso   1.00
C98    C     0.60426   0.03656   0.52863   0.00000  Uiso   1.00
C99    C     0.59870   0.07913   0.48444   0.00000  Uiso   1.00
C100   C     0.66977   0.12664   0.42409   0.00000  Uiso   1.00
C101   C     0.76731   0.21212   0.31981   0.00000  Uiso   1.00
C102   C     0.53183   0.91359   0.59602   0.00000  Uiso   1.00
C103   C     0.46539   0.85276   0.60847   0.00000  Uiso   1.00
C104   C     0.47548   0.79675   0.60484   0.00000  Uiso   1.00
C105   C     0.46057   0.69129   0.60519   0.00000  Uiso   1.00
C106   C     0.67028   0.98971   0.56868   0.00000  Uiso   1.00
C107   C     0.63368   0.00364   0.63209   0.00000  Uiso   1.00
C108   C     0.66737   0.01946   0.67184   0.00000  Uiso   1.00
C109   C     0.62448   0.03042   0.72777   0.00000  Uiso   1.00
C110   C     0.67817   0.04127   0.51308   0.00000  Uiso   1.00
C111   C     0.74926   0.08873   0.45277   0.00000  Uiso   1.00
C112   C     0.74382   0.13136   0.40851   0.00000  Uiso   1.00
C113   C     0.60574   0.91830   0.58047   0.00000  Uiso   1.00
C114   C     0.61595   0.86236   0.57681   0.00000  Uiso   1.00
C115   C     0.54953   0.80147   0.58926   0.00000  Uiso   1.00
H116   H     0.47665   0.97737   0.60941   0.00000  Uiso   1.00
H117   H     0.45962   0.00622   0.71553   0.00000  Uiso   1.00
H118   H     0.54149   0.07546   0.49649   0.00000  Uiso   1.00
H119   H     0.40820   0.84914   0.62051   0.00000  Uiso   1.00
H120   H     0.47334   0.04030   0.82631   0.00000  Uiso   1.00
H121   H     0.64598   0.18630   0.36445   0.00000  Uiso   1.00
H122   H     0.36489   0.70904   0.62596   0.00000  Uiso   1.00
H123   H     0.72783   0.99338   0.55657   0.00000  Uiso   1.00
H124   H     0.72458   0.02311   0.65980   0.00000  Uiso   1.00
H125   H     0.80645   0.09236   0.44076   0.00000  Uiso   1.00
H126   H     0.67316   0.86603   0.56477   0.00000  Uiso   1.00
H127   H     0.68839   0.05401   0.78108   0.00000  Uiso   1.00
H128   H     0.86103   0.20001   0.31921   0.00000  Uiso   1.00
H129   H     0.57994   0.72275   0.58072   0.00000  Uiso   1.00
O130   O     0.57421   0.06644   0.87254   0.00000  Uiso   1.00
O131   O     0.80069   0.25798   0.26659   0.00000  Uiso   1.00
O132   O     0.43192   0.63183   0.60969   0.00000  Uiso   1.00
N133   N     0.52439   0.03944   0.80151   0.00000  Uiso   1.00
N134   N     0.68580   0.17594   0.36970   0.00000  Uiso   1.00
N135   N     0.42301   0.72975   0.61417   0.00000  Uiso   1.00
N136   N     0.64011   0.04681   0.77717   0.00000  Uiso   1.00
N137   N     0.80151   0.18332   0.34536   0.00000  Uiso   1.00
N138   N     0.53873   0.73713   0.58983   0.00000  Uiso   1.00
C139   C     0.58959   0.57469   0.28295   0.00000  Uiso   1.00
C140   C     0.64292   0.65211   0.24048   0.00000  Uiso   1.00
C141   C     0.65233   0.68368   0.18001   0.00000  Uiso   1.00
C142   C     0.70386   0.75514   0.14891   0.00000  Uiso   1.00
C143   C     0.78046   0.86951   0.07866   0.00000  Uiso   1.00
C144   C     0.53167   0.56766   0.35233   0.00000  Uiso   1.00
C145   C     0.44755   0.52822   0.38588   0.00000  Uiso   1.00
C146   C     0.40543   0.52859   0.44893   0.00000  Uiso   1.00
C147   C     0.30931   0.51180   0.55234   0.00000  Uiso   1.00
C148   C     0.64541   0.55281   0.29190   0.00000  Uiso   1.00
C149   C     0.65690   0.50086   0.27466   0.00000  Uiso   1.00
C150   C     0.71053   0.48871   0.28685   0.00000  Uiso   1.00
C151   C     0.79101   0.44887   0.29643   0.00000  Uiso   1.00
C152   C     0.66435   0.64547   0.33526   0.00000  Uiso   1.00
C153   C     0.68352   0.69056   0.26890   0.00000  Uiso   1.00
C154   C     0.73505   0.76199   0.23787   0.00000  Uiso   1.00
C155   C     0.74455   0.79366   0.17736   0.00000  Uiso   1.00
C156   C     0.57227   0.60611   0.38073   0.00000  Uiso   1.00
C157   C     0.53027   0.60653   0.44375   0.00000  Uiso   1.00
C158   C     0.44611   0.56710   0.47739   0.00000  Uiso   1.00
C159   C     0.68602   0.59125   0.32030   0.00000  Uiso   1.00
C160   C     0.73963   0.57918   0.33253   0.00000  Uiso   1.00
C161   C     0.75121   0.52723   0.31531   0.00000  Uiso   1.00
H162   H     0.55797   0.54476   0.26084   0.00000  Uiso   1.00
H163   H     0.62089   0.65391   0.15804   0.00000  Uiso   1.00
H164   H     0.41614   0.49847   0.36389   0.00000  Uiso   1.00
H165   H     0.62547   0.47112   0.25268   0.00000  Uiso   1.00
H166   H     0.70854   0.79188   0.05662   0.00000  Uiso   1.00
H167   H     0.27681   0.46410   0.49066   0.00000  Uiso   1.00
H168   H     0.71821   0.40644   0.25616   0.00000  Uiso   1.00
H169   H     0.69597   0.67540   0.35737   0.00000  Uiso   1.00
H170   H     0.76647   0.79173   0.25987   0.00000  Uiso   1.00
H171   H     0.56172   0.63628   0.46572   0.00000  Uiso   1.00
H172   H     0.77104   0.60894   0.35451   0.00000  Uiso   1.00
H173   H     0.82669   0.90374   0.13926   0.00000  Uiso   1.00
H174   H     0.39496   0.57596   0.57331   0.00000  Uiso   1.00
H175   H     0.83637   0.51829   0.33881   0.00000  Uiso   1.00
O176   O     0.81148   0.92198   0.03207   0.00000  Uiso   1.00
O177   O     0.24507   0.49193   0.60152   0.00000  Uiso   1.00
O178   O     0.82419   0.41628   0.29386   0.00000  Uiso   1.00
N179   N     0.72668   0.80224   0.08944   0.00000  Uiso   1.00
N180   N     0.32304   0.49579   0.49524   0.00000  Uiso   1.00
N181   N     0.73570   0.44187   0.27602   0.00000  Uiso   1.00
N182   N     0.79026   0.86243   0.13391   0.00000  Uiso   1.00
N183   N     0.38662   0.55599   0.53972   0.00000  Uiso   1.00
N184   N     0.79928   0.50206   0.32049   0.00000  Uiso   1.00
C185   C     0.02603   0.30231   0.92652   0.00000  Uiso   1.00
C186   C     0.02892   0.24779   0.89674   0.00000  Uiso   1.00
C187   C     0.96401   0.18151   0.91876   0.00000  Uiso   1.00
C188   C     0.97906   0.13944   0.88485   0.00000  Uiso   1.00
C189   C     0.97179   0.05123   0.84678   0.00000  Uiso   1.00
C190   C     0.05598   0.36588   0.86860   0.00000  Uiso   1.00
C191   C     0.01381   0.39890   0.86698   0.00000  Uiso   1.00
C192   C     0.05166   0.45625   0.80939   0.00000  Uiso   1.00
C193   C     0.08642   0.55140   0.72767   0.00000  Uiso   1.00
C194   C     0.09061   0.32283   0.94612   0.00000  Uiso   1.00
C195   C     0.07758   0.31968   0.00967   0.00000  Uiso   1.00
C196   C     0.14459   0.34081   0.01735   0.00000  Uiso   1.00
C197   C     0.23313   0.36913   0.05599   0.00000  Uiso   1.00
C198   C     0.16820   0.34545   0.82715   0.00000  Uiso   1.00
C199   C     0.10614   0.27122   0.84276   0.00000  Uiso   1.00
C200   C     0.12130   0.22924   0.80881   0.00000  Uiso   1.00
C201   C     0.05642   0.16291   0.83078   0.00000  Uiso   1.00
C202   C     0.13319   0.38931   0.81463   0.00000  Uiso   1.00
C203   C     0.17111   0.44663   0.75703   0.00000  Uiso   1.00
C204   C     0.12902   0.47972   0.75531   0.00000  Uiso   1.00
C205   C     0.16783   0.34626   0.89215   0.00000  Uiso   1.00
C206   C     0.23487   0.36740   0.89972   0.00000  Uiso   1.00
C207   C     0.22195   0.36428   0.96327   0.00000  Uiso   1.00
H208   H     0.96591   0.28408   0.96854   0.00000  Uiso   1.00
H209   H     0.90425   0.16340   0.96053   0.00000  Uiso   1.00
H210   H     0.95406   0.38076   0.90876   0.00000  Uiso   1.00
H211   H     0.01782   0.30155   0.05143   0.00000  Uiso   1.00
H212   H     0.86994   0.03996   0.92782   0.00000  Uiso   1.00
H213   H     0.97498   0.49828   0.81867   0.00000  Uiso   1.00
H214   H     0.10942   0.33125   0.11952   0.00000  Uiso   1.00
H215   H     0.22832   0.36369   0.78512   0.00000  Uiso   1.00
H216   H     0.18106   0.24738   0.76704   0.00000  Uiso   1.00
H217   H     0.23087   0.46474   0.71527   0.00000  Uiso   1.00
H218   H     0.29462   0.38553   0.85794   0.00000  Uiso   1.00
H219   H     0.09461   0.10812   0.77077   0.00000  Uiso   1.00
H220   H     0.19965   0.56645   0.66163   0.00000  Uiso   1.00
H221   H     0.33409   0.39942   0.96248   0.00000  Uiso   1.00
O222   O     0.94645   0.99610   0.84070   0.00000  Uiso   1.00
O223   O     0.08426   0.59741   0.69750   0.00000  Uiso   1.00
O224   O     0.26063   0.37827   0.09222   0.00000  Uiso   1.00
N225   N     0.92931   0.07195   0.89335   0.00000  Uiso   1.00
N226   N     0.02750   0.50046   0.79129   0.00000  Uiso   1.00
N227   N     0.15320   0.34431   0.07257   0.00000  Uiso   1.00
N228   N     0.05020   0.10863   0.80884   0.00000  Uiso   1.00
N229   N     0.14840   0.53713   0.70679   0.00000  Uiso   1.00
N230   N     0.27409   0.38099   0.98806   0.00000  Uiso   1.00
C231   C     0.08103   0.93667   0.61980   0.00000  Uiso   1.00
C232   C     0.05577   0.90251   0.69233   0.00000  Uiso   1.00
C233   C     0.01734   0.91828   0.74609   0.00000  Uiso   1.00
C234   C     0.99928   0.88117   0.80851   0.00000  Uiso   1.00
C235   C     0.95703   0.83586   0.91988   0.00000  Uiso   1.00
C236   C     0.04027   0.87801   0.59959   0.00000  Uiso   1.00
C237   C     0.98882   0.87320   0.57535   0.00000  Uiso   1.00
C238   C     0.95773   0.81548   0.55970   0.00000  Uiso   1.00
C239   C     0.89146   0.73217   0.52703   0.00000  Uiso   1.00
C240   C     0.17188   0.96509   0.57795   0.00000  Uiso   1.00
C241   C     0.23111   0.03350   0.53550   0.00000  Uiso   1.00
C242   C     0.31083   0.04908   0.50160   0.00000  Uiso   1.00
C243   C     0.44891   0.10098   0.43533   0.00000  Uiso   1.00
C244   C     0.11728   0.84271   0.63507   0.00000  Uiso   1.00
C245   C     0.07546   0.85147   0.70063   0.00000  Uiso   1.00
C246   C     0.05745   0.81433   0.76299   0.00000  Uiso   1.00
C247   C     0.01901   0.83005   0.81682   0.00000  Uiso   1.00
C248   C     0.05996   0.82698   0.60789   0.00000  Uiso   1.00
C249   C     0.02893   0.76925   0.59225   0.00000  Uiso   1.00
C250   C     0.97745   0.76435   0.56801   0.00000  Uiso   1.00
C251   C     0.19158   0.91406   0.58624   0.00000  Uiso   1.00
C252   C     0.27122   0.92954   0.55240   0.00000  Uiso   1.00
C253   C     0.33055   0.99796   0.50991   0.00000  Uiso   1.00
H254   H     0.06569   0.97640   0.61334   0.00000  Uiso   1.00
H255   H     0.00211   0.95777   0.73965   0.00000  Uiso   1.00
H256   H     0.97360   0.91271   0.56893   0.00000  Uiso   1.00
H257   H     0.21585   0.07297   0.52909   0.00000  Uiso   1.00
H258   H     0.94027   0.91460   0.88335   0.00000  Uiso   1.00
H259   H     0.88018   0.81959   0.52337   0.00000  Uiso   1.00
H260   H     0.39101   0.15754   0.43934   0.00000  Uiso   1.00
H261   H     0.13261   0.80298   0.64153   0.00000  Uiso   1.00
H262   H     0.07270   0.77484   0.76939   0.00000  Uiso   1.00
H263   H     0.04419   0.72977   0.59868   0.00000  Uiso   1.00
H264   H     0.28643   0.89004   0.55883   0.00000  Uiso   1.00
H265   H     0.99756   0.76612   0.90749   0.00000  Uiso   1.00
H266   H     0.93747   0.67111   0.54751   0.00000  Uiso   1.00
H267   H     0.44830   0.00907   0.46348   0.00000  Uiso   1.00
O268   O     0.92827   0.82496   0.97902   0.00000  Uiso   1.00
O269   O     0.84945   0.70032   0.50673   0.00000  Uiso   1.00
O270   O     0.51964   0.14371   0.39650   0.00000  Uiso   1.00
N271   N     0.96199   0.88353   0.87148   0.00000  Uiso   1.00
N272   N     0.90580   0.79469   0.53493   0.00000  Uiso   1.00
N273   N     0.38338   0.11065   0.45636   0.00000  Uiso   1.00
N274   N     0.99282   0.80363   0.88447   0.00000  Uiso   1.00
N275   N     0.93663   0.71480   0.54792   0.00000  Uiso   1.00
N276   N     0.41420   0.03075   0.46935   0.00000  Uiso   1.00
C277   C     0.75859   0.72192   0.81133   0.00000  Uiso   1.00
C278   C     0.74204   0.78105   0.80833   0.00000  Uiso   1.00
C279   C     0.80053   0.85123   0.77703   0.00000  Uiso   1.00
C280   C     0.77303   0.89718   0.77988   0.00000  Uiso   1.00
C281   C     0.75997   0.99256   0.77018   0.00000  Uiso   1.00
C282   C     0.71488   0.67737   0.78161   0.00000  Uiso   1.00
C283   C     0.75053   0.66036   0.72785   0.00000  Uiso   1.00
C284   C     0.70015   0.61901   0.70822   0.00000  Uiso   1.00
C285   C     0.64490   0.55338   0.65707   0.00000  Uiso   1.00
C286   C     0.71410   0.67774   0.88567   0.00000  Uiso   1.00
C287   C     0.74909   0.66103   0.91940   0.00000  Uiso   1.00
C288   C     0.69805   0.61999   0.98739   0.00000  Uiso   1.00
C289   C     0.64160   0.55494   0.09780   0.00000  Uiso   1.00
C290   C     0.60574   0.67872   0.87207   0.00000  Uiso   1.00
C291   C     0.65902   0.75758   0.84132   0.00000  Uiso   1.00
C292   C     0.63143   0.80343   0.84423   0.00000  Uiso   1.00
C293   C     0.68986   0.87367   0.81294   0.00000  Uiso   1.00
C294   C     0.63186   0.65390   0.81460   0.00000  Uiso   1.00
C295   C     0.58142   0.61256   0.79505   0.00000  Uiso   1.00
C296   C     0.61698   0.59550   0.74127   0.00000  Uiso   1.00
C297   C     0.63108   0.65428   0.91867   0.00000  Uiso   1.00
C298   C     0.57998   0.61324   0.98661   0.00000  Uiso   1.00
C299   C     0.61488   0.59648   0.02044   0.00000  Uiso   1.00
H300   H     0.82322   0.74019   0.78564   0.00000  Uiso   1.00
H301   H     0.86477   0.86937   0.75149   0.00000  Uiso   1.00
H302   H     0.81477   0.67852   0.70233   0.00000  Uiso   1.00
H303   H     0.81333   0.67920   0.89385   0.00000  Uiso   1.00
H304   H     0.87423   0.00225   0.72816   0.00000  Uiso   1.00
H305   H     0.76879   0.59981   0.62451   0.00000  Uiso   1.00
H306   H     0.76576   0.60124   0.02838   0.00000  Uiso   1.00
H307   H     0.54110   0.66045   0.89776   0.00000  Uiso   1.00
H308   H     0.56718   0.78526   0.86977   0.00000  Uiso   1.00
H309   H     0.51718   0.59441   0.82060   0.00000  Uiso   1.00
H310   H     0.51574   0.59509   0.01212   0.00000  Uiso   1.00
H311   H     0.63269   0.93398   0.82415   0.00000  Uiso   1.00
H312   H     0.52725   0.53154   0.72051   0.00000  Uiso   1.00
H313   H     0.52422   0.53297   0.12437   0.00000  Uiso   1.00
O314   O     0.77570   0.05165   0.75570   0.00000  Uiso   1.00
O315   O     0.63737   0.52367   0.61973   0.00000  Uiso   1.00
O316   O     0.63339   0.52555   0.14958   0.00000  Uiso   1.00
N317   N     0.81381   0.96905   0.75461   0.00000  Uiso   1.00
N318   N     0.71523   0.59281   0.65770   0.00000  Uiso   1.00
N319   N     0.71239   0.59413   0.03527   0.00000  Uiso   1.00
N320   N     0.68383   0.93231   0.80626   0.00000  Uiso   1.00
N321   N     0.58526   0.55607   0.70935   0.00000  Uiso   1.00
N322   N     0.58242   0.55740   0.08692   0.00000  Uiso   1.00
C323   C     0.00311   0.33351   0.67709   0.00000  Uiso   1.00
C324   C     0.92154   0.27830   0.73918   0.00000  Uiso   1.00
C325   C     0.90613   0.25884   0.80442   0.00000  Uiso   1.00
C326   C     0.82749   0.20732   0.85425   0.00000  Uiso   1.00
C327   C     0.71010   0.12632   0.95294   0.00000  Uiso   1.00
C328   C     0.98784   0.38552   0.64496   0.00000  Uiso   1.00
C329   C     0.02819   0.45622   0.63097   0.00000  Uiso   1.00
C330   C     0.00536   0.49495   0.60148   0.00000  Uiso   1.00
C331   C     0.99094   0.58043   0.55385   0.00000  Uiso   1.00
C332   C     0.02301   0.29771   0.62828   0.00000  Uiso   1.00
C333   C     0.09294   0.29459   0.60024   0.00000  Uiso   1.00
C334   C     0.09973   0.25941   0.55670   0.00000  Uiso   1.00
C335   C     0.13993   0.20855   0.48316   0.00000  Uiso   1.00
C336   C     0.89085   0.27660   0.64959   0.00000  Uiso   1.00
C337   C     0.86056   0.24739   0.72424   0.00000  Uiso   1.00
C338   C     0.78192   0.19588   0.77399   0.00000  Uiso   1.00
C339   C     0.76640   0.17635   0.83929   0.00000  Uiso   1.00
C340   C     0.92686   0.35462   0.63003   0.00000  Uiso   1.00
C341   C     0.90398   0.39326   0.60055   0.00000  Uiso   1.00
C342   C     0.94427   0.46399   0.58652   0.00000  Uiso   1.00
C343   C     0.96203   0.26680   0.61334   0.00000  Uiso   1.00
C344   C     0.96873   0.23163   0.56982   0.00000  Uiso   1.00
C345   C     0.03865   0.22845   0.54173   0.00000  Uiso   1.00
H346   H     0.05058   0.35758   0.68872   0.00000  Uiso   1.00
H347   H     0.95334   0.28278   0.81596   0.00000  Uiso   1.00
H348   H     0.07538   0.48012   0.64253   0.00000  Uiso   1.00
H349   H     0.14011   0.31852   0.61182   0.00000  Uiso   1.00
H350   H     0.81862   0.18624   0.95044   0.00000  Uiso   1.00
H351   H     0.07597   0.60235   0.58474   0.00000  Uiso   1.00
H352   H     0.21248   0.26158   0.51997   0.00000  Uiso   1.00
H353   H     0.84337   0.25254   0.63796   0.00000  Uiso   1.00
H354   H     0.73475   0.17197   0.76242   0.00000  Uiso   1.00
H355   H     0.85679   0.36932   0.58899   0.00000  Uiso   1.00
H356   H     0.92153   0.20771   0.55828   0.00000  Uiso   1.00
H357   H     0.64121   0.09631   0.90698   0.00000  Uiso   1.00
H358   H     0.89856   0.51242   0.54129   0.00000  Uiso   1.00
H359   H     0.03507   0.17165   0.47651   0.00000  Uiso   1.00
O360   O     0.66219   0.09019   0.01150   0.00000  Uiso   1.00
O361   O     0.99983   0.63611   0.53171   0.00000  Uiso   1.00
O362   O     0.17894   0.18902   0.44673   0.00000  Uiso   1.00
N363   N     0.79178   0.17612   0.92313   0.00000  Uiso   1.00
N364   N     0.03237   0.56516   0.58124   0.00000  Uiso   1.00
N365   N     0.16001   0.24658   0.52066   0.00000  Uiso   1.00
N366   N     0.69631   0.12773   0.89975   0.00000  Uiso   1.00
N367   N     0.93691   0.51677   0.55785   0.00000  Uiso   1.00
N368   N     0.06455   0.19819   0.49728   0.00000  Uiso   1.00
C369   C     0.60871   0.99202   0.25491   0.00000  Uiso   1.00
C370   C     0.59965   0.97103   0.19861   0.00000  Uiso   1.00
C371   C     0.65382   0.96086   0.14932   0.00000  Uiso   1.00
C372   C     0.63460   0.94177   0.10230   0.00000  Uiso   1.00
C373   C     0.63129   0.91045   0.01456   0.00000  Uiso   1.00
C374   C     0.53184   0.93622   0.32029   0.00000  Uiso   1.00
C375   C     0.52900   0.89680   0.37332   0.00000  Uiso   1.00
C376   C     0.45270   0.84842   0.42873   0.00000  Uiso   1.00
C377   C     0.34412   0.76310   0.52993   0.00000  Uiso   1.00
C378   C     0.60524   0.05795   0.24866   0.00000  Uiso   1.00
C379   C     0.66410   0.12089   0.24147   0.00000  Uiso   1.00
C380   C     0.64958   0.17499   0.23659   0.00000  Uiso   1.00
C381   C     0.65495   0.27867   0.22656   0.00000  Uiso   1.00
C382   C     0.47826   0.97619   0.25904   0.00000  Uiso   1.00
C383   C     0.52879   0.96242   0.20086   0.00000  Uiso   1.00
C384   C     0.50949   0.94335   0.15389   0.00000  Uiso   1.00
C385   C     0.56362   0.93316   0.10455   0.00000  Uiso   1.00
C386   C     0.46099   0.92762   0.32254   0.00000  Uiso   1.00
C387   C     0.38467   0.87929   0.37789   0.00000  Uiso   1.00
C388   C     0.38172   0.83980   0.43098   0.00000  Uiso   1.00
C389   C     0.53438   0.04935   0.25090   0.00000  Uiso   1.00
C390   C     0.51977   0.10337   0.24603   0.00000  Uiso   1.00
C391   C     0.57859   0.16637   0.23884   0.00000  Uiso   1.00
H392   H     0.66387   0.99871   0.25317   0.00000  Uiso   1.00
H393   H     0.70865   0.96752   0.14761   0.00000  Uiso   1.00
H394   H     0.58385   0.90347   0.37157   0.00000  Uiso   1.00
H395   H     0.71892   0.12752   0.23974   0.00000  Uiso   1.00
H396   H     0.72702   0.92912   0.03158   0.00000  Uiso   1.00
H397   H     0.46388   0.79410   0.50383   0.00000  Uiso   1.00
H398   H     0.74871   0.26654   0.22583   0.00000  Uiso   1.00
H399   H     0.42309   0.96949   0.26079   0.00000  Uiso   1.00
H400   H     0.45465   0.93670   0.15564   0.00000  Uiso   1.00
H401   H     0.32985   0.87265   0.37961   0.00000  Uiso   1.00
H402   H     0.46493   0.09670   0.24777   0.00000  Uiso   1.00
H403   H     0.52087   0.90410   0.03811   0.00000  Uiso   1.00
H404   H     0.25773   0.76908   0.51035   0.00000  Uiso   1.00
H405   H     0.54255   0.24152   0.23235   0.00000  Uiso   1.00
O406   O     0.64904   0.89554   0.96556   0.00000  Uiso   1.00
O407   O     0.30381   0.71841   0.58512   0.00000  Uiso   1.00
O408   O     0.67750   0.33824   0.22040   0.00000  Uiso   1.00
N409   N     0.67418   0.92775   0.04754   0.00000  Uiso   1.00
N410   N     0.42816   0.80150   0.48906   0.00000  Uiso   1.00
N411   N     0.69444   0.24319   0.22917   0.00000  Uiso   1.00
N412   N     0.56325   0.91428   0.05105   0.00000  Uiso   1.00
N413   N     0.31723   0.78804   0.49257   0.00000  Uiso   1.00
N414   N     0.58351   0.22973   0.23268   0.00000  Uiso   1.00
C415   C     0.47505   0.27040   0.52486   0.00000  Uiso   1.00
C416   C     0.41173   0.19498   0.57172   0.00000  Uiso   1.00
C417   C     0.42763   0.14588   0.59438   0.00000  Uiso   1.00
C418   C     0.36137   0.07969   0.63696   0.00000  Uiso   1.00
C419   C     0.27511   0.96507   0.70679   0.00000  Uiso   1.00
C420   C     0.46293   0.28155   0.46519   0.00000  Uiso   1.00
C421   C     0.52188   0.30526   0.39828   0.00000  Uiso   1.00
C422   C     0.49871   0.31196   0.35119   0.00000  Uiso   1.00
C423   C     0.49195   0.33180   0.25563   0.00000  Uiso   1.00
C424   C     0.45047   0.31395   0.56187   0.00000  Uiso   1.00
C425   C     0.49895   0.36491   0.57622   0.00000  Uiso   1.00
C426   C     0.46530   0.39890   0.61051   0.00000  Uiso   1.00
C427   C     0.43920   0.46904   0.66505   0.00000  Uiso   1.00
C428   C     0.32910   0.24017   0.56020   0.00000  Uiso   1.00
C429   C     0.33246   0.17856   0.59092   0.00000  Uiso   1.00
C430   C     0.26615   0.11243   0.63349   0.00000  Uiso   1.00
C431   C     0.28194   0.06324   0.65620   0.00000  Uiso   1.00
C432   C     0.38365   0.26513   0.48439   0.00000  Uiso   1.00
C433   C     0.36039   0.27181   0.43739   0.00000  Uiso   1.00
C434   C     0.41929   0.29551   0.37042   0.00000  Uiso   1.00
C435   C     0.37119   0.29753   0.58107   0.00000  Uiso   1.00
C436   C     0.33746   0.33146   0.61534   0.00000  Uiso   1.00
C437   C     0.38588   0.38245   0.62975   0.00000  Uiso   1.00
H438   H     0.53677   0.28318   0.50990   0.00000  Uiso   1.00
H439   H     0.48899   0.15860   0.57950   0.00000  Uiso   1.00
H440   H     0.58322   0.31796   0.38344   0.00000  Uiso   1.00
H441   H     0.56029   0.37760   0.56136   0.00000  Uiso   1.00
H442   H     0.40106   0.01324   0.66511   0.00000  Uiso   1.00
H443   H     0.59976   0.34928   0.25170   0.00000  Uiso   1.00
H444   H     0.55141   0.47504   0.62687   0.00000  Uiso   1.00
H445   H     0.26737   0.22739   0.57515   0.00000  Uiso   1.00
H446   H     0.20481   0.09974   0.64834   0.00000  Uiso   1.00
H447   H     0.29904   0.25910   0.45227   0.00000  Uiso   1.00
H448   H     0.27611   0.31874   0.63019   0.00000  Uiso   1.00
H449   H     0.17040   0.96546   0.72098   0.00000  Uiso   1.00
H450   H     0.36911   0.30150   0.30756   0.00000  Uiso   1.00
H451   H     0.32076   0.42726   0.68274   0.00000  Uiso   1.00
O452   O     0.24944   0.90638   0.73999   0.00000  Uiso   1.00
O453   O     0.51013   0.34727   0.19761   0.00000  Uiso   1.00
O454   O     0.44670   0.51226   0.68983   0.00000  Uiso   1.00
N455   N     0.35536   0.01951   0.66823   0.00000  Uiso   1.00
N456   N     0.54113   0.33368   0.28171   0.00000  Uiso   1.00
N457   N     0.49594   0.45127   0.63245   0.00000  Uiso   1.00
N458   N     0.23125   0.99380   0.69829   0.00000  Uiso   1.00
N459   N     0.41702   0.30797   0.31177   0.00000  Uiso   1.00
N460   N     0.37182   0.42556   0.66252   0.00000  Uiso   1.00
C461   C     0.01743   0.62066   0.97546   0.00000  Uiso   1.00
C462   C     0.98451   0.65747   0.01735   0.00000  Uiso   1.00
C463   C     0.02902   0.72558   0.01035   0.00000  Uiso   1.00
C464   C     0.98778   0.74960   0.05354   0.00000  Uiso   1.00
C465   C     0.94926   0.81323   0.11124   0.00000  Uiso   1.00
C466   C     0.99846   0.55622   0.02535   0.00000  Uiso   1.00
C467   C     0.05470   0.53920   0.02507   0.00000  Uiso   1.00
C468   C     0.02519   0.47798   0.07500   0.00000  Uiso   1.00
C469   C     0.00833   0.38439   0.14509   0.00000  Uiso   1.00
C470   C     0.96489   0.59453   0.94477   0.00000  Uiso   1.00
C471   C     0.99289   0.60969   0.87674   0.00000  Uiso   1.00
C472   C     0.93512   0.58071   0.85882   0.00000  Uiso   1.00
C473   C     0.86613   0.54659   0.80380   0.00000  Uiso   1.00
C474   C     0.86504   0.54221   0.06460   0.00000  Uiso   1.00
C475   C     0.90174   0.61486   0.06577   0.00000  Uiso   1.00
C476   C     0.86042   0.63879   0.10898   0.00000  Uiso   1.00
C477   C     0.90486   0.70692   0.10204   0.00000  Uiso   1.00
C478   C     0.91569   0.51361   0.07377   0.00000  Uiso   1.00
C479   C     0.88610   0.45240   0.12370   0.00000  Uiso   1.00
C480   C     0.94228   0.43529   0.12350   0.00000  Uiso   1.00
C481   C     0.88211   0.55192   0.99319   0.00000  Uiso   1.00
C482   C     0.82429   0.52290   0.97537   0.00000  Uiso   1.00
C483   C     0.85220   0.53802   0.90733   0.00000  Uiso   1.00
H484   H     0.08187   0.65383   0.93777   0.00000  Uiso   1.00
H485   H     0.09307   0.75854   0.97288   0.00000  Uiso   1.00
H486   H     0.11874   0.57218   0.98760   0.00000  Uiso   1.00
H487   H     0.05695   0.64267   0.83929   0.00000  Uiso   1.00
H488   H     0.06900   0.85582   0.03318   0.00000  Uiso   1.00
H489   H     0.12313   0.46287   0.06419   0.00000  Uiso   1.00
H490   H     0.99282   0.61150   0.75146   0.00000  Uiso   1.00
H491   H     0.80060   0.50904   0.10230   0.00000  Uiso   1.00
H492   H     0.79637   0.60580   0.14644   0.00000  Uiso   1.00
H493   H     0.82204   0.41944   0.16115   0.00000  Uiso   1.00
H494   H     0.76025   0.48993   0.01285   0.00000  Uiso   1.00
H495   H     0.82818   0.73185   0.17405   0.00000  Uiso   1.00
H496   H     0.88231   0.33889   0.20506   0.00000  Uiso   1.00
H497   H     0.75200   0.48753   0.89233   0.00000  Uiso   1.00
O498   O     0.95089   0.86009   0.12970   0.00000  Uiso   1.00
O499   O     0.02190   0.34455   0.17038   0.00000  Uiso   1.00
O500   O     0.85094   0.53955   0.76008   0.00000  Uiso   1.00
N501   N     0.01290   0.81337   0.06027   0.00000  Uiso   1.00
N502   N     0.06351   0.44598   0.08927   0.00000  Uiso   1.00
N503   N     0.94168   0.58493   0.79689   0.00000  Uiso   1.00
N504   N     0.88332   0.74666   0.13607   0.00000  Uiso   1.00
N505   N     0.93393   0.37928   0.16507   0.00000  Uiso   1.00
N506   N     0.81210   0.51822   0.87269   0.00000  Uiso   1.00
C507   C     0.10005   0.93644   0.27140   0.00000  Uiso   1.00
C508   C     0.12882   0.93878   0.19970   0.00000  Uiso   1.00
C509   C     0.17483   0.91145   0.16840   0.00000  Uiso   1.00
C510   C     0.19498   0.91893   0.10260   0.00000  Uiso   1.00
C511   C     0.24349   0.91749   0.99632   0.00000  Uiso   1.00
C512   C     0.13183   0.01150   0.26603   0.00000  Uiso   1.00
C513   C     0.18036   0.04529   0.29051   0.00000  Uiso   1.00
C514   C     0.20302   0.11398   0.28056   0.00000  Uiso   1.00
C515   C     0.25616   0.22541   0.27730   0.00000  Uiso   1.00
C516   C     0.00794   0.90145   0.30651   0.00000  Uiso   1.00
C517   C     0.95231   0.84273   0.36505   0.00000  Uiso   1.00
C518   C     0.87067   0.81878   0.38919   0.00000  Uiso   1.00
C519   C     0.73146   0.75936   0.44879   0.00000  Uiso   1.00
C520   C     0.05399   0.99834   0.21018   0.00000  Uiso   1.00
C521   C     0.10380   0.97241   0.16645   0.00000  Uiso   1.00
C522   C     0.12388   0.97993   0.10068   0.00000  Uiso   1.00
C523   C     0.16992   0.95261   0.06929   0.00000  Uiso   1.00
C524   C     0.10681   0.04512   0.23278   0.00000  Uiso   1.00
C525   C     0.12941   0.11378   0.22279   0.00000  Uiso   1.00
C526   C     0.17797   0.14766   0.24725   0.00000  Uiso   1.00
C527   C     0.98293   0.93507   0.27326   0.00000  Uiso   1.00
C528   C     0.90136   0.91122   0.29732   0.00000  Uiso   1.00
C529   C     0.84561   0.85247   0.35588   0.00000  Uiso   1.00
H530   H     0.11952   0.91026   0.29728   0.00000  Uiso   1.00
H531   H     0.19419   0.88544   0.19415   0.00000  Uiso   1.00
H532   H     0.19970   0.01926   0.31625   0.00000  Uiso   1.00
H533   H     0.97169   0.81673   0.39077   0.00000  Uiso   1.00
H534   H     0.26596   0.87276   0.06514   0.00000  Uiso   1.00
H535   H     0.27756   0.15492   0.32261   0.00000  Uiso   1.00
H536   H     0.79675   0.72785   0.47975   0.00000  Uiso   1.00
H537   H     0.03452   0.02452   0.18430   0.00000  Uiso   1.00
H538   H     0.10452   0.00596   0.07496   0.00000  Uiso   1.00
H539   H     0.11003   0.13978   0.19706   0.00000  Uiso   1.00
H540   H     0.88202   0.93725   0.27158   0.00000  Uiso   1.00
H541   H     0.19318   0.97058   0.96840   0.00000  Uiso   1.00
H542   H     0.20479   0.25274   0.22587   0.00000  Uiso   1.00
H543   H     0.72398   0.82567   0.38301   0.00000  Uiso   1.00
O544   O     0.27717   0.90742   0.94687   0.00000  Uiso   1.00
O545   O     0.29239   0.27759   0.28468   0.00000  Uiso   1.00
O546   O     0.66158   0.71729   0.49084   0.00000  Uiso   1.00
N547   N     0.23921   0.89832   0.05738   0.00000  Uiso   1.00
N548   N     0.25007   0.16212   0.29809   0.00000  Uiso   1.00
N549   N     0.80056   0.76286   0.44501   0.00000  Uiso   1.00
N550   N     0.20005   0.95095   0.00532   0.00000  Uiso   1.00
N551   N     0.21091   0.21476   0.24604   0.00000  Uiso   1.00
N552   N     0.76140   0.81549   0.39296   0.00000  Uiso   1.00
