data_job_00522
_audit_creation_date              2018-12-19
_audit_creation_method            'Materials Studio'
_symmetry_space_group_name_H-M    'P1'
_symmetry_Int_Tables_number       1
_symmetry_cell_setting            triclinic
loop_
_symmetry_equiv_pos_as_xyz
  x,y,z
_cell_length_a                    19.5395
_cell_length_b                    10.3526
_cell_length_c                    15.3040
_cell_angle_alpha                 90.0000
_cell_angle_beta                  71.3315
_cell_angle_gamma                 90.0000
loop_
_atom_site_label
_atom_site_type_symbol
_atom_site_fract_x
_atom_site_fract_y
_atom_site_fract_z
_atom_site_U_iso_or_equiv
_atom_site_adp_type
_atom_site_occupancy
C1     C     0.37203   0.74810   0.69419   0.00000  Uiso   1.00
C2     C     0.29801   0.69431   0.70018   0.00000  Uiso   1.00
C3     C     0.27407   0.56950   0.72597   0.00000  Uiso   1.00
C4     C     0.20458   0.53912   0.72711   0.00000  Uiso   1.00
C5     C     0.09634   0.44168   0.73998   0.00000  Uiso   1.00
C6     C     0.40494   0.79827   0.59594   0.00000  Uiso   1.00
C7     C     0.47092   0.76089   0.53409   0.00000  Uiso   1.00
C8     C     0.49145   0.81805   0.44748   0.00000  Uiso   1.00
C9     C     0.54925   0.88210   0.29854   0.00000  Uiso   1.00
C10    C     0.35774   0.86685   0.75640   0.00000  Uiso   1.00
C11    C     0.38404   0.88714   0.82946   0.00000  Uiso   1.00
C12    C     0.36484   0.00205   0.87793   0.00000  Uiso   1.00
C13    C     0.34935   0.17257   0.97813   0.00000  Uiso   1.00
C14    C     0.29120   0.91609   0.65034   0.00000  Uiso   1.00
C15    C     0.25411   0.78555   0.67636   0.00000  Uiso   1.00
C16    C     0.18464   0.75535   0.67746   0.00000  Uiso   1.00
C17    C     0.16060   0.63052   0.70325   0.00000  Uiso   1.00
C18    C     0.36105   0.88951   0.57212   0.00000  Uiso   1.00
C19    C     0.38149   0.94675   0.48557   0.00000  Uiso   1.00
C20    C     0.44747   0.90946   0.42361   0.00000  Uiso   1.00
C21    C     0.31384   0.95809   0.73258   0.00000  Uiso   1.00
C22    C     0.29460   0.07299   0.78094   0.00000  Uiso   1.00
C23    C     0.32086   0.09346   0.85406   0.00000  Uiso   1.00
H24    H     0.40621   0.67707   0.71273   0.00000  Uiso   1.00
H25    H     0.30806   0.49891   0.74439   0.00000  Uiso   1.00
H26    H     0.50488   0.69029   0.55255   0.00000  Uiso   1.00
H27    H     0.41801   0.81652   0.84787   0.00000  Uiso   1.00
H28    H     0.17989   0.34161   0.76896   0.00000  Uiso   1.00
H29    H     0.59491   0.74518   0.36445   0.00000  Uiso   1.00
H30    H     0.41173   0.01135   0.98719   0.00000  Uiso   1.00
H31    H     0.25702   0.98713   0.63179   0.00000  Uiso   1.00
H32    H     0.15068   0.82598   0.65902   0.00000  Uiso   1.00
H33    H     0.34750   0.01735   0.46717   0.00000  Uiso   1.00
H34    H     0.26063   0.14358   0.76249   0.00000  Uiso   1.00
H35    H     0.05216   0.60707   0.69966   0.00000  Uiso   1.00
H36    H     0.46718   0.01064   0.29515   0.00000  Uiso   1.00
H37    H     0.28399   0.27681   0.91789   0.00000  Uiso   1.00
O38    O     0.04877   0.36273   0.75365   0.00000  Uiso   1.00
O39    O     0.59326   0.89220   0.22296   0.00000  Uiso   1.00
O40    O     0.35293   0.24141   0.03998   0.00000  Uiso   1.00
N41    N     0.16442   0.42621   0.74893   0.00000  Uiso   1.00
N42    N     0.55243   0.80350   0.37074   0.00000  Uiso   1.00
N43    N     0.38118   0.05237   0.95293   0.00000  Uiso   1.00
N44    N     0.09569   0.56905   0.71164   0.00000  Uiso   1.00
N45    N     0.48369   0.94634   0.33345   0.00000  Uiso   1.00
N46    N     0.31245   0.19521   0.91564   0.00000  Uiso   1.00
C47    C     0.65533   0.24338   0.74948   0.00000  Uiso   1.00
C48    C     0.72829   0.30270   0.74268   0.00000  Uiso   1.00
C49    C     0.74939   0.42876   0.71675   0.00000  Uiso   1.00
C50    C     0.81836   0.46443   0.71483   0.00000  Uiso   1.00
C51    C     0.92461   0.56985   0.70079   0.00000  Uiso   1.00
C52    C     0.62411   0.19256   0.84780   0.00000  Uiso   1.00
C53    C     0.55762   0.22600   0.91025   0.00000  Uiso   1.00
C54    C     0.53889   0.16893   0.99681   0.00000  Uiso   1.00
C55    C     0.48339   0.10327   0.14595   0.00000  Uiso   1.00
C56    C     0.67179   0.12467   0.68722   0.00000  Uiso   1.00
C57    C     0.64537   0.10101   0.61467   0.00000  Uiso   1.00
C58    C     0.66676   0.98677   0.56606   0.00000  Uiso   1.00
C59    C     0.68528   0.81572   0.46588   0.00000  Uiso   1.00
C60    C     0.74026   0.08256   0.79217   0.00000  Uiso   1.00
C61    C     0.77442   0.21535   0.76587   0.00000  Uiso   1.00
C62    C     0.84337   0.25083   0.76399   0.00000  Uiso   1.00
C63    C     0.86458   0.37692   0.73806   0.00000  Uiso   1.00
C64    C     0.67024   0.10521   0.87099   0.00000  Uiso   1.00
C65    C     0.65160   0.04807   0.95748   0.00000  Uiso   1.00
C66    C     0.58510   0.08142   0.02005   0.00000  Uiso   1.00
C67    C     0.71792   0.03732   0.71041   0.00000  Uiso   1.00
C68    C     0.73935   0.92309   0.66191   0.00000  Uiso   1.00
C69    C     0.71298   0.89926   0.58929   0.00000  Uiso   1.00
H70    H     0.61940   0.31139   0.73143   0.00000  Uiso   1.00
H71    H     0.71367   0.49634   0.69882   0.00000  Uiso   1.00
H72    H     0.52193   0.29359   0.89228   0.00000  Uiso   1.00
H73    H     0.60967   0.16863   0.59675   0.00000  Uiso   1.00
H74    H     0.83852   0.66288   0.67292   0.00000  Uiso   1.00
H75    H     0.43421   0.23535   0.08083   0.00000  Uiso   1.00
H76    H     0.61922   0.97184   0.45765   0.00000  Uiso   1.00
H77    H     0.77618   0.01454   0.81023   0.00000  Uiso   1.00
H78    H     0.87906   0.18321   0.78193   0.00000  Uiso   1.00
H79    H     0.68731   0.98047   0.97540   0.00000  Uiso   1.00
H80    H     0.77505   0.85551   0.67987   0.00000  Uiso   1.00
H81    H     0.97275   0.40874   0.74039   0.00000  Uiso   1.00
H82    H     0.56844   0.98120   0.14830   0.00000  Uiso   1.00
H83    H     0.75345   0.71770   0.52512   0.00000  Uiso   1.00
O84    O     0.97047   0.65214   0.68666   0.00000  Uiso   1.00
O85    O     0.44003   0.09121   0.22181   0.00000  Uiso   1.00
O86    O     0.68276   0.74551   0.40421   0.00000  Uiso   1.00
N87    N     0.85600   0.57992   0.69267   0.00000  Uiso   1.00
N88    N     0.47800   0.18021   0.07404   0.00000  Uiso   1.00
N89    N     0.65095   0.93384   0.49144   0.00000  Uiso   1.00
N90    N     0.92823   0.44316   0.72897   0.00000  Uiso   1.00
N91    N     0.55023   0.04346   0.11034   0.00000  Uiso   1.00
N92    N     0.72318   0.79709   0.52774   0.00000  Uiso   1.00
C93    C     0.62797   0.24810   0.30581   0.00000  Uiso   1.00
C94    C     0.70199   0.19431   0.29982   0.00000  Uiso   1.00
C95    C     0.72593   0.06950   0.27403   0.00000  Uiso   1.00
C96    C     0.79542   0.03912   0.27289   0.00000  Uiso   1.00
C97    C     0.90366   0.94168   0.26002   0.00000  Uiso   1.00
C98    C     0.59506   0.29827   0.40406   0.00000  Uiso   1.00
C99    C     0.52908   0.26089   0.46591   0.00000  Uiso   1.00
C100   C     0.50855   0.31805   0.55252   0.00000  Uiso   1.00
C101   C     0.45075   0.38210   0.70146   0.00000  Uiso   1.00
C102   C     0.64226   0.36685   0.24360   0.00000  Uiso   1.00
C103   C     0.61596   0.38714   0.17054   0.00000  Uiso   1.00
C104   C     0.63516   0.50205   0.12207   0.00000  Uiso   1.00
C105   C     0.65065   0.67257   0.02187   0.00000  Uiso   1.00
C106   C     0.70880   0.41609   0.34966   0.00000  Uiso   1.00
C107   C     0.74589   0.28555   0.32364   0.00000  Uiso   1.00
C108   C     0.81536   0.25535   0.32254   0.00000  Uiso   1.00
C109   C     0.83940   0.13052   0.29675   0.00000  Uiso   1.00
C110   C     0.63895   0.38951   0.42788   0.00000  Uiso   1.00
C111   C     0.61851   0.44675   0.51443   0.00000  Uiso   1.00
C112   C     0.55253   0.40946   0.57639   0.00000  Uiso   1.00
C113   C     0.68616   0.45809   0.26742   0.00000  Uiso   1.00
C114   C     0.70540   0.57299   0.21906   0.00000  Uiso   1.00
C115   C     0.67914   0.59346   0.14594   0.00000  Uiso   1.00
H116   H     0.59379   0.17707   0.28727   0.00000  Uiso   1.00
H117   H     0.69194   0.99891   0.25561   0.00000  Uiso   1.00
H118   H     0.49512   0.19029   0.44745   0.00000  Uiso   1.00
H119   H     0.58199   0.31652   0.15213   0.00000  Uiso   1.00
H120   H     0.82011   0.84161   0.23104   0.00000  Uiso   1.00
H121   H     0.40509   0.24518   0.63555   0.00000  Uiso   1.00
H122   H     0.58827   0.51135   0.01281   0.00000  Uiso   1.00
H123   H     0.74298   0.48713   0.36821   0.00000  Uiso   1.00
H124   H     0.84932   0.32598   0.34098   0.00000  Uiso   1.00
H125   H     0.65250   0.51735   0.53283   0.00000  Uiso   1.00
H126   H     0.73937   0.64358   0.23751   0.00000  Uiso   1.00
H127   H     0.94784   0.10707   0.30034   0.00000  Uiso   1.00
H128   H     0.53282   0.51064   0.70485   0.00000  Uiso   1.00
H129   H     0.71601   0.77681   0.08211   0.00000  Uiso   1.00
O130   O     0.95123   0.86273   0.24635   0.00000  Uiso   1.00
O131   O     0.40674   0.39220   0.77704   0.00000  Uiso   1.00
O132   O     0.64707   0.74141   0.96002   0.00000  Uiso   1.00
N133   N     0.83558   0.92621   0.25107   0.00000  Uiso   1.00
N134   N     0.44757   0.30350   0.62926   0.00000  Uiso   1.00
N135   N     0.61882   0.55237   0.04707   0.00000  Uiso   1.00
N136   N     0.90431   0.06905   0.28836   0.00000  Uiso   1.00
N137   N     0.51631   0.44634   0.66655   0.00000  Uiso   1.00
N138   N     0.68755   0.69521   0.08436   0.00000  Uiso   1.00
C139   C     0.34467   0.74338   0.25052   0.00000  Uiso   1.00
C140   C     0.27171   0.80270   0.25732   0.00000  Uiso   1.00
C141   C     0.25061   0.92876   0.28325   0.00000  Uiso   1.00
C142   C     0.18164   0.96443   0.28517   0.00000  Uiso   1.00
C143   C     0.07539   0.06985   0.29921   0.00000  Uiso   1.00
C144   C     0.37589   0.69256   0.15220   0.00000  Uiso   1.00
C145   C     0.44238   0.72600   0.08975   0.00000  Uiso   1.00
C146   C     0.46111   0.66893   0.00319   0.00000  Uiso   1.00
C147   C     0.51661   0.60327   0.85405   0.00000  Uiso   1.00
C148   C     0.32821   0.62467   0.31278   0.00000  Uiso   1.00
C149   C     0.35463   0.60101   0.38533   0.00000  Uiso   1.00
C150   C     0.33324   0.48677   0.43394   0.00000  Uiso   1.00
C151   C     0.31472   0.31572   0.53412   0.00000  Uiso   1.00
C152   C     0.25974   0.58256   0.20783   0.00000  Uiso   1.00
C153   C     0.22558   0.71535   0.23413   0.00000  Uiso   1.00
C154   C     0.15663   0.75083   0.23601   0.00000  Uiso   1.00
C155   C     0.13542   0.87692   0.26194   0.00000  Uiso   1.00
C156   C     0.32976   0.60521   0.12901   0.00000  Uiso   1.00
C157   C     0.34840   0.54807   0.04252   0.00000  Uiso   1.00
C158   C     0.41490   0.58142   0.97995   0.00000  Uiso   1.00
C159   C     0.28208   0.53732   0.28959   0.00000  Uiso   1.00
C160   C     0.26065   0.42309   0.33809   0.00000  Uiso   1.00
C161   C     0.28702   0.39926   0.41071   0.00000  Uiso   1.00
H162   H     0.38060   0.81139   0.26857   0.00000  Uiso   1.00
H163   H     0.28633   0.99634   0.30118   0.00000  Uiso   1.00
H164   H     0.47807   0.79359   0.10772   0.00000  Uiso   1.00
H165   H     0.39033   0.66863   0.40325   0.00000  Uiso   1.00
H166   H     0.16148   0.16288   0.32708   0.00000  Uiso   1.00
H167   H     0.56579   0.73535   0.91917   0.00000  Uiso   1.00
H168   H     0.38078   0.47184   0.54235   0.00000  Uiso   1.00
H169   H     0.22382   0.51454   0.18977   0.00000  Uiso   1.00
H170   H     0.12094   0.68321   0.21807   0.00000  Uiso   1.00
H171   H     0.31269   0.48047   0.02460   0.00000  Uiso   1.00
H172   H     0.22495   0.35551   0.32013   0.00000  Uiso   1.00
H173   H     0.02725   0.90874   0.25961   0.00000  Uiso   1.00
H174   H     0.43156   0.48120   0.85170   0.00000  Uiso   1.00
H175   H     0.24655   0.21770   0.47488   0.00000  Uiso   1.00
O176   O     0.02953   0.15214   0.31334   0.00000  Uiso   1.00
O177   O     0.55997   0.59121   0.77819   0.00000  Uiso   1.00
O178   O     0.31724   0.24551   0.59579   0.00000  Uiso   1.00
N179   N     0.14400   0.07992   0.30733   0.00000  Uiso   1.00
N180   N     0.52200   0.68021   0.92596   0.00000  Uiso   1.00
N181   N     0.34905   0.43384   0.50856   0.00000  Uiso   1.00
N182   N     0.07177   0.94316   0.27103   0.00000  Uiso   1.00
N183   N     0.44977   0.54346   0.88966   0.00000  Uiso   1.00
N184   N     0.27682   0.29709   0.47226   0.00000  Uiso   1.00
