data_job_05435
_audit_creation_date              2018-12-19
_audit_creation_method            'Materials Studio'
_symmetry_space_group_name_H-M    'P1'
_symmetry_Int_Tables_number       1
_symmetry_cell_setting            triclinic
loop_
_symmetry_equiv_pos_as_xyz
  x,y,z
_cell_length_a                    19.9690
_cell_length_b                    21.5118
_cell_length_c                    18.5503
_cell_angle_alpha                 90.0000
_cell_angle_beta                  134.5265
_cell_angle_gamma                 90.0000
loop_
_atom_site_label
_atom_site_type_symbol
_atom_site_fract_x
_atom_site_fract_y
_atom_site_fract_z
_atom_site_U_iso_or_equiv
_atom_site_adp_type
_atom_site_occupancy
C1     C     0.85436   0.98364   0.05763   0.00000  Uiso   1.00
C2     C     0.83010   0.91723   0.01740   0.00000  Uiso   1.00
C3     C     0.88862   0.86597   0.06840   0.00000  Uiso   1.00
C4     C     0.85340   0.80921   0.01862   0.00000  Uiso   1.00
C5     C     0.82951   0.70690   0.97093   0.00000  Uiso   1.00
C6     C     0.84076   0.02325   0.97999   0.00000  Uiso   1.00
C7     C     0.90825   0.06113   0.99956   0.00000  Uiso   1.00
C8     C     0.88201   0.09362   0.91829   0.00000  Uiso   1.00
C9     C     0.87466   0.15594   0.81254   0.00000  Uiso   1.00
C10    C     0.77805   0.00382   0.05275   0.00000  Uiso   1.00
C11    C     0.79281   0.02539   0.13349   0.00000  Uiso   1.00
C12    C     0.71376   0.04153   0.11347   0.00000  Uiso   1.00
C13    C     0.60904   0.07368   0.12069   0.00000  Uiso   1.00
C14    C     0.68776   0.97398   0.87853   0.00000  Uiso   1.00
C15    C     0.73961   0.91198   0.92012   0.00000  Uiso   1.00
C16    C     0.70429   0.85528   0.87025   0.00000  Uiso   1.00
C17    C     0.76275   0.80395   0.92117   0.00000  Uiso   1.00
C18    C     0.75028   0.01800   0.88272   0.00000  Uiso   1.00
C19    C     0.72393   0.05044   0.80140   0.00000  Uiso   1.00
C20    C     0.79136   0.08836   0.82083   0.00000  Uiso   1.00
C21    C     0.68756   0.99857   0.95547   0.00000  Uiso   1.00
C22    C     0.60848   0.01469   0.93533   0.00000  Uiso   1.00
C23    C     0.62311   0.03627   0.01601   0.00000  Uiso   1.00
H24    H     0.92481   0.98773   0.13336   0.00000  Uiso   1.00
H25    H     0.95864   0.87005   0.14368   0.00000  Uiso   1.00
H26    H     0.97827   0.06519   0.07485   0.00000  Uiso   1.00
H27    H     0.86284   0.02944   0.20875   0.00000  Uiso   1.00
H28    H     0.95626   0.73728   0.11221   0.00000  Uiso   1.00
H29    H     0.99763   0.14875   0.96707   0.00000  Uiso   1.00
H30    H     0.75423   0.07337   0.24944   0.00000  Uiso   1.00
H31    H     0.61731   0.96989   0.80279   0.00000  Uiso   1.00
H32    H     0.63427   0.85123   0.79496   0.00000  Uiso   1.00
H33    H     0.65389   0.04637   0.72613   0.00000  Uiso   1.00
H34    H     0.53847   0.01062   0.86004   0.00000  Uiso   1.00
H35    H     0.69299   0.72201   0.82917   0.00000  Uiso   1.00
H36    H     0.73436   0.13348   0.68404   0.00000  Uiso   1.00
H37    H     0.49096   0.05810   0.96641   0.00000  Uiso   1.00
O38    O     0.84134   0.65191   0.97150   0.00000  Uiso   1.00
O39    O     0.89561   0.19176   0.78109   0.00000  Uiso   1.00
O40    O     0.57628   0.09285   0.15155   0.00000  Uiso   1.00
N41    N     0.89196   0.74997   0.04668   0.00000  Uiso   1.00
N42    N     0.93065   0.13466   0.91098   0.00000  Uiso   1.00
N43    N     0.70309   0.06420   0.17497   0.00000  Uiso   1.00
N44    N     0.75030   0.74175   0.89438   0.00000  Uiso   1.00
N45    N     0.78898   0.12644   0.75868   0.00000  Uiso   1.00
N46    N     0.56143   0.05598   0.02267   0.00000  Uiso   1.00
C47    C     0.35436   0.48364   0.05763   0.00000  Uiso   1.00
C48    C     0.33010   0.41723   0.01740   0.00000  Uiso   1.00
C49    C     0.38862   0.36597   0.06840   0.00000  Uiso   1.00
C50    C     0.35340   0.30921   0.01862   0.00000  Uiso   1.00
C51    C     0.32951   0.20690   0.97093   0.00000  Uiso   1.00
C52    C     0.34076   0.52325   0.97999   0.00000  Uiso   1.00
C53    C     0.40825   0.56113   0.99956   0.00000  Uiso   1.00
C54    C     0.38201   0.59362   0.91829   0.00000  Uiso   1.00
C55    C     0.37466   0.65594   0.81254   0.00000  Uiso   1.00
C56    C     0.27805   0.50382   0.05275   0.00000  Uiso   1.00
C57    C     0.29281   0.52539   0.13349   0.00000  Uiso   1.00
C58    C     0.21376   0.54153   0.11347   0.00000  Uiso   1.00
C59    C     0.10904   0.57368   0.12069   0.00000  Uiso   1.00
C60    C     0.18776   0.47398   0.87853   0.00000  Uiso   1.00
C61    C     0.23961   0.41198   0.92012   0.00000  Uiso   1.00
C62    C     0.20429   0.35528   0.87025   0.00000  Uiso   1.00
C63    C     0.26275   0.30395   0.92117   0.00000  Uiso   1.00
C64    C     0.25028   0.51800   0.88272   0.00000  Uiso   1.00
C65    C     0.22393   0.55044   0.80140   0.00000  Uiso   1.00
C66    C     0.29136   0.58836   0.82083   0.00000  Uiso   1.00
C67    C     0.18756   0.49857   0.95547   0.00000  Uiso   1.00
C68    C     0.10848   0.51469   0.93533   0.00000  Uiso   1.00
C69    C     0.12311   0.53627   0.01601   0.00000  Uiso   1.00
H70    H     0.42481   0.48773   0.13336   0.00000  Uiso   1.00
H71    H     0.45864   0.37005   0.14368   0.00000  Uiso   1.00
H72    H     0.47827   0.56519   0.07485   0.00000  Uiso   1.00
H73    H     0.36284   0.52944   0.20875   0.00000  Uiso   1.00
H74    H     0.45626   0.23728   0.11221   0.00000  Uiso   1.00
H75    H     0.49763   0.64875   0.96707   0.00000  Uiso   1.00
H76    H     0.25423   0.57337   0.24944   0.00000  Uiso   1.00
H77    H     0.11731   0.46989   0.80279   0.00000  Uiso   1.00
H78    H     0.13427   0.35123   0.79496   0.00000  Uiso   1.00
H79    H     0.15389   0.54637   0.72613   0.00000  Uiso   1.00
H80    H     0.03847   0.51062   0.86004   0.00000  Uiso   1.00
H81    H     0.19299   0.22201   0.82917   0.00000  Uiso   1.00
H82    H     0.23436   0.63348   0.68404   0.00000  Uiso   1.00
H83    H     0.99096   0.55810   0.96641   0.00000  Uiso   1.00
O84    O     0.34134   0.15191   0.97150   0.00000  Uiso   1.00
O85    O     0.39561   0.69176   0.78109   0.00000  Uiso   1.00
O86    O     0.07628   0.59285   0.15155   0.00000  Uiso   1.00
N87    N     0.39196   0.24997   0.04668   0.00000  Uiso   1.00
N88    N     0.43065   0.63466   0.91098   0.00000  Uiso   1.00
N89    N     0.20309   0.56420   0.17497   0.00000  Uiso   1.00
N90    N     0.25030   0.24175   0.89438   0.00000  Uiso   1.00
N91    N     0.28898   0.62644   0.75868   0.00000  Uiso   1.00
N92    N     0.06143   0.55598   0.02267   0.00000  Uiso   1.00
C93    C     0.14564   0.98364   0.44237   0.00000  Uiso   1.00
C94    C     0.16990   0.91723   0.48260   0.00000  Uiso   1.00
C95    C     0.11138   0.86597   0.43160   0.00000  Uiso   1.00
C96    C     0.14660   0.80921   0.48138   0.00000  Uiso   1.00
C97    C     0.17049   0.70690   0.52907   0.00000  Uiso   1.00
C98    C     0.15924   0.02325   0.52001   0.00000  Uiso   1.00
C99    C     0.09175   0.06113   0.50044   0.00000  Uiso   1.00
C100   C     0.11799   0.09362   0.58171   0.00000  Uiso   1.00
C101   C     0.12534   0.15594   0.68746   0.00000  Uiso   1.00
C102   C     0.22195   0.00382   0.44725   0.00000  Uiso   1.00
C103   C     0.20719   0.02539   0.36651   0.00000  Uiso   1.00
C104   C     0.28624   0.04153   0.38653   0.00000  Uiso   1.00
C105   C     0.39096   0.07368   0.37931   0.00000  Uiso   1.00
C106   C     0.31224   0.97398   0.62147   0.00000  Uiso   1.00
C107   C     0.26039   0.91198   0.57988   0.00000  Uiso   1.00
C108   C     0.29571   0.85528   0.62975   0.00000  Uiso   1.00
C109   C     0.23725   0.80395   0.57883   0.00000  Uiso   1.00
C110   C     0.24972   0.01800   0.61728   0.00000  Uiso   1.00
C111   C     0.27607   0.05044   0.69860   0.00000  Uiso   1.00
C112   C     0.20864   0.08836   0.67917   0.00000  Uiso   1.00
C113   C     0.31244   0.99857   0.54453   0.00000  Uiso   1.00
C114   C     0.39152   0.01469   0.56467   0.00000  Uiso   1.00
C115   C     0.37689   0.03627   0.48399   0.00000  Uiso   1.00
H116   H     0.07519   0.98773   0.36664   0.00000  Uiso   1.00
H117   H     0.04136   0.87005   0.35632   0.00000  Uiso   1.00
H118   H     0.02173   0.06519   0.42515   0.00000  Uiso   1.00
H119   H     0.13716   0.02944   0.29125   0.00000  Uiso   1.00
H120   H     0.04374   0.73728   0.38779   0.00000  Uiso   1.00
H121   H     0.00237   0.14875   0.53293   0.00000  Uiso   1.00
H122   H     0.24577   0.07337   0.25056   0.00000  Uiso   1.00
H123   H     0.38269   0.96989   0.69721   0.00000  Uiso   1.00
H124   H     0.36573   0.85123   0.70504   0.00000  Uiso   1.00
H125   H     0.34611   0.04637   0.77387   0.00000  Uiso   1.00
H126   H     0.46153   0.01062   0.63996   0.00000  Uiso   1.00
H127   H     0.30701   0.72201   0.67083   0.00000  Uiso   1.00
H128   H     0.26564   0.13348   0.81596   0.00000  Uiso   1.00
H129   H     0.50904   0.05810   0.53359   0.00000  Uiso   1.00
O130   O     0.15866   0.65191   0.52850   0.00000  Uiso   1.00
O131   O     0.10439   0.19176   0.71891   0.00000  Uiso   1.00
O132   O     0.42372   0.09285   0.34845   0.00000  Uiso   1.00
N133   N     0.10804   0.74997   0.45332   0.00000  Uiso   1.00
N134   N     0.06935   0.13466   0.58902   0.00000  Uiso   1.00
N135   N     0.29691   0.06420   0.32503   0.00000  Uiso   1.00
N136   N     0.24970   0.74175   0.60562   0.00000  Uiso   1.00
N137   N     0.21102   0.12644   0.74132   0.00000  Uiso   1.00
N138   N     0.43857   0.05598   0.47733   0.00000  Uiso   1.00
C139   C     0.64564   0.48364   0.44237   0.00000  Uiso   1.00
C140   C     0.66990   0.41723   0.48260   0.00000  Uiso   1.00
C141   C     0.61138   0.36597   0.43160   0.00000  Uiso   1.00
C142   C     0.64660   0.30921   0.48138   0.00000  Uiso   1.00
C143   C     0.67049   0.20690   0.52907   0.00000  Uiso   1.00
C144   C     0.65924   0.52325   0.52001   0.00000  Uiso   1.00
C145   C     0.59175   0.56113   0.50044   0.00000  Uiso   1.00
C146   C     0.61799   0.59362   0.58171   0.00000  Uiso   1.00
C147   C     0.62534   0.65594   0.68746   0.00000  Uiso   1.00
C148   C     0.72195   0.50382   0.44725   0.00000  Uiso   1.00
C149   C     0.70719   0.52539   0.36651   0.00000  Uiso   1.00
C150   C     0.78624   0.54153   0.38653   0.00000  Uiso   1.00
C151   C     0.89096   0.57368   0.37931   0.00000  Uiso   1.00
C152   C     0.81224   0.47398   0.62147   0.00000  Uiso   1.00
C153   C     0.76039   0.41198   0.57988   0.00000  Uiso   1.00
C154   C     0.79571   0.35528   0.62975   0.00000  Uiso   1.00
C155   C     0.73725   0.30395   0.57883   0.00000  Uiso   1.00
C156   C     0.74972   0.51800   0.61728   0.00000  Uiso   1.00
C157   C     0.77607   0.55044   0.69860   0.00000  Uiso   1.00
C158   C     0.70864   0.58836   0.67917   0.00000  Uiso   1.00
C159   C     0.81244   0.49857   0.54453   0.00000  Uiso   1.00
C160   C     0.89152   0.51469   0.56467   0.00000  Uiso   1.00
C161   C     0.87689   0.53627   0.48399   0.00000  Uiso   1.00
H162   H     0.57519   0.48773   0.36664   0.00000  Uiso   1.00
H163   H     0.54136   0.37005   0.35632   0.00000  Uiso   1.00
H164   H     0.52173   0.56519   0.42515   0.00000  Uiso   1.00
H165   H     0.63716   0.52944   0.29125   0.00000  Uiso   1.00
H166   H     0.54374   0.23728   0.38779   0.00000  Uiso   1.00
H167   H     0.50237   0.64875   0.53293   0.00000  Uiso   1.00
H168   H     0.74577   0.57337   0.25056   0.00000  Uiso   1.00
H169   H     0.88269   0.46989   0.69721   0.00000  Uiso   1.00
H170   H     0.86573   0.35123   0.70504   0.00000  Uiso   1.00
H171   H     0.84611   0.54637   0.77387   0.00000  Uiso   1.00
H172   H     0.96153   0.51062   0.63996   0.00000  Uiso   1.00
H173   H     0.80701   0.22201   0.67083   0.00000  Uiso   1.00
H174   H     0.76564   0.63348   0.81596   0.00000  Uiso   1.00
H175   H     0.00904   0.55810   0.53359   0.00000  Uiso   1.00
O176   O     0.65866   0.15191   0.52850   0.00000  Uiso   1.00
O177   O     0.60439   0.69176   0.71891   0.00000  Uiso   1.00
O178   O     0.92372   0.59285   0.34845   0.00000  Uiso   1.00
N179   N     0.60804   0.24997   0.45332   0.00000  Uiso   1.00
N180   N     0.56935   0.63466   0.58902   0.00000  Uiso   1.00
N181   N     0.79691   0.56420   0.32503   0.00000  Uiso   1.00
N182   N     0.74970   0.24175   0.60562   0.00000  Uiso   1.00
N183   N     0.71102   0.62644   0.74132   0.00000  Uiso   1.00
N184   N     0.93857   0.55598   0.47733   0.00000  Uiso   1.00
C185   C     0.14564   0.01636   0.94237   0.00000  Uiso   1.00
C186   C     0.16990   0.08277   0.98260   0.00000  Uiso   1.00
C187   C     0.11138   0.13403   0.93160   0.00000  Uiso   1.00
C188   C     0.14660   0.19079   0.98138   0.00000  Uiso   1.00
C189   C     0.17049   0.29310   0.02907   0.00000  Uiso   1.00
C190   C     0.15924   0.97675   0.02001   0.00000  Uiso   1.00
C191   C     0.09175   0.93887   0.00044   0.00000  Uiso   1.00
C192   C     0.11799   0.90638   0.08171   0.00000  Uiso   1.00
C193   C     0.12534   0.84406   0.18746   0.00000  Uiso   1.00
C194   C     0.22195   0.99618   0.94725   0.00000  Uiso   1.00
C195   C     0.20719   0.97461   0.86651   0.00000  Uiso   1.00
C196   C     0.28624   0.95847   0.88653   0.00000  Uiso   1.00
C197   C     0.39096   0.92632   0.87931   0.00000  Uiso   1.00
C198   C     0.31224   0.02602   0.12147   0.00000  Uiso   1.00
C199   C     0.26039   0.08802   0.07988   0.00000  Uiso   1.00
C200   C     0.29571   0.14472   0.12975   0.00000  Uiso   1.00
C201   C     0.23725   0.19605   0.07883   0.00000  Uiso   1.00
C202   C     0.24972   0.98200   0.11728   0.00000  Uiso   1.00
C203   C     0.27607   0.94956   0.19860   0.00000  Uiso   1.00
C204   C     0.20864   0.91164   0.17917   0.00000  Uiso   1.00
C205   C     0.31244   0.00143   0.04453   0.00000  Uiso   1.00
C206   C     0.39152   0.98531   0.06467   0.00000  Uiso   1.00
C207   C     0.37689   0.96373   0.98399   0.00000  Uiso   1.00
H208   H     0.07519   0.01227   0.86664   0.00000  Uiso   1.00
H209   H     0.04136   0.12995   0.85632   0.00000  Uiso   1.00
H210   H     0.02173   0.93481   0.92515   0.00000  Uiso   1.00
H211   H     0.13716   0.97056   0.79125   0.00000  Uiso   1.00
H212   H     0.04374   0.26272   0.88779   0.00000  Uiso   1.00
H213   H     0.00237   0.85125   0.03293   0.00000  Uiso   1.00
H214   H     0.24577   0.92663   0.75056   0.00000  Uiso   1.00
H215   H     0.38269   0.03011   0.19721   0.00000  Uiso   1.00
H216   H     0.36573   0.14877   0.20504   0.00000  Uiso   1.00
H217   H     0.34611   0.95363   0.27387   0.00000  Uiso   1.00
H218   H     0.46153   0.98938   0.13996   0.00000  Uiso   1.00
H219   H     0.30701   0.27799   0.17083   0.00000  Uiso   1.00
H220   H     0.26564   0.86652   0.31596   0.00000  Uiso   1.00
H221   H     0.50904   0.94190   0.03359   0.00000  Uiso   1.00
O222   O     0.15866   0.34809   0.02850   0.00000  Uiso   1.00
O223   O     0.10439   0.80824   0.21891   0.00000  Uiso   1.00
O224   O     0.42372   0.90715   0.84845   0.00000  Uiso   1.00
N225   N     0.10804   0.25003   0.95332   0.00000  Uiso   1.00
N226   N     0.06935   0.86534   0.08902   0.00000  Uiso   1.00
N227   N     0.29691   0.93580   0.82503   0.00000  Uiso   1.00
N228   N     0.24970   0.25825   0.10562   0.00000  Uiso   1.00
N229   N     0.21102   0.87356   0.24132   0.00000  Uiso   1.00
N230   N     0.43857   0.94402   0.97733   0.00000  Uiso   1.00
C231   C     0.64564   0.51636   0.94237   0.00000  Uiso   1.00
C232   C     0.66990   0.58277   0.98260   0.00000  Uiso   1.00
C233   C     0.61138   0.63403   0.93160   0.00000  Uiso   1.00
C234   C     0.64660   0.69079   0.98138   0.00000  Uiso   1.00
C235   C     0.67049   0.79310   0.02907   0.00000  Uiso   1.00
C236   C     0.65924   0.47675   0.02001   0.00000  Uiso   1.00
C237   C     0.59175   0.43887   0.00044   0.00000  Uiso   1.00
C238   C     0.61799   0.40638   0.08171   0.00000  Uiso   1.00
C239   C     0.62534   0.34406   0.18746   0.00000  Uiso   1.00
C240   C     0.72195   0.49618   0.94725   0.00000  Uiso   1.00
C241   C     0.70719   0.47461   0.86651   0.00000  Uiso   1.00
C242   C     0.78624   0.45847   0.88653   0.00000  Uiso   1.00
C243   C     0.89096   0.42632   0.87931   0.00000  Uiso   1.00
C244   C     0.81224   0.52602   0.12147   0.00000  Uiso   1.00
C245   C     0.76039   0.58802   0.07988   0.00000  Uiso   1.00
C246   C     0.79571   0.64472   0.12975   0.00000  Uiso   1.00
C247   C     0.73725   0.69605   0.07883   0.00000  Uiso   1.00
C248   C     0.74972   0.48200   0.11728   0.00000  Uiso   1.00
C249   C     0.77607   0.44956   0.19860   0.00000  Uiso   1.00
C250   C     0.70864   0.41164   0.17917   0.00000  Uiso   1.00
C251   C     0.81244   0.50143   0.04453   0.00000  Uiso   1.00
C252   C     0.89152   0.48531   0.06467   0.00000  Uiso   1.00
C253   C     0.87689   0.46373   0.98399   0.00000  Uiso   1.00
H254   H     0.57519   0.51227   0.86664   0.00000  Uiso   1.00
H255   H     0.54136   0.62995   0.85632   0.00000  Uiso   1.00
H256   H     0.52173   0.43481   0.92515   0.00000  Uiso   1.00
H257   H     0.63716   0.47056   0.79125   0.00000  Uiso   1.00
H258   H     0.54374   0.76272   0.88779   0.00000  Uiso   1.00
H259   H     0.50237   0.35125   0.03293   0.00000  Uiso   1.00
H260   H     0.74577   0.42663   0.75056   0.00000  Uiso   1.00
H261   H     0.88269   0.53011   0.19721   0.00000  Uiso   1.00
H262   H     0.86573   0.64877   0.20504   0.00000  Uiso   1.00
H263   H     0.84611   0.45363   0.27387   0.00000  Uiso   1.00
H264   H     0.96153   0.48938   0.13996   0.00000  Uiso   1.00
H265   H     0.80701   0.77799   0.17083   0.00000  Uiso   1.00
H266   H     0.76564   0.36652   0.31596   0.00000  Uiso   1.00
H267   H     0.00904   0.44190   0.03359   0.00000  Uiso   1.00
O268   O     0.65866   0.84809   0.02850   0.00000  Uiso   1.00
O269   O     0.60439   0.30824   0.21891   0.00000  Uiso   1.00
O270   O     0.92372   0.40715   0.84845   0.00000  Uiso   1.00
N271   N     0.60804   0.75003   0.95332   0.00000  Uiso   1.00
N272   N     0.56935   0.36534   0.08902   0.00000  Uiso   1.00
N273   N     0.79691   0.43580   0.82503   0.00000  Uiso   1.00
N274   N     0.74970   0.75825   0.10562   0.00000  Uiso   1.00
N275   N     0.71102   0.37356   0.24132   0.00000  Uiso   1.00
N276   N     0.93857   0.44402   0.97733   0.00000  Uiso   1.00
C277   C     0.85436   0.01636   0.55763   0.00000  Uiso   1.00
C278   C     0.83010   0.08277   0.51740   0.00000  Uiso   1.00
C279   C     0.88862   0.13403   0.56840   0.00000  Uiso   1.00
C280   C     0.85340   0.19079   0.51862   0.00000  Uiso   1.00
C281   C     0.82951   0.29310   0.47093   0.00000  Uiso   1.00
C282   C     0.84076   0.97675   0.47999   0.00000  Uiso   1.00
C283   C     0.90825   0.93887   0.49956   0.00000  Uiso   1.00
C284   C     0.88201   0.90638   0.41829   0.00000  Uiso   1.00
C285   C     0.87466   0.84406   0.31254   0.00000  Uiso   1.00
C286   C     0.77805   0.99618   0.55275   0.00000  Uiso   1.00
C287   C     0.79281   0.97461   0.63349   0.00000  Uiso   1.00
C288   C     0.71376   0.95847   0.61347   0.00000  Uiso   1.00
C289   C     0.60904   0.92632   0.62069   0.00000  Uiso   1.00
C290   C     0.68776   0.02602   0.37853   0.00000  Uiso   1.00
C291   C     0.73961   0.08802   0.42012   0.00000  Uiso   1.00
C292   C     0.70429   0.14472   0.37025   0.00000  Uiso   1.00
C293   C     0.76275   0.19605   0.42117   0.00000  Uiso   1.00
C294   C     0.75028   0.98200   0.38272   0.00000  Uiso   1.00
C295   C     0.72393   0.94956   0.30140   0.00000  Uiso   1.00
C296   C     0.79136   0.91164   0.32083   0.00000  Uiso   1.00
C297   C     0.68756   0.00143   0.45547   0.00000  Uiso   1.00
C298   C     0.60848   0.98531   0.43533   0.00000  Uiso   1.00
C299   C     0.62311   0.96373   0.51601   0.00000  Uiso   1.00
H300   H     0.92481   0.01227   0.63336   0.00000  Uiso   1.00
H301   H     0.95864   0.12995   0.64368   0.00000  Uiso   1.00
H302   H     0.97827   0.93481   0.57485   0.00000  Uiso   1.00
H303   H     0.86284   0.97056   0.70875   0.00000  Uiso   1.00
H304   H     0.95626   0.26272   0.61221   0.00000  Uiso   1.00
H305   H     0.99763   0.85125   0.46707   0.00000  Uiso   1.00
H306   H     0.75423   0.92663   0.74944   0.00000  Uiso   1.00
H307   H     0.61731   0.03011   0.30279   0.00000  Uiso   1.00
H308   H     0.63427   0.14877   0.29496   0.00000  Uiso   1.00
H309   H     0.65389   0.95363   0.22613   0.00000  Uiso   1.00
H310   H     0.53847   0.98938   0.36004   0.00000  Uiso   1.00
H311   H     0.69299   0.27799   0.32917   0.00000  Uiso   1.00
H312   H     0.73436   0.86652   0.18404   0.00000  Uiso   1.00
H313   H     0.49096   0.94190   0.46641   0.00000  Uiso   1.00
O314   O     0.84134   0.34809   0.47150   0.00000  Uiso   1.00
O315   O     0.89561   0.80824   0.28109   0.00000  Uiso   1.00
O316   O     0.57628   0.90715   0.65155   0.00000  Uiso   1.00
N317   N     0.89196   0.25003   0.54668   0.00000  Uiso   1.00
N318   N     0.93065   0.86534   0.41098   0.00000  Uiso   1.00
N319   N     0.70309   0.93580   0.67497   0.00000  Uiso   1.00
N320   N     0.75030   0.25825   0.39438   0.00000  Uiso   1.00
N321   N     0.78898   0.87356   0.25868   0.00000  Uiso   1.00
N322   N     0.56143   0.94402   0.52267   0.00000  Uiso   1.00
C323   C     0.35436   0.51636   0.55763   0.00000  Uiso   1.00
C324   C     0.33010   0.58277   0.51740   0.00000  Uiso   1.00
C325   C     0.38862   0.63403   0.56840   0.00000  Uiso   1.00
C326   C     0.35340   0.69079   0.51862   0.00000  Uiso   1.00
C327   C     0.32951   0.79310   0.47093   0.00000  Uiso   1.00
C328   C     0.34076   0.47675   0.47999   0.00000  Uiso   1.00
C329   C     0.40825   0.43887   0.49956   0.00000  Uiso   1.00
C330   C     0.38201   0.40638   0.41829   0.00000  Uiso   1.00
C331   C     0.37466   0.34406   0.31254   0.00000  Uiso   1.00
C332   C     0.27805   0.49618   0.55275   0.00000  Uiso   1.00
C333   C     0.29281   0.47461   0.63349   0.00000  Uiso   1.00
C334   C     0.21376   0.45847   0.61347   0.00000  Uiso   1.00
C335   C     0.10904   0.42632   0.62069   0.00000  Uiso   1.00
C336   C     0.18776   0.52602   0.37853   0.00000  Uiso   1.00
C337   C     0.23961   0.58802   0.42012   0.00000  Uiso   1.00
C338   C     0.20429   0.64472   0.37025   0.00000  Uiso   1.00
C339   C     0.26275   0.69605   0.42117   0.00000  Uiso   1.00
C340   C     0.25028   0.48200   0.38272   0.00000  Uiso   1.00
C341   C     0.22393   0.44956   0.30140   0.00000  Uiso   1.00
C342   C     0.29136   0.41164   0.32083   0.00000  Uiso   1.00
C343   C     0.18756   0.50143   0.45547   0.00000  Uiso   1.00
C344   C     0.10848   0.48531   0.43533   0.00000  Uiso   1.00
C345   C     0.12311   0.46373   0.51601   0.00000  Uiso   1.00
H346   H     0.42481   0.51227   0.63336   0.00000  Uiso   1.00
H347   H     0.45864   0.62995   0.64368   0.00000  Uiso   1.00
H348   H     0.47827   0.43481   0.57485   0.00000  Uiso   1.00
H349   H     0.36284   0.47056   0.70875   0.00000  Uiso   1.00
H350   H     0.45626   0.76272   0.61221   0.00000  Uiso   1.00
H351   H     0.49763   0.35125   0.46707   0.00000  Uiso   1.00
H352   H     0.25423   0.42663   0.74944   0.00000  Uiso   1.00
H353   H     0.11731   0.53011   0.30279   0.00000  Uiso   1.00
H354   H     0.13427   0.64877   0.29496   0.00000  Uiso   1.00
H355   H     0.15389   0.45363   0.22613   0.00000  Uiso   1.00
H356   H     0.03847   0.48938   0.36004   0.00000  Uiso   1.00
H357   H     0.19299   0.77799   0.32917   0.00000  Uiso   1.00
H358   H     0.23436   0.36652   0.18404   0.00000  Uiso   1.00
H359   H     0.99096   0.44190   0.46641   0.00000  Uiso   1.00
O360   O     0.34134   0.84809   0.47150   0.00000  Uiso   1.00
O361   O     0.39561   0.30824   0.28109   0.00000  Uiso   1.00
O362   O     0.07628   0.40715   0.65155   0.00000  Uiso   1.00
N363   N     0.39196   0.75003   0.54668   0.00000  Uiso   1.00
N364   N     0.43065   0.36534   0.41098   0.00000  Uiso   1.00
N365   N     0.20309   0.43580   0.67497   0.00000  Uiso   1.00
N366   N     0.25030   0.75825   0.39438   0.00000  Uiso   1.00
N367   N     0.28898   0.37356   0.25868   0.00000  Uiso   1.00
N368   N     0.06143   0.44402   0.52267   0.00000  Uiso   1.00
