data_job_01398
_audit_creation_date              2018-12-19
_audit_creation_method            'Materials Studio'
_symmetry_space_group_name_H-M    'P1'
_symmetry_Int_Tables_number       1
_symmetry_cell_setting            triclinic
loop_
_symmetry_equiv_pos_as_xyz
  x,y,z
_cell_length_a                    13.8045
_cell_length_b                    17.3904
_cell_length_c                    13.2645
_cell_angle_alpha                 90.0000
_cell_angle_beta                  121.4685
_cell_angle_gamma                 90.0000
loop_
_atom_site_label
_atom_site_type_symbol
_atom_site_fract_x
_atom_site_fract_y
_atom_site_fract_z
_atom_site_U_iso_or_equiv
_atom_site_adp_type
_atom_site_occupancy
C1     C     0.60881   0.16584   0.61976   0.00000  Uiso   1.00
C2     C     0.53271   0.18248   0.66886   0.00000  Uiso   1.00
C3     C     0.42010   0.16021   0.61772   0.00000  Uiso   1.00
C4     C     0.36514   0.18102   0.67636   0.00000  Uiso   1.00
C5     C     0.23848   0.20056   0.73644   0.00000  Uiso   1.00
C6     C     0.65172   0.24374   0.60654   0.00000  Uiso   1.00
C7     C     0.63918   0.27298   0.50301   0.00000  Uiso   1.00
C8     C     0.68442   0.34537   0.50920   0.00000  Uiso   1.00
C9     C     0.74260   0.45999   0.47255   0.00000  Uiso   1.00
C10    C     0.71235   0.12378   0.71757   0.00000  Uiso   1.00
C11    C     0.75080   0.05216   0.70740   0.00000  Uiso   1.00
C12    C     0.84711   0.02355   0.80707   0.00000  Uiso   1.00
C13    C     0.99942   0.95191   0.94282   0.00000  Uiso   1.00
C14    C     0.71148   0.24239   0.81484   0.00000  Uiso   1.00
C15    C     0.58848   0.22406   0.77481   0.00000  Uiso   1.00
C16    C     0.53369   0.24490   0.83355   0.00000  Uiso   1.00
C17    C     0.42101   0.22267   0.78252   0.00000  Uiso   1.00
C18    C     0.70749   0.28532   0.71249   0.00000  Uiso   1.00
C19    C     0.75277   0.35767   0.71884   0.00000  Uiso   1.00
C20    C     0.74029   0.38702   0.61535   0.00000  Uiso   1.00
C21    C     0.76811   0.16535   0.82353   0.00000  Uiso   1.00
C22    C     0.86439   0.13685   0.92323   0.00000  Uiso   1.00
C23    C     0.90298   0.06520   0.91322   0.00000  Uiso   1.00
H24    H     0.56539   0.13348   0.53727   0.00000  Uiso   1.00
H25    H     0.37696   0.12804   0.53571   0.00000  Uiso   1.00
H26    H     0.59603   0.24079   0.42103   0.00000  Uiso   1.00
H27    H     0.70762   0.02000   0.62539   0.00000  Uiso   1.00
H28    H     0.19264   0.14038   0.58070   0.00000  Uiso   1.00
H29    H     0.65457   0.37810   0.33888   0.00000  Uiso   1.00
H30    H     0.88990   0.91252   0.76982   0.00000  Uiso   1.00
H31    H     0.75490   0.27476   0.89734   0.00000  Uiso   1.00
H32    H     0.57686   0.27708   0.91555   0.00000  Uiso   1.00
H33    H     0.79593   0.38983   0.80086   0.00000  Uiso   1.00
H34    H     0.90752   0.16904   0.00522   0.00000  Uiso   1.00
H35    H     0.35488   0.26134   0.88898   0.00000  Uiso   1.00
H36    H     0.81682   0.49907   0.64716   0.00000  Uiso   1.00
H37    H     0.05215   0.03349   0.07810   0.00000  Uiso   1.00
O38    O     0.15321   0.19985   0.74030   0.00000  Uiso   1.00
O39    O     0.75928   0.51174   0.42305   0.00000  Uiso   1.00
O40    O     0.06801   0.90091   0.98843   0.00000  Uiso   1.00
N41    N     0.25526   0.16851   0.65077   0.00000  Uiso   1.00
N42    N     0.68713   0.39078   0.42468   0.00000  Uiso   1.00
N43    N     0.90716   0.95551   0.82756   0.00000  Uiso   1.00
N44    N     0.34256   0.23360   0.81665   0.00000  Uiso   1.00
N45    N     0.77443   0.45587   0.59056   0.00000  Uiso   1.00
N46    N     0.99446   0.02060   0.99344   0.00000  Uiso   1.00
C47    C     0.10881   0.66584   0.61976   0.00000  Uiso   1.00
C48    C     0.03271   0.68248   0.66886   0.00000  Uiso   1.00
C49    C     0.92010   0.66021   0.61772   0.00000  Uiso   1.00
C50    C     0.86514   0.68102   0.67636   0.00000  Uiso   1.00
C51    C     0.73848   0.70056   0.73644   0.00000  Uiso   1.00
C52    C     0.15172   0.74374   0.60654   0.00000  Uiso   1.00
C53    C     0.13918   0.77298   0.50301   0.00000  Uiso   1.00
C54    C     0.18442   0.84537   0.50920   0.00000  Uiso   1.00
C55    C     0.24260   0.95999   0.47255   0.00000  Uiso   1.00
C56    C     0.21235   0.62378   0.71757   0.00000  Uiso   1.00
C57    C     0.25080   0.55216   0.70740   0.00000  Uiso   1.00
C58    C     0.34711   0.52355   0.80707   0.00000  Uiso   1.00
C59    C     0.49942   0.45191   0.94282   0.00000  Uiso   1.00
C60    C     0.21148   0.74239   0.81484   0.00000  Uiso   1.00
C61    C     0.08848   0.72406   0.77481   0.00000  Uiso   1.00
C62    C     0.03369   0.74490   0.83355   0.00000  Uiso   1.00
C63    C     0.92101   0.72267   0.78252   0.00000  Uiso   1.00
C64    C     0.20749   0.78532   0.71249   0.00000  Uiso   1.00
C65    C     0.25277   0.85767   0.71884   0.00000  Uiso   1.00
C66    C     0.24029   0.88702   0.61535   0.00000  Uiso   1.00
C67    C     0.26811   0.66535   0.82353   0.00000  Uiso   1.00
C68    C     0.36439   0.63685   0.92323   0.00000  Uiso   1.00
C69    C     0.40298   0.56520   0.91322   0.00000  Uiso   1.00
H70    H     0.06539   0.63348   0.53727   0.00000  Uiso   1.00
H71    H     0.87696   0.62804   0.53571   0.00000  Uiso   1.00
H72    H     0.09603   0.74079   0.42103   0.00000  Uiso   1.00
H73    H     0.20762   0.52000   0.62539   0.00000  Uiso   1.00
H74    H     0.69264   0.64038   0.58070   0.00000  Uiso   1.00
H75    H     0.15457   0.87810   0.33888   0.00000  Uiso   1.00
H76    H     0.38990   0.41252   0.76982   0.00000  Uiso   1.00
H77    H     0.25490   0.77476   0.89734   0.00000  Uiso   1.00
H78    H     0.07686   0.77708   0.91555   0.00000  Uiso   1.00
H79    H     0.29593   0.88983   0.80086   0.00000  Uiso   1.00
H80    H     0.40752   0.66904   0.00522   0.00000  Uiso   1.00
H81    H     0.85488   0.76134   0.88898   0.00000  Uiso   1.00
H82    H     0.31682   0.99907   0.64716   0.00000  Uiso   1.00
H83    H     0.55215   0.53349   0.07810   0.00000  Uiso   1.00
O84    O     0.65321   0.69985   0.74030   0.00000  Uiso   1.00
O85    O     0.25928   0.01174   0.42305   0.00000  Uiso   1.00
O86    O     0.56801   0.40091   0.98843   0.00000  Uiso   1.00
N87    N     0.75526   0.66851   0.65077   0.00000  Uiso   1.00
N88    N     0.18713   0.89078   0.42468   0.00000  Uiso   1.00
N89    N     0.40716   0.45551   0.82756   0.00000  Uiso   1.00
N90    N     0.84256   0.73360   0.81665   0.00000  Uiso   1.00
N91    N     0.27443   0.95587   0.59056   0.00000  Uiso   1.00
N92    N     0.49446   0.52060   0.99344   0.00000  Uiso   1.00
C93    C     0.60881   0.83416   0.11976   0.00000  Uiso   1.00
C94    C     0.53271   0.81752   0.16886   0.00000  Uiso   1.00
C95    C     0.42010   0.83979   0.11772   0.00000  Uiso   1.00
C96    C     0.36514   0.81898   0.17636   0.00000  Uiso   1.00
C97    C     0.23848   0.79944   0.23644   0.00000  Uiso   1.00
C98    C     0.65172   0.75626   0.10654   0.00000  Uiso   1.00
C99    C     0.63918   0.72702   0.00301   0.00000  Uiso   1.00
C100   C     0.68442   0.65463   0.00920   0.00000  Uiso   1.00
C101   C     0.74260   0.54001   0.97255   0.00000  Uiso   1.00
C102   C     0.71235   0.87622   0.21757   0.00000  Uiso   1.00
C103   C     0.75080   0.94784   0.20740   0.00000  Uiso   1.00
C104   C     0.84711   0.97645   0.30707   0.00000  Uiso   1.00
C105   C     0.99942   0.04809   0.44282   0.00000  Uiso   1.00
C106   C     0.71148   0.75761   0.31484   0.00000  Uiso   1.00
C107   C     0.58848   0.77594   0.27481   0.00000  Uiso   1.00
C108   C     0.53369   0.75510   0.33355   0.00000  Uiso   1.00
C109   C     0.42101   0.77733   0.28252   0.00000  Uiso   1.00
C110   C     0.70749   0.71468   0.21249   0.00000  Uiso   1.00
C111   C     0.75277   0.64233   0.21884   0.00000  Uiso   1.00
C112   C     0.74029   0.61298   0.11535   0.00000  Uiso   1.00
C113   C     0.76811   0.83465   0.32353   0.00000  Uiso   1.00
C114   C     0.86439   0.86315   0.42323   0.00000  Uiso   1.00
C115   C     0.90298   0.93480   0.41322   0.00000  Uiso   1.00
H116   H     0.56539   0.86652   0.03727   0.00000  Uiso   1.00
H117   H     0.37696   0.87196   0.03571   0.00000  Uiso   1.00
H118   H     0.59603   0.75921   0.92103   0.00000  Uiso   1.00
H119   H     0.70762   0.98000   0.12539   0.00000  Uiso   1.00
H120   H     0.19264   0.85962   0.08070   0.00000  Uiso   1.00
H121   H     0.65457   0.62190   0.83888   0.00000  Uiso   1.00
H122   H     0.88990   0.08748   0.26982   0.00000  Uiso   1.00
H123   H     0.75490   0.72524   0.39734   0.00000  Uiso   1.00
H124   H     0.57686   0.72292   0.41555   0.00000  Uiso   1.00
H125   H     0.79593   0.61017   0.30086   0.00000  Uiso   1.00
H126   H     0.90752   0.83096   0.50522   0.00000  Uiso   1.00
H127   H     0.35488   0.73866   0.38898   0.00000  Uiso   1.00
H128   H     0.81682   0.50093   0.14716   0.00000  Uiso   1.00
H129   H     0.05215   0.96651   0.57810   0.00000  Uiso   1.00
O130   O     0.15321   0.80015   0.24030   0.00000  Uiso   1.00
O131   O     0.75928   0.48826   0.92305   0.00000  Uiso   1.00
O132   O     0.06801   0.09909   0.48843   0.00000  Uiso   1.00
N133   N     0.25526   0.83149   0.15077   0.00000  Uiso   1.00
N134   N     0.68713   0.60922   0.92468   0.00000  Uiso   1.00
N135   N     0.90716   0.04449   0.32756   0.00000  Uiso   1.00
N136   N     0.34256   0.76640   0.31665   0.00000  Uiso   1.00
N137   N     0.77443   0.54413   0.09056   0.00000  Uiso   1.00
N138   N     0.99446   0.97940   0.49344   0.00000  Uiso   1.00
C139   C     0.10881   0.33416   0.11976   0.00000  Uiso   1.00
C140   C     0.03271   0.31752   0.16886   0.00000  Uiso   1.00
C141   C     0.92010   0.33979   0.11772   0.00000  Uiso   1.00
C142   C     0.86514   0.31898   0.17636   0.00000  Uiso   1.00
C143   C     0.73848   0.29944   0.23644   0.00000  Uiso   1.00
C144   C     0.15172   0.25626   0.10654   0.00000  Uiso   1.00
C145   C     0.13918   0.22702   0.00301   0.00000  Uiso   1.00
C146   C     0.18442   0.15463   0.00920   0.00000  Uiso   1.00
C147   C     0.24260   0.04001   0.97255   0.00000  Uiso   1.00
C148   C     0.21235   0.37622   0.21757   0.00000  Uiso   1.00
C149   C     0.25080   0.44784   0.20740   0.00000  Uiso   1.00
C150   C     0.34711   0.47645   0.30707   0.00000  Uiso   1.00
C151   C     0.49942   0.54809   0.44282   0.00000  Uiso   1.00
C152   C     0.21148   0.25761   0.31484   0.00000  Uiso   1.00
C153   C     0.08848   0.27594   0.27481   0.00000  Uiso   1.00
C154   C     0.03369   0.25510   0.33355   0.00000  Uiso   1.00
C155   C     0.92101   0.27733   0.28252   0.00000  Uiso   1.00
C156   C     0.20749   0.21468   0.21249   0.00000  Uiso   1.00
C157   C     0.25277   0.14233   0.21884   0.00000  Uiso   1.00
C158   C     0.24029   0.11298   0.11535   0.00000  Uiso   1.00
C159   C     0.26811   0.33465   0.32353   0.00000  Uiso   1.00
C160   C     0.36439   0.36315   0.42323   0.00000  Uiso   1.00
C161   C     0.40298   0.43480   0.41322   0.00000  Uiso   1.00
H162   H     0.06539   0.36652   0.03727   0.00000  Uiso   1.00
H163   H     0.87696   0.37196   0.03571   0.00000  Uiso   1.00
H164   H     0.09603   0.25921   0.92103   0.00000  Uiso   1.00
H165   H     0.20762   0.48000   0.12539   0.00000  Uiso   1.00
H166   H     0.69264   0.35962   0.08070   0.00000  Uiso   1.00
H167   H     0.15457   0.12190   0.83888   0.00000  Uiso   1.00
H168   H     0.38990   0.58748   0.26982   0.00000  Uiso   1.00
H169   H     0.25490   0.22524   0.39734   0.00000  Uiso   1.00
H170   H     0.07686   0.22292   0.41555   0.00000  Uiso   1.00
H171   H     0.29593   0.11017   0.30086   0.00000  Uiso   1.00
H172   H     0.40752   0.33096   0.50522   0.00000  Uiso   1.00
H173   H     0.85488   0.23866   0.38898   0.00000  Uiso   1.00
H174   H     0.31682   0.00093   0.14716   0.00000  Uiso   1.00
H175   H     0.55215   0.46651   0.57810   0.00000  Uiso   1.00
O176   O     0.65321   0.30015   0.24030   0.00000  Uiso   1.00
O177   O     0.25928   0.98826   0.92305   0.00000  Uiso   1.00
O178   O     0.56801   0.59909   0.48843   0.00000  Uiso   1.00
N179   N     0.75526   0.33149   0.15077   0.00000  Uiso   1.00
N180   N     0.18713   0.10922   0.92468   0.00000  Uiso   1.00
N181   N     0.40716   0.54449   0.32756   0.00000  Uiso   1.00
N182   N     0.84256   0.26640   0.31665   0.00000  Uiso   1.00
N183   N     0.27443   0.04413   0.09056   0.00000  Uiso   1.00
N184   N     0.49446   0.47940   0.49344   0.00000  Uiso   1.00
