data_job_02003
_audit_creation_date              2018-12-19
_audit_creation_method            'Materials Studio'
_symmetry_space_group_name_H-M    'P1'
_symmetry_Int_Tables_number       1
_symmetry_cell_setting            triclinic
loop_
_symmetry_equiv_pos_as_xyz
  x,y,z
_cell_length_a                    14.5661
_cell_length_b                    15.6830
_cell_length_c                    19.5031
_cell_angle_alpha                 90.0000
_cell_angle_beta                  90.0000
_cell_angle_gamma                 90.0000
loop_
_atom_site_label
_atom_site_type_symbol
_atom_site_fract_x
_atom_site_fract_y
_atom_site_fract_z
_atom_site_U_iso_or_equiv
_atom_site_adp_type
_atom_site_occupancy
C1     C     0.61217   0.25815   0.98913   0.00000  Uiso   1.00
C2     C     0.64070   0.32148   0.93375   0.00000  Uiso   1.00
C3     C     0.59101   0.39260   0.91339   0.00000  Uiso   1.00
C4     C     0.62883   0.44256   0.86185   0.00000  Uiso   1.00
C5     C     0.66025   0.54399   0.78041   0.00000  Uiso   1.00
C6     C     0.61174   0.17075   0.95487   0.00000  Uiso   1.00
C7     C     0.53771   0.11514   0.95226   0.00000  Uiso   1.00
C8     C     0.55116   0.03820   0.91851   0.00000  Uiso   1.00
C9     C     0.53766   0.90559   0.86989   0.00000  Uiso   1.00
C10    C     0.69065   0.25634   0.04085   0.00000  Uiso   1.00
C11    C     0.68296   0.27268   0.11055   0.00000  Uiso   1.00
C12    C     0.76284   0.26778   0.14919   0.00000  Uiso   1.00
C13    C     0.87185   0.26807   0.23408   0.00000  Uiso   1.00
C14    C     0.76771   0.22039   0.93381   0.00000  Uiso   1.00
C15    C     0.72518   0.30096   0.90371   0.00000  Uiso   1.00
C16    C     0.76309   0.35083   0.85219   0.00000  Uiso   1.00
C17    C     0.71347   0.42201   0.83175   0.00000  Uiso   1.00
C18    C     0.69622   0.15024   0.92482   0.00000  Uiso   1.00
C19    C     0.70980   0.07336   0.89106   0.00000  Uiso   1.00
C20    C     0.63580   0.01765   0.88841   0.00000  Uiso   1.00
C21    C     0.77513   0.23583   0.01081   0.00000  Uiso   1.00
C22    C     0.85505   0.23090   0.04935   0.00000  Uiso   1.00
C23    C     0.84748   0.24723   0.11909   0.00000  Uiso   1.00
H24    H     0.54639   0.27411   0.01252   0.00000  Uiso   1.00
H25    H     0.52562   0.40845   0.93665   0.00000  Uiso   1.00
H26    H     0.47234   0.13103   0.97552   0.00000  Uiso   1.00
H27    H     0.61757   0.28855   0.13378   0.00000  Uiso   1.00
H28    H     0.53984   0.54832   0.83927   0.00000  Uiso   1.00
H29    H     0.42750   0.96335   0.92126   0.00000  Uiso   1.00
H30    H     0.73373   0.29550   0.25498   0.00000  Uiso   1.00
H31    H     0.83349   0.20442   0.91042   0.00000  Uiso   1.00
H32    H     0.82847   0.33494   0.82895   0.00000  Uiso   1.00
H33    H     0.77519   0.05751   0.86782   0.00000  Uiso   1.00
H34    H     0.92041   0.21503   0.02608   0.00000  Uiso   1.00
H35    H     0.78564   0.48866   0.75185   0.00000  Uiso   1.00
H36    H     0.67330   0.90368   0.83384   0.00000  Uiso   1.00
H37    H     0.97954   0.23584   0.16757   0.00000  Uiso   1.00
O38    O     0.65424   0.60559   0.74379   0.00000  Uiso   1.00
O39    O     0.50686   0.83812   0.85137   0.00000  Uiso   1.00
O40    O     0.90864   0.27390   0.28921   0.00000  Uiso   1.00
N41    N     0.59838   0.51638   0.82988   0.00000  Uiso   1.00
N42    N     0.49335   0.96947   0.90653   0.00000  Uiso   1.00
N43    N     0.77965   0.27998   0.21854   0.00000  Uiso   1.00
N44    N     0.73065   0.48427   0.78285   0.00000  Uiso   1.00
N45    N     0.62561   0.93736   0.85949   0.00000  Uiso   1.00
N46    N     0.91191   0.24788   0.17150   0.00000  Uiso   1.00
C47    C     0.11217   0.75815   0.98913   0.00000  Uiso   1.00
C48    C     0.14070   0.82148   0.93375   0.00000  Uiso   1.00
C49    C     0.09101   0.89260   0.91339   0.00000  Uiso   1.00
C50    C     0.12883   0.94256   0.86185   0.00000  Uiso   1.00
C51    C     0.16025   0.04399   0.78041   0.00000  Uiso   1.00
C52    C     0.11174   0.67075   0.95487   0.00000  Uiso   1.00
C53    C     0.03771   0.61514   0.95226   0.00000  Uiso   1.00
C54    C     0.05116   0.53820   0.91851   0.00000  Uiso   1.00
C55    C     0.03766   0.40559   0.86989   0.00000  Uiso   1.00
C56    C     0.19065   0.75634   0.04085   0.00000  Uiso   1.00
C57    C     0.18296   0.77268   0.11055   0.00000  Uiso   1.00
C58    C     0.26284   0.76778   0.14919   0.00000  Uiso   1.00
C59    C     0.37185   0.76807   0.23408   0.00000  Uiso   1.00
C60    C     0.26771   0.72039   0.93381   0.00000  Uiso   1.00
C61    C     0.22518   0.80096   0.90371   0.00000  Uiso   1.00
C62    C     0.26309   0.85083   0.85219   0.00000  Uiso   1.00
C63    C     0.21347   0.92201   0.83175   0.00000  Uiso   1.00
C64    C     0.19622   0.65024   0.92482   0.00000  Uiso   1.00
C65    C     0.20980   0.57336   0.89106   0.00000  Uiso   1.00
C66    C     0.13580   0.51765   0.88841   0.00000  Uiso   1.00
C67    C     0.27513   0.73583   0.01081   0.00000  Uiso   1.00
C68    C     0.35505   0.73090   0.04935   0.00000  Uiso   1.00
C69    C     0.34748   0.74723   0.11909   0.00000  Uiso   1.00
H70    H     0.04639   0.77411   0.01252   0.00000  Uiso   1.00
H71    H     0.02562   0.90845   0.93665   0.00000  Uiso   1.00
H72    H     0.97234   0.63103   0.97552   0.00000  Uiso   1.00
H73    H     0.11757   0.78855   0.13378   0.00000  Uiso   1.00
H74    H     0.03984   0.04832   0.83927   0.00000  Uiso   1.00
H75    H     0.92750   0.46335   0.92126   0.00000  Uiso   1.00
H76    H     0.23373   0.79550   0.25498   0.00000  Uiso   1.00
H77    H     0.33349   0.70442   0.91042   0.00000  Uiso   1.00
H78    H     0.32847   0.83494   0.82895   0.00000  Uiso   1.00
H79    H     0.27519   0.55751   0.86782   0.00000  Uiso   1.00
H80    H     0.42041   0.71503   0.02608   0.00000  Uiso   1.00
H81    H     0.28564   0.98866   0.75185   0.00000  Uiso   1.00
H82    H     0.17330   0.40368   0.83384   0.00000  Uiso   1.00
H83    H     0.47954   0.73584   0.16757   0.00000  Uiso   1.00
O84    O     0.15424   0.10559   0.74379   0.00000  Uiso   1.00
O85    O     0.00686   0.33812   0.85137   0.00000  Uiso   1.00
O86    O     0.40864   0.77390   0.28921   0.00000  Uiso   1.00
N87    N     0.09838   0.01638   0.82988   0.00000  Uiso   1.00
N88    N     0.99335   0.46947   0.90653   0.00000  Uiso   1.00
N89    N     0.27965   0.77998   0.21854   0.00000  Uiso   1.00
N90    N     0.23065   0.98427   0.78285   0.00000  Uiso   1.00
N91    N     0.12561   0.43736   0.85949   0.00000  Uiso   1.00
N92    N     0.41191   0.74788   0.17150   0.00000  Uiso   1.00
C93    C     0.38783   0.74185   0.48913   0.00000  Uiso   1.00
C94    C     0.35930   0.67852   0.43375   0.00000  Uiso   1.00
C95    C     0.40899   0.60740   0.41339   0.00000  Uiso   1.00
C96    C     0.37117   0.55744   0.36185   0.00000  Uiso   1.00
C97    C     0.33975   0.45601   0.28041   0.00000  Uiso   1.00
C98    C     0.38826   0.82925   0.45487   0.00000  Uiso   1.00
C99    C     0.46229   0.88486   0.45226   0.00000  Uiso   1.00
C100   C     0.44884   0.96180   0.41851   0.00000  Uiso   1.00
C101   C     0.46234   0.09441   0.36989   0.00000  Uiso   1.00
C102   C     0.30935   0.74366   0.54085   0.00000  Uiso   1.00
C103   C     0.31704   0.72732   0.61055   0.00000  Uiso   1.00
C104   C     0.23716   0.73222   0.64919   0.00000  Uiso   1.00
C105   C     0.12815   0.73193   0.73408   0.00000  Uiso   1.00
C106   C     0.23229   0.77961   0.43381   0.00000  Uiso   1.00
C107   C     0.27482   0.69904   0.40371   0.00000  Uiso   1.00
C108   C     0.23691   0.64917   0.35219   0.00000  Uiso   1.00
C109   C     0.28653   0.57799   0.33175   0.00000  Uiso   1.00
C110   C     0.30378   0.84976   0.42482   0.00000  Uiso   1.00
C111   C     0.29020   0.92664   0.39106   0.00000  Uiso   1.00
C112   C     0.36420   0.98235   0.38841   0.00000  Uiso   1.00
C113   C     0.22487   0.76417   0.51081   0.00000  Uiso   1.00
C114   C     0.14495   0.76910   0.54935   0.00000  Uiso   1.00
C115   C     0.15252   0.75277   0.61909   0.00000  Uiso   1.00
H116   H     0.45361   0.72589   0.51252   0.00000  Uiso   1.00
H117   H     0.47438   0.59155   0.43665   0.00000  Uiso   1.00
H118   H     0.52766   0.86897   0.47552   0.00000  Uiso   1.00
H119   H     0.38243   0.71145   0.63378   0.00000  Uiso   1.00
H120   H     0.46016   0.45168   0.33927   0.00000  Uiso   1.00
H121   H     0.57250   0.03665   0.42126   0.00000  Uiso   1.00
H122   H     0.26627   0.70450   0.75498   0.00000  Uiso   1.00
H123   H     0.16651   0.79558   0.41042   0.00000  Uiso   1.00
H124   H     0.17153   0.66506   0.32895   0.00000  Uiso   1.00
H125   H     0.22481   0.94249   0.36782   0.00000  Uiso   1.00
H126   H     0.07959   0.78497   0.52608   0.00000  Uiso   1.00
H127   H     0.21436   0.51134   0.25185   0.00000  Uiso   1.00
H128   H     0.32670   0.09632   0.33384   0.00000  Uiso   1.00
H129   H     0.02046   0.76416   0.66757   0.00000  Uiso   1.00
O130   O     0.34576   0.39441   0.24379   0.00000  Uiso   1.00
O131   O     0.49314   0.16188   0.35137   0.00000  Uiso   1.00
O132   O     0.09136   0.72610   0.78921   0.00000  Uiso   1.00
N133   N     0.40162   0.48362   0.32988   0.00000  Uiso   1.00
N134   N     0.50665   0.03053   0.40653   0.00000  Uiso   1.00
N135   N     0.22035   0.72002   0.71854   0.00000  Uiso   1.00
N136   N     0.26935   0.51573   0.28285   0.00000  Uiso   1.00
N137   N     0.37439   0.06264   0.35949   0.00000  Uiso   1.00
N138   N     0.08809   0.75212   0.67150   0.00000  Uiso   1.00
C139   C     0.88783   0.24185   0.48913   0.00000  Uiso   1.00
C140   C     0.85930   0.17852   0.43375   0.00000  Uiso   1.00
C141   C     0.90899   0.10740   0.41339   0.00000  Uiso   1.00
C142   C     0.87117   0.05744   0.36185   0.00000  Uiso   1.00
C143   C     0.83975   0.95601   0.28041   0.00000  Uiso   1.00
C144   C     0.88826   0.32925   0.45487   0.00000  Uiso   1.00
C145   C     0.96229   0.38486   0.45226   0.00000  Uiso   1.00
C146   C     0.94884   0.46180   0.41851   0.00000  Uiso   1.00
C147   C     0.96234   0.59441   0.36989   0.00000  Uiso   1.00
C148   C     0.80935   0.24366   0.54085   0.00000  Uiso   1.00
C149   C     0.81704   0.22732   0.61055   0.00000  Uiso   1.00
C150   C     0.73716   0.23222   0.64919   0.00000  Uiso   1.00
C151   C     0.62815   0.23193   0.73408   0.00000  Uiso   1.00
C152   C     0.73229   0.27961   0.43381   0.00000  Uiso   1.00
C153   C     0.77482   0.19904   0.40371   0.00000  Uiso   1.00
C154   C     0.73691   0.14917   0.35219   0.00000  Uiso   1.00
C155   C     0.78653   0.07799   0.33175   0.00000  Uiso   1.00
C156   C     0.80378   0.34976   0.42482   0.00000  Uiso   1.00
C157   C     0.79020   0.42664   0.39106   0.00000  Uiso   1.00
C158   C     0.86420   0.48235   0.38841   0.00000  Uiso   1.00
C159   C     0.72487   0.26417   0.51081   0.00000  Uiso   1.00
C160   C     0.64495   0.26910   0.54935   0.00000  Uiso   1.00
C161   C     0.65252   0.25277   0.61909   0.00000  Uiso   1.00
H162   H     0.95361   0.22589   0.51252   0.00000  Uiso   1.00
H163   H     0.97438   0.09155   0.43665   0.00000  Uiso   1.00
H164   H     0.02766   0.36897   0.47552   0.00000  Uiso   1.00
H165   H     0.88243   0.21145   0.63378   0.00000  Uiso   1.00
H166   H     0.96016   0.95168   0.33927   0.00000  Uiso   1.00
H167   H     0.07250   0.53665   0.42126   0.00000  Uiso   1.00
H168   H     0.76627   0.20450   0.75498   0.00000  Uiso   1.00
H169   H     0.66651   0.29558   0.41042   0.00000  Uiso   1.00
H170   H     0.67153   0.16506   0.32895   0.00000  Uiso   1.00
H171   H     0.72481   0.44249   0.36782   0.00000  Uiso   1.00
H172   H     0.57959   0.28497   0.52608   0.00000  Uiso   1.00
H173   H     0.71436   0.01134   0.25185   0.00000  Uiso   1.00
H174   H     0.82670   0.59632   0.33384   0.00000  Uiso   1.00
H175   H     0.52046   0.26416   0.66757   0.00000  Uiso   1.00
O176   O     0.84576   0.89441   0.24379   0.00000  Uiso   1.00
O177   O     0.99314   0.66188   0.35137   0.00000  Uiso   1.00
O178   O     0.59136   0.22610   0.78921   0.00000  Uiso   1.00
N179   N     0.90162   0.98362   0.32988   0.00000  Uiso   1.00
N180   N     0.00665   0.53053   0.40653   0.00000  Uiso   1.00
N181   N     0.72035   0.22002   0.71854   0.00000  Uiso   1.00
N182   N     0.76935   0.01573   0.28285   0.00000  Uiso   1.00
N183   N     0.87439   0.56264   0.35949   0.00000  Uiso   1.00
N184   N     0.58809   0.25212   0.67150   0.00000  Uiso   1.00
C185   C     0.38783   0.25815   0.51087   0.00000  Uiso   1.00
C186   C     0.35930   0.32148   0.56625   0.00000  Uiso   1.00
C187   C     0.40899   0.39260   0.58661   0.00000  Uiso   1.00
C188   C     0.37117   0.44256   0.63815   0.00000  Uiso   1.00
C189   C     0.33975   0.54399   0.71959   0.00000  Uiso   1.00
C190   C     0.38826   0.17075   0.54513   0.00000  Uiso   1.00
C191   C     0.46229   0.11514   0.54774   0.00000  Uiso   1.00
C192   C     0.44884   0.03820   0.58149   0.00000  Uiso   1.00
C193   C     0.46234   0.90559   0.63011   0.00000  Uiso   1.00
C194   C     0.30935   0.25634   0.45915   0.00000  Uiso   1.00
C195   C     0.31704   0.27268   0.38945   0.00000  Uiso   1.00
C196   C     0.23716   0.26778   0.35081   0.00000  Uiso   1.00
C197   C     0.12815   0.26807   0.26592   0.00000  Uiso   1.00
C198   C     0.23229   0.22039   0.56619   0.00000  Uiso   1.00
C199   C     0.27482   0.30096   0.59629   0.00000  Uiso   1.00
C200   C     0.23691   0.35083   0.64781   0.00000  Uiso   1.00
C201   C     0.28653   0.42201   0.66825   0.00000  Uiso   1.00
C202   C     0.30378   0.15024   0.57518   0.00000  Uiso   1.00
C203   C     0.29020   0.07336   0.60894   0.00000  Uiso   1.00
C204   C     0.36420   0.01765   0.61159   0.00000  Uiso   1.00
C205   C     0.22487   0.23583   0.48919   0.00000  Uiso   1.00
C206   C     0.14495   0.23090   0.45065   0.00000  Uiso   1.00
C207   C     0.15252   0.24723   0.38091   0.00000  Uiso   1.00
H208   H     0.45361   0.27411   0.48748   0.00000  Uiso   1.00
H209   H     0.47438   0.40845   0.56335   0.00000  Uiso   1.00
H210   H     0.52766   0.13103   0.52448   0.00000  Uiso   1.00
H211   H     0.38243   0.28855   0.36622   0.00000  Uiso   1.00
H212   H     0.46016   0.54832   0.66073   0.00000  Uiso   1.00
H213   H     0.57250   0.96335   0.57874   0.00000  Uiso   1.00
H214   H     0.26627   0.29550   0.24502   0.00000  Uiso   1.00
H215   H     0.16651   0.20442   0.58958   0.00000  Uiso   1.00
H216   H     0.17153   0.33494   0.67105   0.00000  Uiso   1.00
H217   H     0.22481   0.05751   0.63218   0.00000  Uiso   1.00
H218   H     0.07959   0.21503   0.47392   0.00000  Uiso   1.00
H219   H     0.21436   0.48866   0.74815   0.00000  Uiso   1.00
H220   H     0.32670   0.90368   0.66616   0.00000  Uiso   1.00
H221   H     0.02046   0.23584   0.33243   0.00000  Uiso   1.00
O222   O     0.34576   0.60559   0.75621   0.00000  Uiso   1.00
O223   O     0.49314   0.83812   0.64863   0.00000  Uiso   1.00
O224   O     0.09136   0.27390   0.21079   0.00000  Uiso   1.00
N225   N     0.40162   0.51638   0.67012   0.00000  Uiso   1.00
N226   N     0.50665   0.96947   0.59347   0.00000  Uiso   1.00
N227   N     0.22035   0.27998   0.28146   0.00000  Uiso   1.00
N228   N     0.26935   0.48427   0.71715   0.00000  Uiso   1.00
N229   N     0.37439   0.93736   0.64051   0.00000  Uiso   1.00
N230   N     0.08809   0.24788   0.32850   0.00000  Uiso   1.00
C231   C     0.88783   0.75815   0.51087   0.00000  Uiso   1.00
C232   C     0.85930   0.82148   0.56625   0.00000  Uiso   1.00
C233   C     0.90899   0.89260   0.58661   0.00000  Uiso   1.00
C234   C     0.87117   0.94256   0.63815   0.00000  Uiso   1.00
C235   C     0.83975   0.04399   0.71959   0.00000  Uiso   1.00
C236   C     0.88826   0.67075   0.54513   0.00000  Uiso   1.00
C237   C     0.96229   0.61514   0.54774   0.00000  Uiso   1.00
C238   C     0.94884   0.53820   0.58149   0.00000  Uiso   1.00
C239   C     0.96234   0.40559   0.63011   0.00000  Uiso   1.00
C240   C     0.80935   0.75634   0.45915   0.00000  Uiso   1.00
C241   C     0.81704   0.77268   0.38945   0.00000  Uiso   1.00
C242   C     0.73716   0.76778   0.35081   0.00000  Uiso   1.00
C243   C     0.62815   0.76807   0.26592   0.00000  Uiso   1.00
C244   C     0.73229   0.72039   0.56619   0.00000  Uiso   1.00
C245   C     0.77482   0.80096   0.59629   0.00000  Uiso   1.00
C246   C     0.73691   0.85083   0.64781   0.00000  Uiso   1.00
C247   C     0.78653   0.92201   0.66825   0.00000  Uiso   1.00
C248   C     0.80378   0.65024   0.57518   0.00000  Uiso   1.00
C249   C     0.79020   0.57336   0.60894   0.00000  Uiso   1.00
C250   C     0.86420   0.51765   0.61159   0.00000  Uiso   1.00
C251   C     0.72487   0.73583   0.48919   0.00000  Uiso   1.00
C252   C     0.64495   0.73090   0.45065   0.00000  Uiso   1.00
C253   C     0.65252   0.74723   0.38091   0.00000  Uiso   1.00
H254   H     0.95361   0.77411   0.48748   0.00000  Uiso   1.00
H255   H     0.97438   0.90845   0.56335   0.00000  Uiso   1.00
H256   H     0.02766   0.63103   0.52448   0.00000  Uiso   1.00
H257   H     0.88243   0.78855   0.36622   0.00000  Uiso   1.00
H258   H     0.96016   0.04832   0.66073   0.00000  Uiso   1.00
H259   H     0.07250   0.46335   0.57874   0.00000  Uiso   1.00
H260   H     0.76627   0.79550   0.24502   0.00000  Uiso   1.00
H261   H     0.66651   0.70442   0.58958   0.00000  Uiso   1.00
H262   H     0.67153   0.83494   0.67105   0.00000  Uiso   1.00
H263   H     0.72481   0.55751   0.63218   0.00000  Uiso   1.00
H264   H     0.57959   0.71503   0.47392   0.00000  Uiso   1.00
H265   H     0.71436   0.98866   0.74815   0.00000  Uiso   1.00
H266   H     0.82670   0.40368   0.66616   0.00000  Uiso   1.00
H267   H     0.52046   0.73584   0.33243   0.00000  Uiso   1.00
O268   O     0.84576   0.10559   0.75621   0.00000  Uiso   1.00
O269   O     0.99314   0.33812   0.64863   0.00000  Uiso   1.00
O270   O     0.59136   0.77390   0.21079   0.00000  Uiso   1.00
N271   N     0.90162   0.01638   0.67012   0.00000  Uiso   1.00
N272   N     0.00665   0.46947   0.59347   0.00000  Uiso   1.00
N273   N     0.72035   0.77998   0.28146   0.00000  Uiso   1.00
N274   N     0.76935   0.98427   0.71715   0.00000  Uiso   1.00
N275   N     0.87439   0.43736   0.64051   0.00000  Uiso   1.00
N276   N     0.58809   0.74788   0.32850   0.00000  Uiso   1.00
C277   C     0.61217   0.74185   0.01087   0.00000  Uiso   1.00
C278   C     0.64070   0.67852   0.06625   0.00000  Uiso   1.00
C279   C     0.59101   0.60740   0.08661   0.00000  Uiso   1.00
C280   C     0.62883   0.55744   0.13815   0.00000  Uiso   1.00
C281   C     0.66025   0.45601   0.21959   0.00000  Uiso   1.00
C282   C     0.61174   0.82925   0.04513   0.00000  Uiso   1.00
C283   C     0.53771   0.88486   0.04774   0.00000  Uiso   1.00
C284   C     0.55116   0.96180   0.08149   0.00000  Uiso   1.00
C285   C     0.53766   0.09441   0.13011   0.00000  Uiso   1.00
C286   C     0.69065   0.74366   0.95915   0.00000  Uiso   1.00
C287   C     0.68296   0.72732   0.88945   0.00000  Uiso   1.00
C288   C     0.76284   0.73222   0.85081   0.00000  Uiso   1.00
C289   C     0.87185   0.73193   0.76592   0.00000  Uiso   1.00
C290   C     0.76771   0.77961   0.06619   0.00000  Uiso   1.00
C291   C     0.72518   0.69904   0.09629   0.00000  Uiso   1.00
C292   C     0.76309   0.64917   0.14781   0.00000  Uiso   1.00
C293   C     0.71347   0.57799   0.16825   0.00000  Uiso   1.00
C294   C     0.69622   0.84976   0.07518   0.00000  Uiso   1.00
C295   C     0.70980   0.92664   0.10894   0.00000  Uiso   1.00
C296   C     0.63580   0.98235   0.11159   0.00000  Uiso   1.00
C297   C     0.77513   0.76417   0.98919   0.00000  Uiso   1.00
C298   C     0.85505   0.76910   0.95065   0.00000  Uiso   1.00
C299   C     0.84748   0.75277   0.88091   0.00000  Uiso   1.00
H300   H     0.54639   0.72589   0.98748   0.00000  Uiso   1.00
H301   H     0.52562   0.59155   0.06335   0.00000  Uiso   1.00
H302   H     0.47234   0.86897   0.02448   0.00000  Uiso   1.00
H303   H     0.61757   0.71145   0.86622   0.00000  Uiso   1.00
H304   H     0.53984   0.45168   0.16073   0.00000  Uiso   1.00
H305   H     0.42750   0.03665   0.07874   0.00000  Uiso   1.00
H306   H     0.73373   0.70450   0.74502   0.00000  Uiso   1.00
H307   H     0.83349   0.79558   0.08958   0.00000  Uiso   1.00
H308   H     0.82847   0.66506   0.17105   0.00000  Uiso   1.00
H309   H     0.77519   0.94249   0.13218   0.00000  Uiso   1.00
H310   H     0.92041   0.78497   0.97392   0.00000  Uiso   1.00
H311   H     0.78564   0.51134   0.24815   0.00000  Uiso   1.00
H312   H     0.67330   0.09632   0.16616   0.00000  Uiso   1.00
H313   H     0.97954   0.76416   0.83243   0.00000  Uiso   1.00
O314   O     0.65424   0.39441   0.25621   0.00000  Uiso   1.00
O315   O     0.50686   0.16188   0.14863   0.00000  Uiso   1.00
O316   O     0.90864   0.72610   0.71079   0.00000  Uiso   1.00
N317   N     0.59838   0.48362   0.17012   0.00000  Uiso   1.00
N318   N     0.49335   0.03053   0.09347   0.00000  Uiso   1.00
N319   N     0.77965   0.72002   0.78146   0.00000  Uiso   1.00
N320   N     0.73065   0.51573   0.21715   0.00000  Uiso   1.00
N321   N     0.62561   0.06264   0.14051   0.00000  Uiso   1.00
N322   N     0.91191   0.75212   0.82850   0.00000  Uiso   1.00
C323   C     0.11217   0.24185   0.01087   0.00000  Uiso   1.00
C324   C     0.14070   0.17852   0.06625   0.00000  Uiso   1.00
C325   C     0.09101   0.10740   0.08661   0.00000  Uiso   1.00
C326   C     0.12883   0.05744   0.13815   0.00000  Uiso   1.00
C327   C     0.16025   0.95601   0.21959   0.00000  Uiso   1.00
C328   C     0.11174   0.32925   0.04513   0.00000  Uiso   1.00
C329   C     0.03771   0.38486   0.04774   0.00000  Uiso   1.00
C330   C     0.05116   0.46180   0.08149   0.00000  Uiso   1.00
C331   C     0.03766   0.59441   0.13011   0.00000  Uiso   1.00
C332   C     0.19065   0.24366   0.95915   0.00000  Uiso   1.00
C333   C     0.18296   0.22732   0.88945   0.00000  Uiso   1.00
C334   C     0.26284   0.23222   0.85081   0.00000  Uiso   1.00
C335   C     0.37185   0.23193   0.76592   0.00000  Uiso   1.00
C336   C     0.26771   0.27961   0.06619   0.00000  Uiso   1.00
C337   C     0.22518   0.19904   0.09629   0.00000  Uiso   1.00
C338   C     0.26309   0.14917   0.14781   0.00000  Uiso   1.00
C339   C     0.21347   0.07799   0.16825   0.00000  Uiso   1.00
C340   C     0.19622   0.34976   0.07518   0.00000  Uiso   1.00
C341   C     0.20980   0.42664   0.10894   0.00000  Uiso   1.00
C342   C     0.13580   0.48235   0.11159   0.00000  Uiso   1.00
C343   C     0.27513   0.26417   0.98919   0.00000  Uiso   1.00
C344   C     0.35505   0.26910   0.95065   0.00000  Uiso   1.00
C345   C     0.34748   0.25277   0.88091   0.00000  Uiso   1.00
H346   H     0.04639   0.22589   0.98748   0.00000  Uiso   1.00
H347   H     0.02562   0.09155   0.06335   0.00000  Uiso   1.00
H348   H     0.97234   0.36897   0.02448   0.00000  Uiso   1.00
H349   H     0.11757   0.21145   0.86622   0.00000  Uiso   1.00
H350   H     0.03984   0.95168   0.16073   0.00000  Uiso   1.00
H351   H     0.92750   0.53665   0.07874   0.00000  Uiso   1.00
H352   H     0.23373   0.20450   0.74502   0.00000  Uiso   1.00
H353   H     0.33349   0.29558   0.08958   0.00000  Uiso   1.00
H354   H     0.32847   0.16506   0.17105   0.00000  Uiso   1.00
H355   H     0.27519   0.44249   0.13218   0.00000  Uiso   1.00
H356   H     0.42041   0.28497   0.97392   0.00000  Uiso   1.00
H357   H     0.28564   0.01134   0.24815   0.00000  Uiso   1.00
H358   H     0.17330   0.59632   0.16616   0.00000  Uiso   1.00
H359   H     0.47954   0.26416   0.83243   0.00000  Uiso   1.00
O360   O     0.15424   0.89441   0.25621   0.00000  Uiso   1.00
O361   O     0.00686   0.66188   0.14863   0.00000  Uiso   1.00
O362   O     0.40864   0.22610   0.71079   0.00000  Uiso   1.00
N363   N     0.09838   0.98362   0.17012   0.00000  Uiso   1.00
N364   N     0.99335   0.53053   0.09347   0.00000  Uiso   1.00
N365   N     0.27965   0.22002   0.78146   0.00000  Uiso   1.00
N366   N     0.23065   0.01573   0.21715   0.00000  Uiso   1.00
N367   N     0.12561   0.56264   0.14051   0.00000  Uiso   1.00
N368   N     0.41191   0.25212   0.82850   0.00000  Uiso   1.00
