data_job_04437
_audit_creation_date              2018-12-19
_audit_creation_method            'Materials Studio'
_symmetry_space_group_name_H-M    'P1'
_symmetry_Int_Tables_number       1
_symmetry_cell_setting            triclinic
loop_
_symmetry_equiv_pos_as_xyz
  x,y,z
_cell_length_a                    21.0687
_cell_length_b                    21.1594
_cell_length_c                    12.4930
_cell_angle_alpha                 90.0000
_cell_angle_beta                  90.0000
_cell_angle_gamma                 90.0000
loop_
_atom_site_label
_atom_site_type_symbol
_atom_site_fract_x
_atom_site_fract_y
_atom_site_fract_z
_atom_site_U_iso_or_equiv
_atom_site_adp_type
_atom_site_occupancy
C1     C     0.30220   0.40734   0.32550   0.00000  Uiso   1.00
C2     C     0.23089   0.39574   0.33249   0.00000  Uiso   1.00
C3     C     0.18388   0.44018   0.31273   0.00000  Uiso   1.00
C4     C     0.12141   0.42027   0.32343   0.00000  Uiso   1.00
C5     C     0.01293   0.41173   0.32986   0.00000  Uiso   1.00
C6     C     0.32921   0.38928   0.43455   0.00000  Uiso   1.00
C7     C     0.36488   0.42828   0.50057   0.00000  Uiso   1.00
C8     C     0.38518   0.40292   0.59719   0.00000  Uiso   1.00
C9     C     0.42939   0.38433   0.76202   0.00000  Uiso   1.00
C10    C     0.32777   0.35860   0.24661   0.00000  Uiso   1.00
C11    C     0.36225   0.37180   0.15463   0.00000  Uiso   1.00
C12    C     0.38136   0.32061   0.09302   0.00000  Uiso   1.00
C13    C     0.42334   0.25438   0.96605   0.00000  Uiso   1.00
C14    C     0.27486   0.29295   0.37967   0.00000  Uiso   1.00
C15    C     0.21604   0.33362   0.36191   0.00000  Uiso   1.00
C16    C     0.15362   0.31363   0.37265   0.00000  Uiso   1.00
C17    C     0.10653   0.35803   0.35290   0.00000  Uiso   1.00
C18    C     0.31436   0.32715   0.46397   0.00000  Uiso   1.00
C19    C     0.33462   0.30173   0.56050   0.00000  Uiso   1.00
C20    C     0.37030   0.34068   0.62666   0.00000  Uiso   1.00
C21    C     0.31292   0.29647   0.27602   0.00000  Uiso   1.00
C22    C     0.33199   0.24525   0.21455   0.00000  Uiso   1.00
C23    C     0.36648   0.25837   0.12250   0.00000  Uiso   1.00
H24    H     0.31377   0.45571   0.30261   0.00000  Uiso   1.00
H25    H     0.19539   0.48826   0.28997   0.00000  Uiso   1.00
H26    H     0.37637   0.47636   0.47778   0.00000  Uiso   1.00
H27    H     0.37374   0.41988   0.13189   0.00000  Uiso   1.00
H28    H     0.05760   0.49695   0.28897   0.00000  Uiso   1.00
H29    H     0.43921   0.47185   0.68497   0.00000  Uiso   1.00
H30    H     0.43367   0.35277   0.95558   0.00000  Uiso   1.00
H31    H     0.26329   0.24458   0.40258   0.00000  Uiso   1.00
H32    H     0.14214   0.26555   0.39542   0.00000  Uiso   1.00
H33    H     0.32312   0.25365   0.58324   0.00000  Uiso   1.00
H34    H     0.32049   0.19718   0.23734   0.00000  Uiso   1.00
H35    H     0.01438   0.31619   0.37456   0.00000  Uiso   1.00
H36    H     0.39599   0.29109   0.77056   0.00000  Uiso   1.00
H37    H     0.39045   0.17201   0.04118   0.00000  Uiso   1.00
O38    O     0.95720   0.42418   0.32529   0.00000  Uiso   1.00
O39    O     0.45787   0.39125   0.84481   0.00000  Uiso   1.00
O40    O     0.45060   0.23502   0.88788   0.00000  Uiso   1.00
N41    N     0.06405   0.45153   0.31008   0.00000  Uiso   1.00
N42    N     0.42083   0.42807   0.68032   0.00000  Uiso   1.00
N43    N     0.41566   0.31673   0.99842   0.00000  Uiso   1.00
N44    N     0.04080   0.35427   0.35613   0.00000  Uiso   1.00
N45    N     0.39757   0.33080   0.72637   0.00000  Uiso   1.00
N46    N     0.39240   0.21947   0.04447   0.00000  Uiso   1.00
C47    C     0.57577   0.30163   0.14178   0.00000  Uiso   1.00
C48    C     0.59362   0.23181   0.14480   0.00000  Uiso   1.00
C49    C     0.55367   0.18177   0.11992   0.00000  Uiso   1.00
C50    C     0.57900   0.12137   0.12762   0.00000  Uiso   1.00
C51    C     0.59712   0.01446   0.12757   0.00000  Uiso   1.00
C52    C     0.58978   0.32741   0.25329   0.00000  Uiso   1.00
C53    C     0.54661   0.35776   0.31961   0.00000  Uiso   1.00
C54    C     0.56871   0.37783   0.41864   0.00000  Uiso   1.00
C55    C     0.58088   0.41939   0.58699   0.00000  Uiso   1.00
C56    C     0.62341   0.33313   0.06697   0.00000  Uiso   1.00
C57    C     0.60851   0.36831   0.97664   0.00000  Uiso   1.00
C58    C     0.65892   0.39322   0.91880   0.00000  Uiso   1.00
C59    C     0.72330   0.44366   0.79786   0.00000  Uiso   1.00
C60    C     0.69178   0.28333   0.19972   0.00000  Uiso   1.00
C61    C     0.65663   0.22187   0.17627   0.00000  Uiso   1.00
C62    C     0.68202   0.16153   0.18401   0.00000  Uiso   1.00
C63    C     0.64212   0.11141   0.15914   0.00000  Uiso   1.00
C64    C     0.65279   0.31747   0.28476   0.00000  Uiso   1.00
C65    C     0.67496   0.33751   0.38371   0.00000  Uiso   1.00
C66    C     0.63183   0.36788   0.45017   0.00000  Uiso   1.00
C67    C     0.68642   0.32319   0.09843   0.00000  Uiso   1.00
C68    C     0.73686   0.34806   0.04073   0.00000  Uiso   1.00
C69    C     0.72204   0.38326   0.95033   0.00000  Uiso   1.00
H70    H     0.52671   0.30937   0.11729   0.00000  Uiso   1.00
H71    H     0.50491   0.18948   0.09558   0.00000  Uiso   1.00
H72    H     0.49785   0.36545   0.29524   0.00000  Uiso   1.00
H73    H     0.55974   0.37599   0.95231   0.00000  Uiso   1.00
H74    H     0.50852   0.05218   0.08541   0.00000  Uiso   1.00
H75    H     0.49364   0.42323   0.50640   0.00000  Uiso   1.00
H76    H     0.62415   0.44547   0.78327   0.00000  Uiso   1.00
H77    H     0.74084   0.27559   0.22422   0.00000  Uiso   1.00
H78    H     0.73079   0.15385   0.20837   0.00000  Uiso   1.00
H79    H     0.72372   0.32981   0.40803   0.00000  Uiso   1.00
H80    H     0.78562   0.34036   0.06511   0.00000  Uiso   1.00
H81    H     0.69185   0.02326   0.17697   0.00000  Uiso   1.00
H82    H     0.67697   0.39431   0.59795   0.00000  Uiso   1.00
H83    H     0.80748   0.41654   0.87482   0.00000  Uiso   1.00
O84    O     0.58971   0.95824   0.11887   0.00000  Uiso   1.00
O85    O     0.57018   0.44505   0.67117   0.00000  Uiso   1.00
O86    O     0.74141   0.47422   0.72245   0.00000  Uiso   1.00
N87    N     0.55305   0.06208   0.10912   0.00000  Uiso   1.00
N88    N     0.53914   0.40898   0.50272   0.00000  Uiso   1.00
N89    N     0.66115   0.42978   0.82667   0.00000  Uiso   1.00
N90    N     0.65170   0.04652   0.15838   0.00000  Uiso   1.00
N91    N     0.63778   0.39342   0.55198   0.00000  Uiso   1.00
N92    N     0.75980   0.41422   0.87593   0.00000  Uiso   1.00
C93    C     0.69780   0.59266   0.32550   0.00000  Uiso   1.00
C94    C     0.76911   0.60426   0.33249   0.00000  Uiso   1.00
C95    C     0.81612   0.55982   0.31273   0.00000  Uiso   1.00
C96    C     0.87859   0.57973   0.32343   0.00000  Uiso   1.00
C97    C     0.98707   0.58827   0.32986   0.00000  Uiso   1.00
C98    C     0.67079   0.61072   0.43455   0.00000  Uiso   1.00
C99    C     0.63512   0.57172   0.50057   0.00000  Uiso   1.00
C100   C     0.61482   0.59708   0.59719   0.00000  Uiso   1.00
C101   C     0.57061   0.61567   0.76202   0.00000  Uiso   1.00
C102   C     0.67223   0.64140   0.24661   0.00000  Uiso   1.00
C103   C     0.63775   0.62820   0.15463   0.00000  Uiso   1.00
C104   C     0.61864   0.67939   0.09302   0.00000  Uiso   1.00
C105   C     0.57666   0.74562   0.96605   0.00000  Uiso   1.00
C106   C     0.72514   0.70705   0.37967   0.00000  Uiso   1.00
C107   C     0.78396   0.66638   0.36191   0.00000  Uiso   1.00
C108   C     0.84638   0.68637   0.37265   0.00000  Uiso   1.00
C109   C     0.89347   0.64197   0.35290   0.00000  Uiso   1.00
C110   C     0.68564   0.67285   0.46397   0.00000  Uiso   1.00
C111   C     0.66538   0.69827   0.56050   0.00000  Uiso   1.00
C112   C     0.62970   0.65932   0.62666   0.00000  Uiso   1.00
C113   C     0.68708   0.70353   0.27602   0.00000  Uiso   1.00
C114   C     0.66801   0.75475   0.21455   0.00000  Uiso   1.00
C115   C     0.63352   0.74163   0.12250   0.00000  Uiso   1.00
H116   H     0.68623   0.54429   0.30261   0.00000  Uiso   1.00
H117   H     0.80461   0.51174   0.28997   0.00000  Uiso   1.00
H118   H     0.62363   0.52364   0.47778   0.00000  Uiso   1.00
H119   H     0.62626   0.58012   0.13189   0.00000  Uiso   1.00
H120   H     0.94240   0.50305   0.28897   0.00000  Uiso   1.00
H121   H     0.56079   0.52815   0.68497   0.00000  Uiso   1.00
H122   H     0.56633   0.64723   0.95558   0.00000  Uiso   1.00
H123   H     0.73671   0.75542   0.40258   0.00000  Uiso   1.00
H124   H     0.85786   0.73445   0.39542   0.00000  Uiso   1.00
H125   H     0.67688   0.74635   0.58324   0.00000  Uiso   1.00
H126   H     0.67951   0.80282   0.23734   0.00000  Uiso   1.00
H127   H     0.98562   0.68381   0.37456   0.00000  Uiso   1.00
H128   H     0.60401   0.70891   0.77056   0.00000  Uiso   1.00
H129   H     0.60955   0.82799   0.04118   0.00000  Uiso   1.00
O130   O     0.04280   0.57582   0.32529   0.00000  Uiso   1.00
O131   O     0.54213   0.60875   0.84481   0.00000  Uiso   1.00
O132   O     0.54940   0.76498   0.88788   0.00000  Uiso   1.00
N133   N     0.93595   0.54847   0.31008   0.00000  Uiso   1.00
N134   N     0.57917   0.57193   0.68032   0.00000  Uiso   1.00
N135   N     0.58434   0.68327   0.99842   0.00000  Uiso   1.00
N136   N     0.95920   0.64573   0.35613   0.00000  Uiso   1.00
N137   N     0.60243   0.66920   0.72637   0.00000  Uiso   1.00
N138   N     0.60760   0.78053   0.04447   0.00000  Uiso   1.00
C139   C     0.42423   0.69837   0.14178   0.00000  Uiso   1.00
C140   C     0.40638   0.76819   0.14480   0.00000  Uiso   1.00
C141   C     0.44633   0.81823   0.11992   0.00000  Uiso   1.00
C142   C     0.42100   0.87863   0.12762   0.00000  Uiso   1.00
C143   C     0.40288   0.98554   0.12757   0.00000  Uiso   1.00
C144   C     0.41022   0.67259   0.25329   0.00000  Uiso   1.00
C145   C     0.45339   0.64224   0.31961   0.00000  Uiso   1.00
C146   C     0.43129   0.62217   0.41864   0.00000  Uiso   1.00
C147   C     0.41912   0.58061   0.58699   0.00000  Uiso   1.00
C148   C     0.37659   0.66687   0.06697   0.00000  Uiso   1.00
C149   C     0.39149   0.63169   0.97664   0.00000  Uiso   1.00
C150   C     0.34108   0.60678   0.91880   0.00000  Uiso   1.00
C151   C     0.27670   0.55634   0.79786   0.00000  Uiso   1.00
C152   C     0.30822   0.71667   0.19972   0.00000  Uiso   1.00
C153   C     0.34337   0.77813   0.17627   0.00000  Uiso   1.00
C154   C     0.31798   0.83847   0.18401   0.00000  Uiso   1.00
C155   C     0.35788   0.88859   0.15914   0.00000  Uiso   1.00
C156   C     0.34721   0.68253   0.28476   0.00000  Uiso   1.00
C157   C     0.32504   0.66249   0.38371   0.00000  Uiso   1.00
C158   C     0.36817   0.63212   0.45017   0.00000  Uiso   1.00
C159   C     0.31358   0.67681   0.09843   0.00000  Uiso   1.00
C160   C     0.26314   0.65194   0.04073   0.00000  Uiso   1.00
C161   C     0.27796   0.61674   0.95033   0.00000  Uiso   1.00
H162   H     0.47329   0.69063   0.11729   0.00000  Uiso   1.00
H163   H     0.49509   0.81052   0.09558   0.00000  Uiso   1.00
H164   H     0.50215   0.63455   0.29524   0.00000  Uiso   1.00
H165   H     0.44026   0.62401   0.95231   0.00000  Uiso   1.00
H166   H     0.49148   0.94782   0.08541   0.00000  Uiso   1.00
H167   H     0.50636   0.57677   0.50640   0.00000  Uiso   1.00
H168   H     0.37585   0.55453   0.78327   0.00000  Uiso   1.00
H169   H     0.25916   0.72441   0.22422   0.00000  Uiso   1.00
H170   H     0.26921   0.84615   0.20837   0.00000  Uiso   1.00
H171   H     0.27628   0.67019   0.40803   0.00000  Uiso   1.00
H172   H     0.21438   0.65964   0.06511   0.00000  Uiso   1.00
H173   H     0.30815   0.97674   0.17697   0.00000  Uiso   1.00
H174   H     0.32303   0.60569   0.59795   0.00000  Uiso   1.00
H175   H     0.19252   0.58346   0.87482   0.00000  Uiso   1.00
O176   O     0.41029   0.04176   0.11887   0.00000  Uiso   1.00
O177   O     0.42982   0.55495   0.67117   0.00000  Uiso   1.00
O178   O     0.25859   0.52578   0.72245   0.00000  Uiso   1.00
N179   N     0.44695   0.93792   0.10912   0.00000  Uiso   1.00
N180   N     0.46086   0.59102   0.50272   0.00000  Uiso   1.00
N181   N     0.33885   0.57022   0.82667   0.00000  Uiso   1.00
N182   N     0.34830   0.95348   0.15838   0.00000  Uiso   1.00
N183   N     0.36222   0.60658   0.55198   0.00000  Uiso   1.00
N184   N     0.24020   0.58578   0.87593   0.00000  Uiso   1.00
C185   C     0.80220   0.09266   0.82550   0.00000  Uiso   1.00
C186   C     0.73089   0.10426   0.83249   0.00000  Uiso   1.00
C187   C     0.68388   0.05982   0.81273   0.00000  Uiso   1.00
C188   C     0.62141   0.07973   0.82343   0.00000  Uiso   1.00
C189   C     0.51293   0.08827   0.82986   0.00000  Uiso   1.00
C190   C     0.82921   0.11072   0.93455   0.00000  Uiso   1.00
C191   C     0.86488   0.07172   0.00057   0.00000  Uiso   1.00
C192   C     0.88518   0.09708   0.09719   0.00000  Uiso   1.00
C193   C     0.92939   0.11567   0.26202   0.00000  Uiso   1.00
C194   C     0.82777   0.14140   0.74661   0.00000  Uiso   1.00
C195   C     0.86225   0.12820   0.65463   0.00000  Uiso   1.00
C196   C     0.88136   0.17939   0.59302   0.00000  Uiso   1.00
C197   C     0.92334   0.24562   0.46605   0.00000  Uiso   1.00
C198   C     0.77486   0.20705   0.87967   0.00000  Uiso   1.00
C199   C     0.71604   0.16638   0.86191   0.00000  Uiso   1.00
C200   C     0.65362   0.18637   0.87265   0.00000  Uiso   1.00
C201   C     0.60653   0.14197   0.85290   0.00000  Uiso   1.00
C202   C     0.81436   0.17285   0.96397   0.00000  Uiso   1.00
C203   C     0.83462   0.19827   0.06050   0.00000  Uiso   1.00
C204   C     0.87030   0.15932   0.12666   0.00000  Uiso   1.00
C205   C     0.81292   0.20353   0.77602   0.00000  Uiso   1.00
C206   C     0.83199   0.25475   0.71455   0.00000  Uiso   1.00
C207   C     0.86648   0.24163   0.62250   0.00000  Uiso   1.00
H208   H     0.81377   0.04429   0.80261   0.00000  Uiso   1.00
H209   H     0.69539   0.01174   0.78997   0.00000  Uiso   1.00
H210   H     0.87637   0.02364   0.97778   0.00000  Uiso   1.00
H211   H     0.87374   0.08012   0.63189   0.00000  Uiso   1.00
H212   H     0.55760   0.00305   0.78897   0.00000  Uiso   1.00
H213   H     0.93921   0.02815   0.18497   0.00000  Uiso   1.00
H214   H     0.93367   0.14723   0.45558   0.00000  Uiso   1.00
H215   H     0.76329   0.25542   0.90258   0.00000  Uiso   1.00
H216   H     0.64214   0.23445   0.89542   0.00000  Uiso   1.00
H217   H     0.82312   0.24635   0.08324   0.00000  Uiso   1.00
H218   H     0.82049   0.30282   0.73734   0.00000  Uiso   1.00
H219   H     0.51438   0.18381   0.87456   0.00000  Uiso   1.00
H220   H     0.89599   0.20891   0.27056   0.00000  Uiso   1.00
H221   H     0.89045   0.32799   0.54118   0.00000  Uiso   1.00
O222   O     0.45720   0.07582   0.82529   0.00000  Uiso   1.00
O223   O     0.95787   0.10875   0.34481   0.00000  Uiso   1.00
O224   O     0.95060   0.26498   0.38788   0.00000  Uiso   1.00
N225   N     0.56405   0.04847   0.81008   0.00000  Uiso   1.00
N226   N     0.92083   0.07193   0.18032   0.00000  Uiso   1.00
N227   N     0.91566   0.18327   0.49842   0.00000  Uiso   1.00
N228   N     0.54080   0.14573   0.85613   0.00000  Uiso   1.00
N229   N     0.89757   0.16920   0.22637   0.00000  Uiso   1.00
N230   N     0.89240   0.28053   0.54447   0.00000  Uiso   1.00
C231   C     0.07577   0.19837   0.64178   0.00000  Uiso   1.00
C232   C     0.09362   0.26819   0.64480   0.00000  Uiso   1.00
C233   C     0.05367   0.31823   0.61992   0.00000  Uiso   1.00
C234   C     0.07900   0.37863   0.62762   0.00000  Uiso   1.00
C235   C     0.09712   0.48554   0.62757   0.00000  Uiso   1.00
C236   C     0.08978   0.17259   0.75329   0.00000  Uiso   1.00
C237   C     0.04661   0.14224   0.81961   0.00000  Uiso   1.00
C238   C     0.06871   0.12217   0.91864   0.00000  Uiso   1.00
C239   C     0.08088   0.08061   0.08699   0.00000  Uiso   1.00
C240   C     0.12341   0.16687   0.56697   0.00000  Uiso   1.00
C241   C     0.10851   0.13169   0.47664   0.00000  Uiso   1.00
C242   C     0.15892   0.10678   0.41880   0.00000  Uiso   1.00
C243   C     0.22330   0.05634   0.29786   0.00000  Uiso   1.00
C244   C     0.19178   0.21667   0.69972   0.00000  Uiso   1.00
C245   C     0.15663   0.27813   0.67627   0.00000  Uiso   1.00
C246   C     0.18202   0.33847   0.68401   0.00000  Uiso   1.00
C247   C     0.14212   0.38859   0.65914   0.00000  Uiso   1.00
C248   C     0.15279   0.18253   0.78476   0.00000  Uiso   1.00
C249   C     0.17496   0.16249   0.88371   0.00000  Uiso   1.00
C250   C     0.13183   0.13212   0.95017   0.00000  Uiso   1.00
C251   C     0.18642   0.17681   0.59843   0.00000  Uiso   1.00
C252   C     0.23686   0.15194   0.54073   0.00000  Uiso   1.00
C253   C     0.22204   0.11674   0.45033   0.00000  Uiso   1.00
H254   H     0.02671   0.19063   0.61729   0.00000  Uiso   1.00
H255   H     0.00491   0.31052   0.59558   0.00000  Uiso   1.00
H256   H     0.99785   0.13455   0.79524   0.00000  Uiso   1.00
H257   H     0.05974   0.12401   0.45231   0.00000  Uiso   1.00
H258   H     0.00852   0.44782   0.58541   0.00000  Uiso   1.00
H259   H     0.99364   0.07677   0.00640   0.00000  Uiso   1.00
H260   H     0.12415   0.05453   0.28327   0.00000  Uiso   1.00
H261   H     0.24084   0.22441   0.72422   0.00000  Uiso   1.00
H262   H     0.23079   0.34615   0.70837   0.00000  Uiso   1.00
H263   H     0.22372   0.17019   0.90803   0.00000  Uiso   1.00
H264   H     0.28562   0.15964   0.56511   0.00000  Uiso   1.00
H265   H     0.19185   0.47674   0.67697   0.00000  Uiso   1.00
H266   H     0.17697   0.10569   0.09795   0.00000  Uiso   1.00
H267   H     0.30748   0.08346   0.37482   0.00000  Uiso   1.00
O268   O     0.08971   0.54176   0.61887   0.00000  Uiso   1.00
O269   O     0.07018   0.05495   0.17117   0.00000  Uiso   1.00
O270   O     0.24141   0.02578   0.22245   0.00000  Uiso   1.00
N271   N     0.05305   0.43792   0.60912   0.00000  Uiso   1.00
N272   N     0.03914   0.09102   0.00272   0.00000  Uiso   1.00
N273   N     0.16115   0.07022   0.32667   0.00000  Uiso   1.00
N274   N     0.15170   0.45348   0.65838   0.00000  Uiso   1.00
N275   N     0.13778   0.10658   0.05198   0.00000  Uiso   1.00
N276   N     0.25980   0.08578   0.37593   0.00000  Uiso   1.00
C277   C     0.19780   0.90734   0.82550   0.00000  Uiso   1.00
C278   C     0.26911   0.89574   0.83249   0.00000  Uiso   1.00
C279   C     0.31612   0.94018   0.81273   0.00000  Uiso   1.00
C280   C     0.37859   0.92027   0.82343   0.00000  Uiso   1.00
C281   C     0.48707   0.91173   0.82986   0.00000  Uiso   1.00
C282   C     0.17079   0.88928   0.93455   0.00000  Uiso   1.00
C283   C     0.13512   0.92828   0.00057   0.00000  Uiso   1.00
C284   C     0.11482   0.90292   0.09719   0.00000  Uiso   1.00
C285   C     0.07061   0.88433   0.26202   0.00000  Uiso   1.00
C286   C     0.17223   0.85860   0.74661   0.00000  Uiso   1.00
C287   C     0.13775   0.87180   0.65463   0.00000  Uiso   1.00
C288   C     0.11864   0.82061   0.59302   0.00000  Uiso   1.00
C289   C     0.07666   0.75438   0.46605   0.00000  Uiso   1.00
C290   C     0.22514   0.79295   0.87967   0.00000  Uiso   1.00
C291   C     0.28396   0.83362   0.86191   0.00000  Uiso   1.00
C292   C     0.34638   0.81363   0.87265   0.00000  Uiso   1.00
C293   C     0.39347   0.85803   0.85290   0.00000  Uiso   1.00
C294   C     0.18564   0.82715   0.96397   0.00000  Uiso   1.00
C295   C     0.16538   0.80173   0.06050   0.00000  Uiso   1.00
C296   C     0.12970   0.84068   0.12666   0.00000  Uiso   1.00
C297   C     0.18708   0.79647   0.77602   0.00000  Uiso   1.00
C298   C     0.16801   0.74525   0.71455   0.00000  Uiso   1.00
C299   C     0.13352   0.75837   0.62250   0.00000  Uiso   1.00
H300   H     0.18623   0.95571   0.80261   0.00000  Uiso   1.00
H301   H     0.30461   0.98826   0.78997   0.00000  Uiso   1.00
H302   H     0.12363   0.97636   0.97778   0.00000  Uiso   1.00
H303   H     0.12626   0.91988   0.63189   0.00000  Uiso   1.00
H304   H     0.44240   0.99695   0.78897   0.00000  Uiso   1.00
H305   H     0.06079   0.97185   0.18497   0.00000  Uiso   1.00
H306   H     0.06633   0.85277   0.45558   0.00000  Uiso   1.00
H307   H     0.23671   0.74458   0.90258   0.00000  Uiso   1.00
H308   H     0.35786   0.76555   0.89542   0.00000  Uiso   1.00
H309   H     0.17688   0.75365   0.08324   0.00000  Uiso   1.00
H310   H     0.17951   0.69718   0.73734   0.00000  Uiso   1.00
H311   H     0.48562   0.81619   0.87456   0.00000  Uiso   1.00
H312   H     0.10401   0.79109   0.27056   0.00000  Uiso   1.00
H313   H     0.10955   0.67201   0.54118   0.00000  Uiso   1.00
O314   O     0.54280   0.92418   0.82529   0.00000  Uiso   1.00
O315   O     0.04213   0.89125   0.34481   0.00000  Uiso   1.00
O316   O     0.04940   0.73502   0.38788   0.00000  Uiso   1.00
N317   N     0.43595   0.95153   0.81008   0.00000  Uiso   1.00
N318   N     0.07917   0.92807   0.18032   0.00000  Uiso   1.00
N319   N     0.08434   0.81673   0.49842   0.00000  Uiso   1.00
N320   N     0.45920   0.85427   0.85613   0.00000  Uiso   1.00
N321   N     0.10243   0.83080   0.22637   0.00000  Uiso   1.00
N322   N     0.10760   0.71947   0.54447   0.00000  Uiso   1.00
C323   C     0.92423   0.80163   0.64178   0.00000  Uiso   1.00
C324   C     0.90638   0.73181   0.64480   0.00000  Uiso   1.00
C325   C     0.94633   0.68177   0.61992   0.00000  Uiso   1.00
C326   C     0.92100   0.62137   0.62762   0.00000  Uiso   1.00
C327   C     0.90288   0.51446   0.62757   0.00000  Uiso   1.00
C328   C     0.91022   0.82741   0.75329   0.00000  Uiso   1.00
C329   C     0.95339   0.85776   0.81961   0.00000  Uiso   1.00
C330   C     0.93129   0.87783   0.91864   0.00000  Uiso   1.00
C331   C     0.91912   0.91939   0.08699   0.00000  Uiso   1.00
C332   C     0.87660   0.83313   0.56697   0.00000  Uiso   1.00
C333   C     0.89149   0.86831   0.47664   0.00000  Uiso   1.00
C334   C     0.84108   0.89322   0.41880   0.00000  Uiso   1.00
C335   C     0.77670   0.94366   0.29786   0.00000  Uiso   1.00
C336   C     0.80822   0.78333   0.69972   0.00000  Uiso   1.00
C337   C     0.84337   0.72187   0.67627   0.00000  Uiso   1.00
C338   C     0.81798   0.66153   0.68401   0.00000  Uiso   1.00
C339   C     0.85788   0.61141   0.65914   0.00000  Uiso   1.00
C340   C     0.84721   0.81747   0.78476   0.00000  Uiso   1.00
C341   C     0.82504   0.83751   0.88371   0.00000  Uiso   1.00
C342   C     0.86817   0.86788   0.95017   0.00000  Uiso   1.00
C343   C     0.81358   0.82319   0.59843   0.00000  Uiso   1.00
C344   C     0.76314   0.84806   0.54073   0.00000  Uiso   1.00
C345   C     0.77796   0.88326   0.45033   0.00000  Uiso   1.00
H346   H     0.97329   0.80937   0.61729   0.00000  Uiso   1.00
H347   H     0.99509   0.68948   0.59558   0.00000  Uiso   1.00
H348   H     0.00215   0.86545   0.79524   0.00000  Uiso   1.00
H349   H     0.94026   0.87599   0.45231   0.00000  Uiso   1.00
H350   H     0.99148   0.55218   0.58541   0.00000  Uiso   1.00
H351   H     0.00636   0.92323   0.00640   0.00000  Uiso   1.00
H352   H     0.87585   0.94547   0.28327   0.00000  Uiso   1.00
H353   H     0.75916   0.77559   0.72422   0.00000  Uiso   1.00
H354   H     0.76921   0.65385   0.70837   0.00000  Uiso   1.00
H355   H     0.77628   0.82981   0.90803   0.00000  Uiso   1.00
H356   H     0.71438   0.84036   0.56511   0.00000  Uiso   1.00
H357   H     0.80815   0.52326   0.67697   0.00000  Uiso   1.00
H358   H     0.82303   0.89431   0.09795   0.00000  Uiso   1.00
H359   H     0.69252   0.91654   0.37482   0.00000  Uiso   1.00
O360   O     0.91029   0.45824   0.61887   0.00000  Uiso   1.00
O361   O     0.92982   0.94505   0.17117   0.00000  Uiso   1.00
O362   O     0.75859   0.97422   0.22245   0.00000  Uiso   1.00
N363   N     0.94695   0.56208   0.60912   0.00000  Uiso   1.00
N364   N     0.96086   0.90898   0.00272   0.00000  Uiso   1.00
N365   N     0.83885   0.92978   0.32667   0.00000  Uiso   1.00
N366   N     0.84830   0.54652   0.65838   0.00000  Uiso   1.00
N367   N     0.86222   0.89342   0.05198   0.00000  Uiso   1.00
N368   N     0.74020   0.91422   0.37593   0.00000  Uiso   1.00
