data_job_00966
_audit_creation_date              2018-12-19
_audit_creation_method            'Materials Studio'
_symmetry_space_group_name_H-M    'P1'
_symmetry_Int_Tables_number       1
_symmetry_cell_setting            triclinic
loop_
_symmetry_equiv_pos_as_xyz
  x,y,z
_cell_length_a                    42.2100
_cell_length_b                    7.0123
_cell_length_c                    11.6572
_cell_angle_alpha                 90.0000
_cell_angle_beta                  87.9257
_cell_angle_gamma                 90.0000
loop_
_atom_site_label
_atom_site_type_symbol
_atom_site_fract_x
_atom_site_fract_y
_atom_site_fract_z
_atom_site_U_iso_or_equiv
_atom_site_adp_type
_atom_site_occupancy
C1     C     0.58793   0.80641   0.96600   0.00000  Uiso   1.00
C2     C     0.56841   0.94680   0.03921   0.00000  Uiso   1.00
C3     C     0.54929   0.90058   0.13454   0.00000  Uiso   1.00
C4     C     0.53336   0.04956   0.18982   0.00000  Uiso   1.00
C5     C     0.50257   0.23888   0.30936   0.00000  Uiso   1.00
C6     C     0.57724   0.83206   0.84339   0.00000  Uiso   1.00
C7     C     0.56556   0.68936   0.77408   0.00000  Uiso   1.00
C8     C     0.55706   0.74175   0.66452   0.00000  Uiso   1.00
C9     C     0.54001   0.75291   0.48001   0.00000  Uiso   1.00
C10    C     0.62203   0.87800   0.96651   0.00000  Uiso   1.00
C11    C     0.64802   0.77392   0.00069   0.00000  Uiso   1.00
C12    C     0.67724   0.86498   0.99476   0.00000  Uiso   1.00
C13    C     0.72973   0.94747   0.00142   0.00000  Uiso   1.00
C14    C     0.59362   0.15317   0.89467   0.00000  Uiso   1.00
C15    C     0.57150   0.13514   0.00046   0.00000  Uiso   1.00
C16    C     0.55559   0.28424   0.05562   0.00000  Uiso   1.00
C17    C     0.53646   0.23825   0.15101   0.00000  Uiso   1.00
C18    C     0.58033   0.02040   0.80464   0.00000  Uiso   1.00
C19    C     0.57185   0.07301   0.69516   0.00000  Uiso   1.00
C20    C     0.56016   0.93044   0.62570   0.00000  Uiso   1.00
C21    C     0.62512   0.06635   0.92777   0.00000  Uiso   1.00
C22    C     0.65431   0.15758   0.92177   0.00000  Uiso   1.00
C23    C     0.68034   0.05367   0.95594   0.00000  Uiso   1.00
H24    H     0.58552   0.65977   0.99616   0.00000  Uiso   1.00
H25    H     0.54690   0.75480   0.16449   0.00000  Uiso   1.00
H26    H     0.56317   0.54361   0.80408   0.00000  Uiso   1.00
H27    H     0.64561   0.62817   0.03067   0.00000  Uiso   1.00
H28    H     0.50545   0.94321   0.33400   0.00000  Uiso   1.00
H29    H     0.53975   0.49790   0.57406   0.00000  Uiso   1.00
H30    H     0.71361   0.67619   0.05184   0.00000  Uiso   1.00
H31    H     0.59603   0.29982   0.86450   0.00000  Uiso   1.00
H32    H     0.55799   0.42998   0.02561   0.00000  Uiso   1.00
H33    H     0.57425   0.21878   0.66520   0.00000  Uiso   1.00
H34    H     0.65670   0.30334   0.89179   0.00000  Uiso   1.00
H35    H     0.51444   0.49121   0.22128   0.00000  Uiso   1.00
H36    H     0.54875   0.04588   0.46133   0.00000  Uiso   1.00
H37    H     0.72260   0.22419   0.93912   0.00000  Uiso   1.00
O38    O     0.48473   0.29128   0.38598   0.00000  Uiso   1.00
O39    O     0.52974   0.70703   0.38895   0.00000  Uiso   1.00
O40    O     0.75783   0.94095   0.01581   0.00000  Uiso   1.00
N41    N     0.51279   0.05433   0.28538   0.00000  Uiso   1.00
N42    N     0.54486   0.63799   0.57488   0.00000  Uiso   1.00
N43    N     0.70740   0.80466   0.02154   0.00000  Uiso   1.00
N44    N     0.51763   0.34920   0.22473   0.00000  Uiso   1.00
N45    N     0.54970   0.93286   0.51422   0.00000  Uiso   1.00
N46    N     0.71224   0.09953   0.96089   0.00000  Uiso   1.00
C47    C     0.08793   0.30641   0.96600   0.00000  Uiso   1.00
C48    C     0.06841   0.44680   0.03921   0.00000  Uiso   1.00
C49    C     0.04929   0.40058   0.13454   0.00000  Uiso   1.00
C50    C     0.03336   0.54956   0.18982   0.00000  Uiso   1.00
C51    C     0.00257   0.73888   0.30936   0.00000  Uiso   1.00
C52    C     0.07724   0.33206   0.84339   0.00000  Uiso   1.00
C53    C     0.06556   0.18936   0.77408   0.00000  Uiso   1.00
C54    C     0.05706   0.24175   0.66452   0.00000  Uiso   1.00
C55    C     0.04001   0.25291   0.48001   0.00000  Uiso   1.00
C56    C     0.12203   0.37800   0.96651   0.00000  Uiso   1.00
C57    C     0.14802   0.27392   0.00069   0.00000  Uiso   1.00
C58    C     0.17724   0.36498   0.99476   0.00000  Uiso   1.00
C59    C     0.22973   0.44747   0.00142   0.00000  Uiso   1.00
C60    C     0.09362   0.65317   0.89467   0.00000  Uiso   1.00
C61    C     0.07150   0.63514   0.00046   0.00000  Uiso   1.00
C62    C     0.05559   0.78424   0.05562   0.00000  Uiso   1.00
C63    C     0.03646   0.73825   0.15101   0.00000  Uiso   1.00
C64    C     0.08033   0.52040   0.80464   0.00000  Uiso   1.00
C65    C     0.07185   0.57301   0.69516   0.00000  Uiso   1.00
C66    C     0.06016   0.43044   0.62570   0.00000  Uiso   1.00
C67    C     0.12512   0.56635   0.92777   0.00000  Uiso   1.00
C68    C     0.15431   0.65758   0.92177   0.00000  Uiso   1.00
C69    C     0.18034   0.55367   0.95594   0.00000  Uiso   1.00
H70    H     0.08552   0.15977   0.99616   0.00000  Uiso   1.00
H71    H     0.04690   0.25480   0.16449   0.00000  Uiso   1.00
H72    H     0.06317   0.04361   0.80408   0.00000  Uiso   1.00
H73    H     0.14561   0.12817   0.03067   0.00000  Uiso   1.00
H74    H     0.00545   0.44321   0.33400   0.00000  Uiso   1.00
H75    H     0.03975   0.99790   0.57406   0.00000  Uiso   1.00
H76    H     0.21361   0.17619   0.05184   0.00000  Uiso   1.00
H77    H     0.09603   0.79982   0.86450   0.00000  Uiso   1.00
H78    H     0.05799   0.92998   0.02561   0.00000  Uiso   1.00
H79    H     0.07425   0.71878   0.66520   0.00000  Uiso   1.00
H80    H     0.15670   0.80334   0.89179   0.00000  Uiso   1.00
H81    H     0.01444   0.99121   0.22128   0.00000  Uiso   1.00
H82    H     0.04875   0.54588   0.46133   0.00000  Uiso   1.00
H83    H     0.22260   0.72419   0.93912   0.00000  Uiso   1.00
O84    O     0.98473   0.79128   0.38598   0.00000  Uiso   1.00
O85    O     0.02974   0.20703   0.38895   0.00000  Uiso   1.00
O86    O     0.25783   0.44095   0.01581   0.00000  Uiso   1.00
N87    N     0.01279   0.55433   0.28538   0.00000  Uiso   1.00
N88    N     0.04486   0.13799   0.57488   0.00000  Uiso   1.00
N89    N     0.20740   0.30466   0.02154   0.00000  Uiso   1.00
N90    N     0.01763   0.84920   0.22473   0.00000  Uiso   1.00
N91    N     0.04970   0.43286   0.51422   0.00000  Uiso   1.00
N92    N     0.21224   0.59953   0.96089   0.00000  Uiso   1.00
C93    C     0.41207   0.80641   0.03400   0.00000  Uiso   1.00
C94    C     0.43159   0.94680   0.96079   0.00000  Uiso   1.00
C95    C     0.45071   0.90058   0.86546   0.00000  Uiso   1.00
C96    C     0.46664   0.04956   0.81018   0.00000  Uiso   1.00
C97    C     0.49743   0.23888   0.69064   0.00000  Uiso   1.00
C98    C     0.42276   0.83206   0.15661   0.00000  Uiso   1.00
C99    C     0.43444   0.68936   0.22592   0.00000  Uiso   1.00
C100   C     0.44294   0.74175   0.33548   0.00000  Uiso   1.00
C101   C     0.45999   0.75291   0.51999   0.00000  Uiso   1.00
C102   C     0.37797   0.87800   0.03349   0.00000  Uiso   1.00
C103   C     0.35198   0.77392   0.99931   0.00000  Uiso   1.00
C104   C     0.32276   0.86498   0.00524   0.00000  Uiso   1.00
C105   C     0.27027   0.94747   0.99858   0.00000  Uiso   1.00
C106   C     0.40638   0.15317   0.10533   0.00000  Uiso   1.00
C107   C     0.42850   0.13514   0.99954   0.00000  Uiso   1.00
C108   C     0.44441   0.28424   0.94438   0.00000  Uiso   1.00
C109   C     0.46354   0.23825   0.84899   0.00000  Uiso   1.00
C110   C     0.41967   0.02040   0.19536   0.00000  Uiso   1.00
C111   C     0.42815   0.07301   0.30484   0.00000  Uiso   1.00
C112   C     0.43984   0.93044   0.37430   0.00000  Uiso   1.00
C113   C     0.37488   0.06635   0.07223   0.00000  Uiso   1.00
C114   C     0.34569   0.15758   0.07823   0.00000  Uiso   1.00
C115   C     0.31966   0.05367   0.04406   0.00000  Uiso   1.00
H116   H     0.41448   0.65977   0.00384   0.00000  Uiso   1.00
H117   H     0.45310   0.75480   0.83551   0.00000  Uiso   1.00
H118   H     0.43683   0.54361   0.19592   0.00000  Uiso   1.00
H119   H     0.35439   0.62817   0.96933   0.00000  Uiso   1.00
H120   H     0.49455   0.94321   0.66600   0.00000  Uiso   1.00
H121   H     0.46025   0.49790   0.42594   0.00000  Uiso   1.00
H122   H     0.28639   0.67619   0.94816   0.00000  Uiso   1.00
H123   H     0.40397   0.29982   0.13550   0.00000  Uiso   1.00
H124   H     0.44201   0.42998   0.97439   0.00000  Uiso   1.00
H125   H     0.42575   0.21878   0.33480   0.00000  Uiso   1.00
H126   H     0.34330   0.30334   0.10821   0.00000  Uiso   1.00
H127   H     0.48556   0.49121   0.77872   0.00000  Uiso   1.00
H128   H     0.45125   0.04588   0.53867   0.00000  Uiso   1.00
H129   H     0.27740   0.22419   0.06088   0.00000  Uiso   1.00
O130   O     0.51527   0.29128   0.61402   0.00000  Uiso   1.00
O131   O     0.47026   0.70703   0.61105   0.00000  Uiso   1.00
O132   O     0.24217   0.94095   0.98419   0.00000  Uiso   1.00
N133   N     0.48721   0.05433   0.71462   0.00000  Uiso   1.00
N134   N     0.45514   0.63799   0.42512   0.00000  Uiso   1.00
N135   N     0.29260   0.80466   0.97846   0.00000  Uiso   1.00
N136   N     0.48237   0.34920   0.77527   0.00000  Uiso   1.00
N137   N     0.45030   0.93286   0.48578   0.00000  Uiso   1.00
N138   N     0.28776   0.09953   0.03911   0.00000  Uiso   1.00
C139   C     0.91207   0.30641   0.03400   0.00000  Uiso   1.00
C140   C     0.93159   0.44680   0.96079   0.00000  Uiso   1.00
C141   C     0.95071   0.40058   0.86546   0.00000  Uiso   1.00
C142   C     0.96664   0.54956   0.81018   0.00000  Uiso   1.00
C143   C     0.99743   0.73888   0.69064   0.00000  Uiso   1.00
C144   C     0.92276   0.33206   0.15661   0.00000  Uiso   1.00
C145   C     0.93444   0.18936   0.22592   0.00000  Uiso   1.00
C146   C     0.94294   0.24175   0.33548   0.00000  Uiso   1.00
C147   C     0.95999   0.25291   0.51999   0.00000  Uiso   1.00
C148   C     0.87797   0.37800   0.03349   0.00000  Uiso   1.00
C149   C     0.85198   0.27392   0.99931   0.00000  Uiso   1.00
C150   C     0.82276   0.36498   0.00524   0.00000  Uiso   1.00
C151   C     0.77027   0.44747   0.99858   0.00000  Uiso   1.00
C152   C     0.90638   0.65317   0.10533   0.00000  Uiso   1.00
C153   C     0.92850   0.63514   0.99954   0.00000  Uiso   1.00
C154   C     0.94441   0.78424   0.94438   0.00000  Uiso   1.00
C155   C     0.96354   0.73825   0.84899   0.00000  Uiso   1.00
C156   C     0.91967   0.52040   0.19536   0.00000  Uiso   1.00
C157   C     0.92815   0.57301   0.30484   0.00000  Uiso   1.00
C158   C     0.93984   0.43044   0.37430   0.00000  Uiso   1.00
C159   C     0.87488   0.56635   0.07223   0.00000  Uiso   1.00
C160   C     0.84569   0.65758   0.07823   0.00000  Uiso   1.00
C161   C     0.81966   0.55367   0.04406   0.00000  Uiso   1.00
H162   H     0.91448   0.15977   0.00384   0.00000  Uiso   1.00
H163   H     0.95310   0.25480   0.83551   0.00000  Uiso   1.00
H164   H     0.93683   0.04361   0.19592   0.00000  Uiso   1.00
H165   H     0.85439   0.12817   0.96933   0.00000  Uiso   1.00
H166   H     0.99455   0.44321   0.66600   0.00000  Uiso   1.00
H167   H     0.96025   0.99790   0.42594   0.00000  Uiso   1.00
H168   H     0.78639   0.17619   0.94816   0.00000  Uiso   1.00
H169   H     0.90397   0.79982   0.13550   0.00000  Uiso   1.00
H170   H     0.94201   0.92998   0.97439   0.00000  Uiso   1.00
H171   H     0.92575   0.71878   0.33480   0.00000  Uiso   1.00
H172   H     0.84330   0.80334   0.10821   0.00000  Uiso   1.00
H173   H     0.98556   0.99121   0.77872   0.00000  Uiso   1.00
H174   H     0.95125   0.54588   0.53867   0.00000  Uiso   1.00
H175   H     0.77740   0.72419   0.06088   0.00000  Uiso   1.00
O176   O     0.01527   0.79128   0.61402   0.00000  Uiso   1.00
O177   O     0.97026   0.20703   0.61105   0.00000  Uiso   1.00
O178   O     0.74217   0.44095   0.98419   0.00000  Uiso   1.00
N179   N     0.98721   0.55433   0.71462   0.00000  Uiso   1.00
N180   N     0.95514   0.13799   0.42512   0.00000  Uiso   1.00
N181   N     0.79260   0.30466   0.97846   0.00000  Uiso   1.00
N182   N     0.98237   0.84920   0.77527   0.00000  Uiso   1.00
N183   N     0.95030   0.43286   0.48578   0.00000  Uiso   1.00
N184   N     0.78776   0.59953   0.03911   0.00000  Uiso   1.00
