data_job_06193
_audit_creation_date              2018-12-19
_audit_creation_method            'Materials Studio'
_symmetry_space_group_name_H-M    'P1'
_symmetry_Int_Tables_number       1
_symmetry_cell_setting            triclinic
loop_
_symmetry_equiv_pos_as_xyz
  x,y,z
_cell_length_a                    15.7639
_cell_length_b                    15.4579
_cell_length_c                    14.0596
_cell_angle_alpha                 93.8641
_cell_angle_beta                  93.6764
_cell_angle_gamma                 90.0395
loop_
_atom_site_label
_atom_site_type_symbol
_atom_site_fract_x
_atom_site_fract_y
_atom_site_fract_z
_atom_site_U_iso_or_equiv
_atom_site_adp_type
_atom_site_occupancy
C1     C     0.51305   0.69812   0.15018   0.00000  Uiso   1.00
C2     C     0.41846   0.71666   0.15608   0.00000  Uiso   1.00
C3     C     0.35281   0.65827   0.13000   0.00000  Uiso   1.00
C4     C     0.27058   0.68775   0.14077   0.00000  Uiso   1.00
C5     C     0.12613   0.70364   0.14447   0.00000  Uiso   1.00
C6     C     0.54704   0.76629   0.08873   0.00000  Uiso   1.00
C7     C     0.58950   0.74962   0.00602   0.00000  Uiso   1.00
C8     C     0.61551   0.82089   0.96010   0.00000  Uiso   1.00
C9     C     0.67073   0.91384   0.85928   0.00000  Uiso   1.00
C10    C     0.55358   0.71846   0.25062   0.00000  Uiso   1.00
C11    C     0.60155   0.66158   0.30403   0.00000  Uiso   1.00
C12    C     0.63309   0.69257   0.39441   0.00000  Uiso   1.00
C13    C     0.69846   0.71125   0.54494   0.00000  Uiso   1.00
C14    C     0.48377   0.85432   0.21569   0.00000  Uiso   1.00
C15    C     0.40256   0.80150   0.19166   0.00000  Uiso   1.00
C16    C     0.32041   0.83108   0.20248   0.00000  Uiso   1.00
C17    C     0.25464   0.77274   0.17642   0.00000  Uiso   1.00
C18    C     0.53113   0.85113   0.12431   0.00000  Uiso   1.00
C19    C     0.55710   0.92244   0.07850   0.00000  Uiso   1.00
C20    C     0.59958   0.90589   0.99575   0.00000  Uiso   1.00
C21    C     0.53767   0.80330   0.28621   0.00000  Uiso   1.00
C22    C     0.56915   0.83439   0.37651   0.00000  Uiso   1.00
C23    C     0.61716   0.77757   0.43005   0.00000  Uiso   1.00
H24    H     0.52544   0.63207   0.12248   0.00000  Uiso   1.00
H25    H     0.36515   0.59261   0.10246   0.00000  Uiso   1.00
H26    H     0.60181   0.68396   0.97851   0.00000  Uiso   1.00
H27    H     0.61385   0.59593   0.27647   0.00000  Uiso   1.00
H28    H     0.18042   0.58629   0.09592   0.00000  Uiso   1.00
H29    H     0.67945   0.77890   0.83459   0.00000  Uiso   1.00
H30    H     0.70486   0.59327   0.46290   0.00000  Uiso   1.00
H31    H     0.47138   0.92038   0.24340   0.00000  Uiso   1.00
H32    H     0.30812   0.89674   0.23002   0.00000  Uiso   1.00
H33    H     0.54478   0.98809   0.10606   0.00000  Uiso   1.00
H34    H     0.55683   0.90005   0.40402   0.00000  Uiso   1.00
H35    H     0.13413   0.83313   0.19945   0.00000  Uiso   1.00
H36    H     0.63317   0.02575   0.93811   0.00000  Uiso   1.00
H37    H     0.65857   0.84011   0.56642   0.00000  Uiso   1.00
O38    O     0.05085   0.68897   0.13667   0.00000  Uiso   1.00
O39    O     0.70558   0.94167   0.79382   0.00000  Uiso   1.00
O40    O     0.73890   0.69811   0.61815   0.00000  Uiso   1.00
N41    N     0.19193   0.64763   0.12214   0.00000  Uiso   1.00
N42    N     0.65849   0.82771   0.87780   0.00000  Uiso   1.00
N43    N     0.68226   0.65416   0.46521   0.00000  Uiso   1.00
N44    N     0.16702   0.78045   0.17785   0.00000  Uiso   1.00
N45    N     0.63358   0.96053   0.93351   0.00000  Uiso   1.00
N46    N     0.65735   0.78698   0.52092   0.00000  Uiso   1.00
C47    C     0.15084   0.51443   0.68040   0.00000  Uiso   1.00
C48    C     0.15994   0.41824   0.69669   0.00000  Uiso   1.00
C49    C     0.14117   0.35026   0.62902   0.00000  Uiso   1.00
C50    C     0.15377   0.26687   0.65798   0.00000  Uiso   1.00
C51    C     0.16325   0.11977   0.66910   0.00000  Uiso   1.00
C52    C     0.09264   0.55149   0.75541   0.00000  Uiso   1.00
C53    C     0.01730   0.59554   0.73710   0.00000  Uiso   1.00
C54    C     0.97325   0.62433   0.81550   0.00000  Uiso   1.00
C55    C     0.87828   0.68415   0.91778   0.00000  Uiso   1.00
C56    C     0.23813   0.55491   0.70683   0.00000  Uiso   1.00
C57    C     0.28512   0.60186   0.64770   0.00000  Uiso   1.00
C58    C     0.36356   0.63354   0.68522   0.00000  Uiso   1.00
C59    C     0.49449   0.69867   0.71208   0.00000  Uiso   1.00
C60    C     0.20659   0.48723   0.85219   0.00000  Uiso   1.00
C61    C     0.19021   0.40348   0.79000   0.00000  Uiso   1.00
C62    C     0.20285   0.32017   0.81908   0.00000  Uiso   1.00
C63    C     0.18410   0.25207   0.75146   0.00000  Uiso   1.00
C64    C     0.12291   0.53672   0.84871   0.00000  Uiso   1.00
C65    C     0.07897   0.56545   0.92716   0.00000  Uiso   1.00
C66    C     0.00358   0.60953   0.90898   0.00000  Uiso   1.00
C67    C     0.26842   0.54013   0.80014   0.00000  Uiso   1.00
C68    C     0.34680   0.57176   0.83776   0.00000  Uiso   1.00
C69    C     0.39389   0.61874   0.77870   0.00000  Uiso   1.00
H70    H     0.12726   0.52593   0.60776   0.00000  Uiso   1.00
H71    H     0.11773   0.36172   0.55681   0.00000  Uiso   1.00
H72    H     0.99389   0.60697   0.66489   0.00000  Uiso   1.00
H73    H     0.26167   0.61327   0.57550   0.00000  Uiso   1.00
H74    H     0.12049   0.17314   0.54149   0.00000  Uiso   1.00
H75    H     0.85937   0.69030   0.76937   0.00000  Uiso   1.00
H76    H     0.42403   0.70360   0.58088   0.00000  Uiso   1.00
H77    H     0.23016   0.47573   0.92484   0.00000  Uiso   1.00
H78    H     0.22628   0.30876   0.89129   0.00000  Uiso   1.00
H79    H     0.10243   0.55401   0.99936   0.00000  Uiso   1.00
H80    H     0.37021   0.56032   0.90997   0.00000  Uiso   1.00
H81    H     0.20858   0.13016   0.81297   0.00000  Uiso   1.00
H82    H     0.94746   0.64732   0.04084   0.00000  Uiso   1.00
H83    H     0.51213   0.66061   0.85235   0.00000  Uiso   1.00
O84    O     0.16010   0.04272   0.64945   0.00000  Uiso   1.00
O85    O     0.81753   0.72122   0.94841   0.00000  Uiso   1.00
O86    O     0.55836   0.73866   0.70111   0.00000  Uiso   1.00
N87    N     0.14177   0.18594   0.60998   0.00000  Uiso   1.00
N88    N     0.89763   0.66944   0.82303   0.00000  Uiso   1.00
N89    N     0.42554   0.68189   0.64681   0.00000  Uiso   1.00
N90    N     0.18917   0.16281   0.75606   0.00000  Uiso   1.00
N91    N     0.94503   0.64631   0.96911   0.00000  Uiso   1.00
N92    N     0.47294   0.65876   0.79289   0.00000  Uiso   1.00
C93    C     0.70527   0.15232   0.50828   0.00000  Uiso   1.00
C94    C     0.72191   0.15920   0.40339   0.00000  Uiso   1.00
C95    C     0.66412   0.13939   0.32633   0.00000  Uiso   1.00
C96    C     0.69159   0.14996   0.23594   0.00000  Uiso   1.00
C97    C     0.70492   0.15613   0.07501   0.00000  Uiso   1.00
C98    C     0.77392   0.09277   0.54811   0.00000  Uiso   1.00
C99    C     0.75987   0.01714   0.59274   0.00000  Uiso   1.00
C100   C     0.83113   0.97179   0.62419   0.00000  Uiso   1.00
C101   C     0.92521   0.87488   0.68801   0.00000  Uiso   1.00
C102   C     0.72383   0.24198   0.55724   0.00000  Uiso   1.00
C103   C     0.66767   0.29179   0.60957   0.00000  Uiso   1.00
C104   C     0.69676   0.37206   0.64872   0.00000  Uiso   1.00
C105   C     0.71307   0.50681   0.72671   0.00000  Uiso   1.00
C106   C     0.85682   0.20630   0.48480   0.00000  Uiso   1.00
C107   C     0.80423   0.18851   0.39064   0.00000  Uiso   1.00
C108   C     0.83179   0.19911   0.30035   0.00000  Uiso   1.00
C109   C     0.77405   0.17933   0.22316   0.00000  Uiso   1.00
C110   C     0.85624   0.12209   0.53536   0.00000  Uiso   1.00
C111   C     0.92753   0.07685   0.56676   0.00000  Uiso   1.00
C112   C     0.91359   0.00116   0.61141   0.00000  Uiso   1.00
C113   C     0.80614   0.27130   0.54449   0.00000  Uiso   1.00
C114   C     0.83533   0.35150   0.58358   0.00000  Uiso   1.00
C115   C     0.77922   0.40143   0.63595   0.00000  Uiso   1.00
H116   H     0.64119   0.12950   0.51821   0.00000  Uiso   1.00
H117   H     0.60043   0.11670   0.33622   0.00000  Uiso   1.00
H118   H     0.69616   0.99447   0.60261   0.00000  Uiso   1.00
H119   H     0.60397   0.26908   0.61942   0.00000  Uiso   1.00
H120   H     0.59155   0.11541   0.12883   0.00000  Uiso   1.00
H121   H     0.79340   0.85770   0.69054   0.00000  Uiso   1.00
H122   H     0.59901   0.43677   0.72600   0.00000  Uiso   1.00
H123   H     0.92090   0.22912   0.47487   0.00000  Uiso   1.00
H124   H     0.89549   0.22180   0.29050   0.00000  Uiso   1.00
H125   H     0.99122   0.09956   0.55688   0.00000  Uiso   1.00
H126   H     0.89904   0.37417   0.57370   0.00000  Uiso   1.00
H127   H     0.83103   0.20071   0.09172   0.00000  Uiso   1.00
H128   H     0.03289   0.94299   0.65343   0.00000  Uiso   1.00
H129   H     0.83850   0.52206   0.68889   0.00000  Uiso   1.00
O130   O     0.68954   0.15142   0.98977   0.00000  Uiso   1.00
O131   O     0.95436   0.81331   0.72673   0.00000  Uiso   1.00
O132   O     0.69932   0.57304   0.77324   0.00000  Uiso   1.00
N133   N     0.65139   0.13651   0.14540   0.00000  Uiso   1.00
N134   N     0.84012   0.89555   0.67055   0.00000  Uiso   1.00
N135   N     0.65838   0.43692   0.70373   0.00000  Uiso   1.00
N136   N     0.78026   0.18241   0.12543   0.00000  Uiso   1.00
N137   N     0.96898   0.94145   0.65058   0.00000  Uiso   1.00
N138   N     0.78725   0.48282   0.68376   0.00000  Uiso   1.00
C139   C     0.48695   0.30188   0.84982   0.00000  Uiso   1.00
C140   C     0.58154   0.28334   0.84392   0.00000  Uiso   1.00
C141   C     0.64719   0.34174   0.87000   0.00000  Uiso   1.00
C142   C     0.72942   0.31226   0.85923   0.00000  Uiso   1.00
C143   C     0.87387   0.29636   0.85553   0.00000  Uiso   1.00
C144   C     0.45296   0.23371   0.91127   0.00000  Uiso   1.00
C145   C     0.41050   0.25038   0.99398   0.00000  Uiso   1.00
C146   C     0.38449   0.17911   0.03990   0.00000  Uiso   1.00
C147   C     0.32927   0.08616   0.14072   0.00000  Uiso   1.00
C148   C     0.44642   0.28154   0.74938   0.00000  Uiso   1.00
C149   C     0.39845   0.33842   0.69597   0.00000  Uiso   1.00
C150   C     0.36691   0.30743   0.60559   0.00000  Uiso   1.00
C151   C     0.30154   0.28875   0.45506   0.00000  Uiso   1.00
C152   C     0.51624   0.14568   0.78431   0.00000  Uiso   1.00
C153   C     0.59744   0.19850   0.80834   0.00000  Uiso   1.00
C154   C     0.67959   0.16892   0.79752   0.00000  Uiso   1.00
C155   C     0.74536   0.22726   0.82358   0.00000  Uiso   1.00
C156   C     0.46887   0.14887   0.87569   0.00000  Uiso   1.00
C157   C     0.44290   0.07756   0.92150   0.00000  Uiso   1.00
C158   C     0.40042   0.09411   0.00425   0.00000  Uiso   1.00
C159   C     0.46233   0.19670   0.71379   0.00000  Uiso   1.00
C160   C     0.43085   0.16561   0.62349   0.00000  Uiso   1.00
C161   C     0.38284   0.22243   0.56995   0.00000  Uiso   1.00
H162   H     0.47456   0.36793   0.87752   0.00000  Uiso   1.00
H163   H     0.63486   0.40739   0.89754   0.00000  Uiso   1.00
H164   H     0.39820   0.31604   0.02149   0.00000  Uiso   1.00
H165   H     0.38615   0.40407   0.72353   0.00000  Uiso   1.00
H166   H     0.81958   0.41371   0.90408   0.00000  Uiso   1.00
H167   H     0.32055   0.22110   0.16541   0.00000  Uiso   1.00
H168   H     0.29514   0.40673   0.53710   0.00000  Uiso   1.00
H169   H     0.52862   0.07962   0.75661   0.00000  Uiso   1.00
H170   H     0.69188   0.10326   0.76998   0.00000  Uiso   1.00
H171   H     0.45522   0.01191   0.89394   0.00000  Uiso   1.00
H172   H     0.44318   0.09995   0.59598   0.00000  Uiso   1.00
H173   H     0.86587   0.16687   0.80055   0.00000  Uiso   1.00
H174   H     0.36683   0.97426   0.06189   0.00000  Uiso   1.00
H175   H     0.34143   0.15990   0.43358   0.00000  Uiso   1.00
O176   O     0.94915   0.31103   0.86333   0.00000  Uiso   1.00
O177   O     0.29442   0.05833   0.20618   0.00000  Uiso   1.00
O178   O     0.26110   0.30189   0.38185   0.00000  Uiso   1.00
N179   N     0.80807   0.35237   0.87786   0.00000  Uiso   1.00
N180   N     0.34151   0.17229   0.12220   0.00000  Uiso   1.00
N181   N     0.31774   0.34584   0.53479   0.00000  Uiso   1.00
N182   N     0.83298   0.21955   0.82215   0.00000  Uiso   1.00
N183   N     0.36642   0.03947   0.06649   0.00000  Uiso   1.00
N184   N     0.34265   0.21302   0.47909   0.00000  Uiso   1.00
C185   C     0.84916   0.48557   0.31960   0.00000  Uiso   1.00
C186   C     0.84006   0.58176   0.30331   0.00000  Uiso   1.00
C187   C     0.85883   0.64974   0.37098   0.00000  Uiso   1.00
C188   C     0.84624   0.73313   0.34202   0.00000  Uiso   1.00
C189   C     0.83675   0.88023   0.33090   0.00000  Uiso   1.00
C190   C     0.90736   0.44851   0.24460   0.00000  Uiso   1.00
C191   C     0.98270   0.40446   0.26290   0.00000  Uiso   1.00
C192   C     0.02675   0.37567   0.18450   0.00000  Uiso   1.00
C193   C     0.12172   0.31585   0.08222   0.00000  Uiso   1.00
C194   C     0.76187   0.44509   0.29317   0.00000  Uiso   1.00
C195   C     0.71488   0.39814   0.35230   0.00000  Uiso   1.00
C196   C     0.63644   0.36646   0.31478   0.00000  Uiso   1.00
C197   C     0.50551   0.30133   0.28792   0.00000  Uiso   1.00
C198   C     0.79342   0.51277   0.14781   0.00000  Uiso   1.00
C199   C     0.80979   0.59652   0.21000   0.00000  Uiso   1.00
C200   C     0.79715   0.67983   0.18092   0.00000  Uiso   1.00
C201   C     0.81590   0.74793   0.24854   0.00000  Uiso   1.00
C202   C     0.87709   0.46328   0.15129   0.00000  Uiso   1.00
C203   C     0.92103   0.43455   0.07284   0.00000  Uiso   1.00
C204   C     0.99642   0.39047   0.09102   0.00000  Uiso   1.00
C205   C     0.73158   0.45987   0.19986   0.00000  Uiso   1.00
C206   C     0.65320   0.42824   0.16224   0.00000  Uiso   1.00
C207   C     0.60611   0.38126   0.22130   0.00000  Uiso   1.00
H208   H     0.87274   0.47407   0.39224   0.00000  Uiso   1.00
H209   H     0.88227   0.63828   0.44319   0.00000  Uiso   1.00
H210   H     0.00611   0.39303   0.33511   0.00000  Uiso   1.00
H211   H     0.73833   0.38673   0.42450   0.00000  Uiso   1.00
H212   H     0.87951   0.82686   0.45851   0.00000  Uiso   1.00
H213   H     0.14063   0.30970   0.23063   0.00000  Uiso   1.00
H214   H     0.57597   0.29640   0.41913   0.00000  Uiso   1.00
H215   H     0.76984   0.52427   0.07516   0.00000  Uiso   1.00
H216   H     0.77372   0.69124   0.10871   0.00000  Uiso   1.00
H217   H     0.89757   0.44599   0.00064   0.00000  Uiso   1.00
H218   H     0.62979   0.43968   0.09003   0.00000  Uiso   1.00
H219   H     0.79142   0.86984   0.18703   0.00000  Uiso   1.00
H220   H     0.05254   0.35268   0.95916   0.00000  Uiso   1.00
H221   H     0.48787   0.33939   0.14765   0.00000  Uiso   1.00
O222   O     0.83990   0.95728   0.35055   0.00000  Uiso   1.00
O223   O     0.18247   0.27878   0.05159   0.00000  Uiso   1.00
O224   O     0.44164   0.26134   0.29889   0.00000  Uiso   1.00
N225   N     0.85823   0.81406   0.39002   0.00000  Uiso   1.00
N226   N     0.10237   0.33056   0.17697   0.00000  Uiso   1.00
N227   N     0.57446   0.31811   0.35319   0.00000  Uiso   1.00
N228   N     0.81083   0.83719   0.24394   0.00000  Uiso   1.00
N229   N     0.05497   0.35369   0.03089   0.00000  Uiso   1.00
N230   N     0.52706   0.34124   0.20711   0.00000  Uiso   1.00
C231   C     0.29473   0.84768   0.49172   0.00000  Uiso   1.00
C232   C     0.27809   0.84081   0.59661   0.00000  Uiso   1.00
C233   C     0.33588   0.86061   0.67367   0.00000  Uiso   1.00
C234   C     0.30841   0.85004   0.76406   0.00000  Uiso   1.00
C235   C     0.29508   0.84387   0.92499   0.00000  Uiso   1.00
C236   C     0.22608   0.90723   0.45189   0.00000  Uiso   1.00
C237   C     0.24013   0.98287   0.40726   0.00000  Uiso   1.00
C238   C     0.16887   0.02821   0.37581   0.00000  Uiso   1.00
C239   C     0.07479   0.12512   0.31199   0.00000  Uiso   1.00
C240   C     0.27617   0.75802   0.44276   0.00000  Uiso   1.00
C241   C     0.33233   0.70821   0.39043   0.00000  Uiso   1.00
C242   C     0.30324   0.62794   0.35128   0.00000  Uiso   1.00
C243   C     0.28693   0.49319   0.27329   0.00000  Uiso   1.00
C244   C     0.14318   0.79370   0.51520   0.00000  Uiso   1.00
C245   C     0.19578   0.81149   0.60936   0.00000  Uiso   1.00
C246   C     0.16821   0.80089   0.69965   0.00000  Uiso   1.00
C247   C     0.22595   0.82067   0.77684   0.00000  Uiso   1.00
C248   C     0.14376   0.87791   0.46464   0.00000  Uiso   1.00
C249   C     0.07247   0.92315   0.43324   0.00000  Uiso   1.00
C250   C     0.08641   0.99884   0.38859   0.00000  Uiso   1.00
C251   C     0.19386   0.72870   0.45551   0.00000  Uiso   1.00
C252   C     0.16467   0.64850   0.41642   0.00000  Uiso   1.00
C253   C     0.22078   0.59857   0.36405   0.00000  Uiso   1.00
H254   H     0.35881   0.87051   0.48179   0.00000  Uiso   1.00
H255   H     0.39957   0.88330   0.66378   0.00000  Uiso   1.00
H256   H     0.30384   0.00553   0.39740   0.00000  Uiso   1.00
H257   H     0.39603   0.73092   0.38058   0.00000  Uiso   1.00
H258   H     0.40845   0.88459   0.87117   0.00000  Uiso   1.00
H259   H     0.20660   0.14230   0.30946   0.00000  Uiso   1.00
H260   H     0.40099   0.56323   0.27400   0.00000  Uiso   1.00
H261   H     0.07910   0.77088   0.52513   0.00000  Uiso   1.00
H262   H     0.10451   0.77820   0.70950   0.00000  Uiso   1.00
H263   H     0.00878   0.90044   0.44312   0.00000  Uiso   1.00
H264   H     0.10096   0.62583   0.42630   0.00000  Uiso   1.00
H265   H     0.16897   0.79929   0.90828   0.00000  Uiso   1.00
H266   H     0.96711   0.05701   0.34657   0.00000  Uiso   1.00
H267   H     0.16151   0.47794   0.31111   0.00000  Uiso   1.00
O268   O     0.31046   0.84858   0.01023   0.00000  Uiso   1.00
O269   O     0.04564   0.18669   0.27328   0.00000  Uiso   1.00
O270   O     0.30068   0.42696   0.22676   0.00000  Uiso   1.00
N271   N     0.34861   0.86349   0.85460   0.00000  Uiso   1.00
N272   N     0.15988   0.10445   0.32945   0.00000  Uiso   1.00
N273   N     0.34162   0.56308   0.29628   0.00000  Uiso   1.00
N274   N     0.21974   0.81759   0.87457   0.00000  Uiso   1.00
N275   N     0.03102   0.05855   0.34942   0.00000  Uiso   1.00
N276   N     0.21276   0.51718   0.31624   0.00000  Uiso   1.00
