data_job_00945
_audit_creation_date              2018-12-19
_audit_creation_method            'Materials Studio'
_symmetry_space_group_name_H-M    'P1'
_symmetry_Int_Tables_number       1
_symmetry_cell_setting            triclinic
loop_
_symmetry_equiv_pos_as_xyz
  x,y,z
_cell_length_a                    26.6798
_cell_length_b                    11.4867
_cell_length_c                    25.7302
_cell_angle_alpha                 90.0000
_cell_angle_beta                  142.4635
_cell_angle_gamma                 90.0000
loop_
_atom_site_label
_atom_site_type_symbol
_atom_site_fract_x
_atom_site_fract_y
_atom_site_fract_z
_atom_site_U_iso_or_equiv
_atom_site_adp_type
_atom_site_occupancy
C1     C     0.80652   0.21901   0.94092   0.00000  Uiso   1.00
C2     C     0.73399   0.15672   0.85599   0.00000  Uiso   1.00
C3     C     0.68630   0.07074   0.83975   0.00000  Uiso   1.00
C4     C     0.62274   0.02461   0.75791   0.00000  Uiso   1.00
C5     C     0.51242   0.92206   0.63565   0.00000  Uiso   1.00
C6     C     0.78666   0.34863   0.92205   0.00000  Uiso   1.00
C7     C     0.78327   0.42402   0.96135   0.00000  Uiso   1.00
C8     C     0.76406   0.53945   0.93512   0.00000  Uiso   1.00
C9     C     0.73558   0.73487   0.91546   0.00000  Uiso   1.00
C10    C     0.87966   0.20033   0.96491   0.00000  Uiso   1.00
C11    C     0.95447   0.15104   0.04026   0.00000  Uiso   1.00
C12    C     0.01357   0.14163   0.05012   0.00000  Uiso   1.00
C13    C     0.12947   0.10678   0.09700   0.00000  Uiso   1.00
C14    C     0.77846   0.28998   0.82446   0.00000  Uiso   1.00
C15    C     0.71876   0.19527   0.79274   0.00000  Uiso   1.00
C16    C     0.65526   0.14925   0.71089   0.00000  Uiso   1.00
C17    C     0.60748   0.06322   0.69453   0.00000  Uiso   1.00
C18    C     0.77143   0.38718   0.85879   0.00000  Uiso   1.00
C19    C     0.75223   0.50253   0.83250   0.00000  Uiso   1.00
C20    C     0.74879   0.57807   0.87175   0.00000  Uiso   1.00
C21    C     0.86442   0.23887   0.90165   0.00000  Uiso   1.00
C22    C     0.92342   0.22955   0.91140   0.00000  Uiso   1.00
C23    C     0.99830   0.18025   0.98674   0.00000  Uiso   1.00
H24    H     0.81838   0.18901   0.99017   0.00000  Uiso   1.00
H25    H     0.69811   0.04094   0.88872   0.00000  Uiso   1.00
H26    H     0.79507   0.39416   0.01031   0.00000  Uiso   1.00
H27    H     0.96624   0.12122   0.08920   0.00000  Uiso   1.00
H28    H     0.55802   0.89380   0.74834   0.00000  Uiso   1.00
H29    H     0.76250   0.63860   0.00474   0.00000  Uiso   1.00
H30    H     0.12345   0.06305   0.17109   0.00000  Uiso   1.00
H31    H     0.76660   0.32000   0.77520   0.00000  Uiso   1.00
H32    H     0.64348   0.17910   0.66195   0.00000  Uiso   1.00
H33    H     0.74044   0.53233   0.78354   0.00000  Uiso   1.00
H34    H     0.91161   0.25939   0.86243   0.00000  Uiso   1.00
H35    H     0.51368   0.00595   0.56428   0.00000  Uiso   1.00
H36    H     0.71816   0.75075   0.82069   0.00000  Uiso   1.00
H37    H     0.07911   0.17520   0.98703   0.00000  Uiso   1.00
O38    O     0.45578   0.85486   0.58568   0.00000  Uiso   1.00
O39    O     0.72406   0.83201   0.92208   0.00000  Uiso   1.00
O40    O     0.19761   0.07689   0.14033   0.00000  Uiso   1.00
N41    N     0.56449   0.93951   0.72057   0.00000  Uiso   1.00
N42    N     0.75566   0.63586   0.96028   0.00000  Uiso   1.00
N43    N     0.09312   0.09779   0.11581   0.00000  Uiso   1.00
N44    N     0.54063   0.99986   0.62153   0.00000  Uiso   1.00
N45    N     0.73180   0.69620   0.86124   0.00000  Uiso   1.00
N46    N     0.06926   0.15813   0.01677   0.00000  Uiso   1.00
C47    C     0.30652   0.71901   0.94092   0.00000  Uiso   1.00
C48    C     0.23399   0.65672   0.85599   0.00000  Uiso   1.00
C49    C     0.18630   0.57074   0.83975   0.00000  Uiso   1.00
C50    C     0.12274   0.52461   0.75791   0.00000  Uiso   1.00
C51    C     0.01242   0.42206   0.63565   0.00000  Uiso   1.00
C52    C     0.28666   0.84863   0.92205   0.00000  Uiso   1.00
C53    C     0.28327   0.92402   0.96135   0.00000  Uiso   1.00
C54    C     0.26406   0.03945   0.93512   0.00000  Uiso   1.00
C55    C     0.23558   0.23487   0.91546   0.00000  Uiso   1.00
C56    C     0.37966   0.70033   0.96491   0.00000  Uiso   1.00
C57    C     0.45447   0.65104   0.04026   0.00000  Uiso   1.00
C58    C     0.51357   0.64163   0.05012   0.00000  Uiso   1.00
C59    C     0.62947   0.60678   0.09700   0.00000  Uiso   1.00
C60    C     0.27846   0.78998   0.82446   0.00000  Uiso   1.00
C61    C     0.21876   0.69527   0.79274   0.00000  Uiso   1.00
C62    C     0.15526   0.64925   0.71089   0.00000  Uiso   1.00
C63    C     0.10748   0.56322   0.69453   0.00000  Uiso   1.00
C64    C     0.27143   0.88718   0.85879   0.00000  Uiso   1.00
C65    C     0.25223   0.00253   0.83250   0.00000  Uiso   1.00
C66    C     0.24879   0.07807   0.87175   0.00000  Uiso   1.00
C67    C     0.36442   0.73887   0.90165   0.00000  Uiso   1.00
C68    C     0.42342   0.72955   0.91140   0.00000  Uiso   1.00
C69    C     0.49830   0.68025   0.98674   0.00000  Uiso   1.00
H70    H     0.31838   0.68901   0.99017   0.00000  Uiso   1.00
H71    H     0.19811   0.54094   0.88872   0.00000  Uiso   1.00
H72    H     0.29507   0.89416   0.01031   0.00000  Uiso   1.00
H73    H     0.46624   0.62122   0.08920   0.00000  Uiso   1.00
H74    H     0.05802   0.39380   0.74834   0.00000  Uiso   1.00
H75    H     0.26250   0.13860   0.00474   0.00000  Uiso   1.00
H76    H     0.62345   0.56305   0.17109   0.00000  Uiso   1.00
H77    H     0.26660   0.82000   0.77520   0.00000  Uiso   1.00
H78    H     0.14348   0.67910   0.66195   0.00000  Uiso   1.00
H79    H     0.24044   0.03233   0.78354   0.00000  Uiso   1.00
H80    H     0.41161   0.75939   0.86243   0.00000  Uiso   1.00
H81    H     0.01368   0.50595   0.56428   0.00000  Uiso   1.00
H82    H     0.21816   0.25075   0.82069   0.00000  Uiso   1.00
H83    H     0.57911   0.67520   0.98703   0.00000  Uiso   1.00
O84    O     0.95578   0.35486   0.58568   0.00000  Uiso   1.00
O85    O     0.22406   0.33201   0.92208   0.00000  Uiso   1.00
O86    O     0.69761   0.57689   0.14033   0.00000  Uiso   1.00
N87    N     0.06449   0.43951   0.72057   0.00000  Uiso   1.00
N88    N     0.25566   0.13586   0.96028   0.00000  Uiso   1.00
N89    N     0.59312   0.59779   0.11581   0.00000  Uiso   1.00
N90    N     0.04063   0.49986   0.62153   0.00000  Uiso   1.00
N91    N     0.23180   0.19620   0.86124   0.00000  Uiso   1.00
N92    N     0.56926   0.65813   0.01677   0.00000  Uiso   1.00
C93    C     0.19348   0.21901   0.55908   0.00000  Uiso   1.00
C94    C     0.26601   0.15672   0.64401   0.00000  Uiso   1.00
C95    C     0.31370   0.07074   0.66025   0.00000  Uiso   1.00
C96    C     0.37726   0.02461   0.74209   0.00000  Uiso   1.00
C97    C     0.48758   0.92206   0.86435   0.00000  Uiso   1.00
C98    C     0.21334   0.34863   0.57795   0.00000  Uiso   1.00
C99    C     0.21673   0.42402   0.53865   0.00000  Uiso   1.00
C100   C     0.23594   0.53945   0.56488   0.00000  Uiso   1.00
C101   C     0.26442   0.73487   0.58454   0.00000  Uiso   1.00
C102   C     0.12034   0.20033   0.53509   0.00000  Uiso   1.00
C103   C     0.04553   0.15104   0.45974   0.00000  Uiso   1.00
C104   C     0.98643   0.14163   0.44988   0.00000  Uiso   1.00
C105   C     0.87053   0.10678   0.40300   0.00000  Uiso   1.00
C106   C     0.22154   0.28998   0.67554   0.00000  Uiso   1.00
C107   C     0.28124   0.19527   0.70726   0.00000  Uiso   1.00
C108   C     0.34474   0.14925   0.78911   0.00000  Uiso   1.00
C109   C     0.39252   0.06322   0.80547   0.00000  Uiso   1.00
C110   C     0.22857   0.38718   0.64121   0.00000  Uiso   1.00
C111   C     0.24777   0.50253   0.66750   0.00000  Uiso   1.00
C112   C     0.25121   0.57807   0.62825   0.00000  Uiso   1.00
C113   C     0.13558   0.23887   0.59835   0.00000  Uiso   1.00
C114   C     0.07658   0.22955   0.58860   0.00000  Uiso   1.00
C115   C     0.00170   0.18025   0.51326   0.00000  Uiso   1.00
H116   H     0.18162   0.18901   0.50983   0.00000  Uiso   1.00
H117   H     0.30189   0.04094   0.61128   0.00000  Uiso   1.00
H118   H     0.20493   0.39416   0.48969   0.00000  Uiso   1.00
H119   H     0.03376   0.12122   0.41080   0.00000  Uiso   1.00
H120   H     0.44198   0.89380   0.75166   0.00000  Uiso   1.00
H121   H     0.23750   0.63860   0.49526   0.00000  Uiso   1.00
H122   H     0.87655   0.06305   0.32891   0.00000  Uiso   1.00
H123   H     0.23340   0.32000   0.72480   0.00000  Uiso   1.00
H124   H     0.35652   0.17910   0.83805   0.00000  Uiso   1.00
H125   H     0.25956   0.53233   0.71646   0.00000  Uiso   1.00
H126   H     0.08839   0.25939   0.63757   0.00000  Uiso   1.00
H127   H     0.48632   0.00595   0.93572   0.00000  Uiso   1.00
H128   H     0.28184   0.75075   0.67931   0.00000  Uiso   1.00
H129   H     0.92089   0.17520   0.51297   0.00000  Uiso   1.00
O130   O     0.54422   0.85486   0.91432   0.00000  Uiso   1.00
O131   O     0.27594   0.83201   0.57792   0.00000  Uiso   1.00
O132   O     0.80239   0.07689   0.35967   0.00000  Uiso   1.00
N133   N     0.43551   0.93951   0.77943   0.00000  Uiso   1.00
N134   N     0.24434   0.63586   0.53972   0.00000  Uiso   1.00
N135   N     0.90688   0.09779   0.38419   0.00000  Uiso   1.00
N136   N     0.45937   0.99986   0.87847   0.00000  Uiso   1.00
N137   N     0.26820   0.69620   0.63876   0.00000  Uiso   1.00
N138   N     0.93074   0.15813   0.48323   0.00000  Uiso   1.00
C139   C     0.69348   0.71901   0.55908   0.00000  Uiso   1.00
C140   C     0.76601   0.65672   0.64401   0.00000  Uiso   1.00
C141   C     0.81370   0.57074   0.66025   0.00000  Uiso   1.00
C142   C     0.87726   0.52461   0.74209   0.00000  Uiso   1.00
C143   C     0.98758   0.42206   0.86435   0.00000  Uiso   1.00
C144   C     0.71334   0.84863   0.57795   0.00000  Uiso   1.00
C145   C     0.71673   0.92402   0.53865   0.00000  Uiso   1.00
C146   C     0.73594   0.03945   0.56488   0.00000  Uiso   1.00
C147   C     0.76442   0.23487   0.58454   0.00000  Uiso   1.00
C148   C     0.62034   0.70033   0.53509   0.00000  Uiso   1.00
C149   C     0.54553   0.65104   0.45974   0.00000  Uiso   1.00
C150   C     0.48643   0.64163   0.44988   0.00000  Uiso   1.00
C151   C     0.37053   0.60678   0.40300   0.00000  Uiso   1.00
C152   C     0.72154   0.78998   0.67554   0.00000  Uiso   1.00
C153   C     0.78124   0.69527   0.70726   0.00000  Uiso   1.00
C154   C     0.84474   0.64925   0.78911   0.00000  Uiso   1.00
C155   C     0.89252   0.56322   0.80547   0.00000  Uiso   1.00
C156   C     0.72857   0.88718   0.64121   0.00000  Uiso   1.00
C157   C     0.74777   0.00253   0.66750   0.00000  Uiso   1.00
C158   C     0.75121   0.07807   0.62825   0.00000  Uiso   1.00
C159   C     0.63558   0.73887   0.59835   0.00000  Uiso   1.00
C160   C     0.57658   0.72955   0.58860   0.00000  Uiso   1.00
C161   C     0.50170   0.68025   0.51326   0.00000  Uiso   1.00
H162   H     0.68162   0.68901   0.50983   0.00000  Uiso   1.00
H163   H     0.80189   0.54094   0.61128   0.00000  Uiso   1.00
H164   H     0.70493   0.89416   0.48969   0.00000  Uiso   1.00
H165   H     0.53376   0.62122   0.41080   0.00000  Uiso   1.00
H166   H     0.94198   0.39380   0.75166   0.00000  Uiso   1.00
H167   H     0.73750   0.13860   0.49526   0.00000  Uiso   1.00
H168   H     0.37655   0.56305   0.32891   0.00000  Uiso   1.00
H169   H     0.73340   0.82000   0.72480   0.00000  Uiso   1.00
H170   H     0.85652   0.67910   0.83805   0.00000  Uiso   1.00
H171   H     0.75956   0.03233   0.71646   0.00000  Uiso   1.00
H172   H     0.58839   0.75939   0.63757   0.00000  Uiso   1.00
H173   H     0.98632   0.50595   0.93572   0.00000  Uiso   1.00
H174   H     0.78184   0.25075   0.67931   0.00000  Uiso   1.00
H175   H     0.42089   0.67520   0.51297   0.00000  Uiso   1.00
O176   O     0.04422   0.35486   0.91432   0.00000  Uiso   1.00
O177   O     0.77594   0.33201   0.57792   0.00000  Uiso   1.00
O178   O     0.30239   0.57689   0.35967   0.00000  Uiso   1.00
N179   N     0.93551   0.43951   0.77943   0.00000  Uiso   1.00
N180   N     0.74434   0.13586   0.53972   0.00000  Uiso   1.00
N181   N     0.40688   0.59779   0.38419   0.00000  Uiso   1.00
N182   N     0.95937   0.49986   0.87847   0.00000  Uiso   1.00
N183   N     0.76820   0.19620   0.63876   0.00000  Uiso   1.00
N184   N     0.43074   0.65813   0.48323   0.00000  Uiso   1.00
C185   C     0.19348   0.78099   0.05908   0.00000  Uiso   1.00
C186   C     0.26601   0.84328   0.14401   0.00000  Uiso   1.00
C187   C     0.31370   0.92926   0.16025   0.00000  Uiso   1.00
C188   C     0.37726   0.97539   0.24209   0.00000  Uiso   1.00
C189   C     0.48758   0.07794   0.36435   0.00000  Uiso   1.00
C190   C     0.21334   0.65137   0.07795   0.00000  Uiso   1.00
C191   C     0.21673   0.57598   0.03865   0.00000  Uiso   1.00
C192   C     0.23594   0.46055   0.06488   0.00000  Uiso   1.00
C193   C     0.26442   0.26513   0.08454   0.00000  Uiso   1.00
C194   C     0.12034   0.79967   0.03509   0.00000  Uiso   1.00
C195   C     0.04553   0.84896   0.95974   0.00000  Uiso   1.00
C196   C     0.98643   0.85837   0.94988   0.00000  Uiso   1.00
C197   C     0.87053   0.89322   0.90300   0.00000  Uiso   1.00
C198   C     0.22154   0.71002   0.17554   0.00000  Uiso   1.00
C199   C     0.28124   0.80473   0.20726   0.00000  Uiso   1.00
C200   C     0.34474   0.85075   0.28911   0.00000  Uiso   1.00
C201   C     0.39252   0.93678   0.30547   0.00000  Uiso   1.00
C202   C     0.22857   0.61282   0.14121   0.00000  Uiso   1.00
C203   C     0.24777   0.49747   0.16750   0.00000  Uiso   1.00
C204   C     0.25121   0.42193   0.12825   0.00000  Uiso   1.00
C205   C     0.13558   0.76113   0.09835   0.00000  Uiso   1.00
C206   C     0.07658   0.77045   0.08860   0.00000  Uiso   1.00
C207   C     0.00170   0.81975   0.01326   0.00000  Uiso   1.00
H208   H     0.18162   0.81099   0.00983   0.00000  Uiso   1.00
H209   H     0.30189   0.95906   0.11128   0.00000  Uiso   1.00
H210   H     0.20493   0.60584   0.98969   0.00000  Uiso   1.00
H211   H     0.03376   0.87878   0.91080   0.00000  Uiso   1.00
H212   H     0.44198   0.10620   0.25166   0.00000  Uiso   1.00
H213   H     0.23750   0.36140   0.99526   0.00000  Uiso   1.00
H214   H     0.87655   0.93695   0.82891   0.00000  Uiso   1.00
H215   H     0.23340   0.68000   0.22480   0.00000  Uiso   1.00
H216   H     0.35652   0.82090   0.33805   0.00000  Uiso   1.00
H217   H     0.25956   0.46767   0.21646   0.00000  Uiso   1.00
H218   H     0.08839   0.74061   0.13757   0.00000  Uiso   1.00
H219   H     0.48632   0.99405   0.43572   0.00000  Uiso   1.00
H220   H     0.28184   0.24925   0.17931   0.00000  Uiso   1.00
H221   H     0.92089   0.82480   0.01297   0.00000  Uiso   1.00
O222   O     0.54422   0.14514   0.41432   0.00000  Uiso   1.00
O223   O     0.27594   0.16799   0.07792   0.00000  Uiso   1.00
O224   O     0.80239   0.92311   0.85967   0.00000  Uiso   1.00
N225   N     0.43551   0.06049   0.27943   0.00000  Uiso   1.00
N226   N     0.24434   0.36414   0.03972   0.00000  Uiso   1.00
N227   N     0.90688   0.90221   0.88419   0.00000  Uiso   1.00
N228   N     0.45937   0.00014   0.37847   0.00000  Uiso   1.00
N229   N     0.26820   0.30380   0.13876   0.00000  Uiso   1.00
N230   N     0.93074   0.84187   0.98323   0.00000  Uiso   1.00
C231   C     0.69348   0.28099   0.05908   0.00000  Uiso   1.00
C232   C     0.76601   0.34328   0.14401   0.00000  Uiso   1.00
C233   C     0.81370   0.42926   0.16025   0.00000  Uiso   1.00
C234   C     0.87726   0.47539   0.24209   0.00000  Uiso   1.00
C235   C     0.98758   0.57794   0.36435   0.00000  Uiso   1.00
C236   C     0.71334   0.15137   0.07795   0.00000  Uiso   1.00
C237   C     0.71673   0.07598   0.03865   0.00000  Uiso   1.00
C238   C     0.73594   0.96055   0.06488   0.00000  Uiso   1.00
C239   C     0.76442   0.76513   0.08454   0.00000  Uiso   1.00
C240   C     0.62034   0.29967   0.03509   0.00000  Uiso   1.00
C241   C     0.54553   0.34896   0.95974   0.00000  Uiso   1.00
C242   C     0.48643   0.35837   0.94988   0.00000  Uiso   1.00
C243   C     0.37053   0.39322   0.90300   0.00000  Uiso   1.00
C244   C     0.72154   0.21002   0.17554   0.00000  Uiso   1.00
C245   C     0.78124   0.30473   0.20726   0.00000  Uiso   1.00
C246   C     0.84474   0.35075   0.28911   0.00000  Uiso   1.00
C247   C     0.89252   0.43678   0.30547   0.00000  Uiso   1.00
C248   C     0.72857   0.11282   0.14121   0.00000  Uiso   1.00
C249   C     0.74777   0.99747   0.16750   0.00000  Uiso   1.00
C250   C     0.75121   0.92193   0.12825   0.00000  Uiso   1.00
C251   C     0.63558   0.26113   0.09835   0.00000  Uiso   1.00
C252   C     0.57658   0.27045   0.08860   0.00000  Uiso   1.00
C253   C     0.50170   0.31975   0.01326   0.00000  Uiso   1.00
H254   H     0.68162   0.31099   0.00983   0.00000  Uiso   1.00
H255   H     0.80189   0.45906   0.11128   0.00000  Uiso   1.00
H256   H     0.70493   0.10584   0.98969   0.00000  Uiso   1.00
H257   H     0.53376   0.37878   0.91080   0.00000  Uiso   1.00
H258   H     0.94198   0.60620   0.25166   0.00000  Uiso   1.00
H259   H     0.73750   0.86140   0.99526   0.00000  Uiso   1.00
H260   H     0.37655   0.43695   0.82891   0.00000  Uiso   1.00
H261   H     0.73340   0.18000   0.22480   0.00000  Uiso   1.00
H262   H     0.85652   0.32090   0.33805   0.00000  Uiso   1.00
H263   H     0.75956   0.96767   0.21646   0.00000  Uiso   1.00
H264   H     0.58839   0.24061   0.13757   0.00000  Uiso   1.00
H265   H     0.98632   0.49405   0.43572   0.00000  Uiso   1.00
H266   H     0.78184   0.74925   0.17931   0.00000  Uiso   1.00
H267   H     0.42089   0.32480   0.01297   0.00000  Uiso   1.00
O268   O     0.04422   0.64514   0.41432   0.00000  Uiso   1.00
O269   O     0.77594   0.66799   0.07792   0.00000  Uiso   1.00
O270   O     0.30239   0.42311   0.85967   0.00000  Uiso   1.00
N271   N     0.93551   0.56049   0.27943   0.00000  Uiso   1.00
N272   N     0.74434   0.86414   0.03972   0.00000  Uiso   1.00
N273   N     0.40688   0.40221   0.88419   0.00000  Uiso   1.00
N274   N     0.95937   0.50014   0.37847   0.00000  Uiso   1.00
N275   N     0.76820   0.80380   0.13876   0.00000  Uiso   1.00
N276   N     0.43074   0.34187   0.98323   0.00000  Uiso   1.00
C277   C     0.80652   0.78099   0.44092   0.00000  Uiso   1.00
C278   C     0.73399   0.84328   0.35599   0.00000  Uiso   1.00
C279   C     0.68630   0.92926   0.33975   0.00000  Uiso   1.00
C280   C     0.62274   0.97539   0.25791   0.00000  Uiso   1.00
C281   C     0.51242   0.07794   0.13565   0.00000  Uiso   1.00
C282   C     0.78666   0.65137   0.42205   0.00000  Uiso   1.00
C283   C     0.78327   0.57598   0.46135   0.00000  Uiso   1.00
C284   C     0.76406   0.46055   0.43512   0.00000  Uiso   1.00
C285   C     0.73558   0.26513   0.41546   0.00000  Uiso   1.00
C286   C     0.87966   0.79967   0.46491   0.00000  Uiso   1.00
C287   C     0.95447   0.84896   0.54026   0.00000  Uiso   1.00
C288   C     0.01357   0.85837   0.55012   0.00000  Uiso   1.00
C289   C     0.12947   0.89322   0.59700   0.00000  Uiso   1.00
C290   C     0.77846   0.71002   0.32446   0.00000  Uiso   1.00
C291   C     0.71876   0.80473   0.29274   0.00000  Uiso   1.00
C292   C     0.65526   0.85075   0.21089   0.00000  Uiso   1.00
C293   C     0.60748   0.93678   0.19453   0.00000  Uiso   1.00
C294   C     0.77143   0.61282   0.35879   0.00000  Uiso   1.00
C295   C     0.75223   0.49747   0.33250   0.00000  Uiso   1.00
C296   C     0.74879   0.42193   0.37175   0.00000  Uiso   1.00
C297   C     0.86442   0.76113   0.40165   0.00000  Uiso   1.00
C298   C     0.92342   0.77045   0.41140   0.00000  Uiso   1.00
C299   C     0.99830   0.81975   0.48674   0.00000  Uiso   1.00
H300   H     0.81838   0.81099   0.49017   0.00000  Uiso   1.00
H301   H     0.69811   0.95906   0.38872   0.00000  Uiso   1.00
H302   H     0.79507   0.60584   0.51031   0.00000  Uiso   1.00
H303   H     0.96624   0.87878   0.58920   0.00000  Uiso   1.00
H304   H     0.55802   0.10620   0.24834   0.00000  Uiso   1.00
H305   H     0.76250   0.36140   0.50474   0.00000  Uiso   1.00
H306   H     0.12345   0.93695   0.67109   0.00000  Uiso   1.00
H307   H     0.76660   0.68000   0.27520   0.00000  Uiso   1.00
H308   H     0.64348   0.82090   0.16195   0.00000  Uiso   1.00
H309   H     0.74044   0.46767   0.28354   0.00000  Uiso   1.00
H310   H     0.91161   0.74061   0.36243   0.00000  Uiso   1.00
H311   H     0.51368   0.99405   0.06428   0.00000  Uiso   1.00
H312   H     0.71816   0.24925   0.32069   0.00000  Uiso   1.00
H313   H     0.07911   0.82480   0.48703   0.00000  Uiso   1.00
O314   O     0.45578   0.14514   0.08568   0.00000  Uiso   1.00
O315   O     0.72406   0.16799   0.42208   0.00000  Uiso   1.00
O316   O     0.19761   0.92311   0.64033   0.00000  Uiso   1.00
N317   N     0.56449   0.06049   0.22057   0.00000  Uiso   1.00
N318   N     0.75566   0.36414   0.46028   0.00000  Uiso   1.00
N319   N     0.09312   0.90221   0.61581   0.00000  Uiso   1.00
N320   N     0.54063   0.00014   0.12153   0.00000  Uiso   1.00
N321   N     0.73180   0.30380   0.36124   0.00000  Uiso   1.00
N322   N     0.06926   0.84187   0.51677   0.00000  Uiso   1.00
C323   C     0.30652   0.28099   0.44092   0.00000  Uiso   1.00
C324   C     0.23399   0.34328   0.35599   0.00000  Uiso   1.00
C325   C     0.18630   0.42926   0.33975   0.00000  Uiso   1.00
C326   C     0.12274   0.47539   0.25791   0.00000  Uiso   1.00
C327   C     0.01242   0.57794   0.13565   0.00000  Uiso   1.00
C328   C     0.28666   0.15137   0.42205   0.00000  Uiso   1.00
C329   C     0.28327   0.07598   0.46135   0.00000  Uiso   1.00
C330   C     0.26406   0.96055   0.43512   0.00000  Uiso   1.00
C331   C     0.23558   0.76513   0.41546   0.00000  Uiso   1.00
C332   C     0.37966   0.29967   0.46491   0.00000  Uiso   1.00
C333   C     0.45447   0.34896   0.54026   0.00000  Uiso   1.00
C334   C     0.51357   0.35837   0.55012   0.00000  Uiso   1.00
C335   C     0.62947   0.39322   0.59700   0.00000  Uiso   1.00
C336   C     0.27846   0.21002   0.32446   0.00000  Uiso   1.00
C337   C     0.21876   0.30473   0.29274   0.00000  Uiso   1.00
C338   C     0.15526   0.35075   0.21089   0.00000  Uiso   1.00
C339   C     0.10748   0.43678   0.19453   0.00000  Uiso   1.00
C340   C     0.27143   0.11282   0.35879   0.00000  Uiso   1.00
C341   C     0.25223   0.99747   0.33250   0.00000  Uiso   1.00
C342   C     0.24879   0.92193   0.37175   0.00000  Uiso   1.00
C343   C     0.36442   0.26113   0.40165   0.00000  Uiso   1.00
C344   C     0.42342   0.27045   0.41140   0.00000  Uiso   1.00
C345   C     0.49830   0.31975   0.48674   0.00000  Uiso   1.00
H346   H     0.31838   0.31099   0.49017   0.00000  Uiso   1.00
H347   H     0.19811   0.45906   0.38872   0.00000  Uiso   1.00
H348   H     0.29507   0.10584   0.51031   0.00000  Uiso   1.00
H349   H     0.46624   0.37878   0.58920   0.00000  Uiso   1.00
H350   H     0.05802   0.60620   0.24834   0.00000  Uiso   1.00
H351   H     0.26250   0.86140   0.50474   0.00000  Uiso   1.00
H352   H     0.62345   0.43695   0.67109   0.00000  Uiso   1.00
H353   H     0.26660   0.18000   0.27520   0.00000  Uiso   1.00
H354   H     0.14348   0.32090   0.16195   0.00000  Uiso   1.00
H355   H     0.24044   0.96767   0.28354   0.00000  Uiso   1.00
H356   H     0.41161   0.24061   0.36243   0.00000  Uiso   1.00
H357   H     0.01368   0.49405   0.06428   0.00000  Uiso   1.00
H358   H     0.21816   0.74925   0.32069   0.00000  Uiso   1.00
H359   H     0.57911   0.32480   0.48703   0.00000  Uiso   1.00
O360   O     0.95578   0.64514   0.08568   0.00000  Uiso   1.00
O361   O     0.22406   0.66799   0.42208   0.00000  Uiso   1.00
O362   O     0.69761   0.42311   0.64033   0.00000  Uiso   1.00
N363   N     0.06449   0.56049   0.22057   0.00000  Uiso   1.00
N364   N     0.25566   0.86414   0.46028   0.00000  Uiso   1.00
N365   N     0.59312   0.40221   0.61581   0.00000  Uiso   1.00
N366   N     0.04063   0.50014   0.12153   0.00000  Uiso   1.00
N367   N     0.23180   0.80380   0.36124   0.00000  Uiso   1.00
N368   N     0.56926   0.34187   0.51677   0.00000  Uiso   1.00
