data_job_00960
_audit_creation_date              2018-12-19
_audit_creation_method            'Materials Studio'
_symmetry_space_group_name_H-M    'P1'
_symmetry_Int_Tables_number       1
_symmetry_cell_setting            triclinic
loop_
_symmetry_equiv_pos_as_xyz
  x,y,z
_cell_length_a                    27.0416
_cell_length_b                    8.2901
_cell_length_c                    24.4917
_cell_angle_alpha                 90.0000
_cell_angle_beta                  113.8676
_cell_angle_gamma                 90.0000
loop_
_atom_site_label
_atom_site_type_symbol
_atom_site_fract_x
_atom_site_fract_y
_atom_site_fract_z
_atom_site_U_iso_or_equiv
_atom_site_adp_type
_atom_site_occupancy
C1     C     0.84138   0.88223   0.15326   0.00000  Uiso   1.00
C2     C     0.85264   0.74552   0.11821   0.00000  Uiso   1.00
C3     C     0.85617   0.76068   0.06347   0.00000  Uiso   1.00
C4     C     0.86675   0.62120   0.03869   0.00000  Uiso   1.00
C5     C     0.88317   0.43161   0.97985   0.00000  Uiso   1.00
C6     C     0.79167   0.83098   0.16356   0.00000  Uiso   1.00
C7     C     0.74396   0.91800   0.14697   0.00000  Uiso   1.00
C8     C     0.70322   0.85046   0.16038   0.00000  Uiso   1.00
C9     C     0.62501   0.79360   0.17198   0.00000  Uiso   1.00
C10    C     0.88839   0.88195   0.21455   0.00000  Uiso   1.00
C11    C     0.92199   0.01185   0.24084   0.00000  Uiso   1.00
C12    C     0.96267   0.98723   0.29719   0.00000  Uiso   1.00
C13    C     0.03462   0.00952   0.38797   0.00000  Uiso   1.00
C14    C     0.85388   0.60756   0.20659   0.00000  Uiso   1.00
C15    C     0.85942   0.59634   0.14718   0.00000  Uiso   1.00
C16    C     0.87000   0.45680   0.12248   0.00000  Uiso   1.00
C17    C     0.87355   0.47175   0.06771   0.00000  Uiso   1.00
C18    C     0.79846   0.68180   0.19253   0.00000  Uiso   1.00
C19    C     0.75779   0.61412   0.20597   0.00000  Uiso   1.00
C20    C     0.71002   0.70100   0.18940   0.00000  Uiso   1.00
C21    C     0.89518   0.73277   0.24352   0.00000  Uiso   1.00
C22    C     0.93581   0.70795   0.29984   0.00000  Uiso   1.00
C23    C     0.96947   0.83778   0.32621   0.00000  Uiso   1.00
H24    H     0.83609   0.99837   0.13071   0.00000  Uiso   1.00
H25    H     0.85091   0.87615   0.04107   0.00000  Uiso   1.00
H26    H     0.73872   0.03345   0.12456   0.00000  Uiso   1.00
H27    H     0.91672   0.12727   0.21841   0.00000  Uiso   1.00
H28    H     0.87032   0.67485   0.95444   0.00000  Uiso   1.00
H29    H     0.63376   0.00655   0.13050   0.00000  Uiso   1.00
H30    H     0.00911   0.20439   0.32842   0.00000  Uiso   1.00
H31    H     0.85916   0.49141   0.22915   0.00000  Uiso   1.00
H32    H     0.87525   0.34137   0.14490   0.00000  Uiso   1.00
H33    H     0.76305   0.49867   0.22839   0.00000  Uiso   1.00
H34    H     0.94105   0.59249   0.32225   0.00000  Uiso   1.00
H35    H     0.89007   0.24079   0.03872   0.00000  Uiso   1.00
H36    H     0.65351   0.57250   0.21478   0.00000  Uiso   1.00
H37    H     0.02886   0.77034   0.41270   0.00000  Uiso   1.00
O38    O     0.89034   0.36825   0.93938   0.00000  Uiso   1.00
O39    O     0.57999   0.80345   0.17037   0.00000  Uiso   1.00
O40    O     0.07244   0.06301   0.43003   0.00000  Uiso   1.00
N41    N     0.87277   0.59329   0.98585   0.00000  Uiso   1.00
N42    N     0.65160   0.90340   0.15044   0.00000  Uiso   1.00
N43    N     0.00251   0.08838   0.33549   0.00000  Uiso   1.00
N44    N     0.88340   0.35973   0.03119   0.00000  Uiso   1.00
N45    N     0.66222   0.66984   0.19579   0.00000  Uiso   1.00
N46    N     0.01313   0.85482   0.38084   0.00000  Uiso   1.00
C47    C     0.34138   0.38223   0.15326   0.00000  Uiso   1.00
C48    C     0.35264   0.24552   0.11821   0.00000  Uiso   1.00
C49    C     0.35617   0.26068   0.06347   0.00000  Uiso   1.00
C50    C     0.36675   0.12120   0.03869   0.00000  Uiso   1.00
C51    C     0.38317   0.93161   0.97985   0.00000  Uiso   1.00
C52    C     0.29167   0.33098   0.16356   0.00000  Uiso   1.00
C53    C     0.24396   0.41800   0.14697   0.00000  Uiso   1.00
C54    C     0.20322   0.35046   0.16038   0.00000  Uiso   1.00
C55    C     0.12501   0.29360   0.17198   0.00000  Uiso   1.00
C56    C     0.38839   0.38195   0.21455   0.00000  Uiso   1.00
C57    C     0.42199   0.51185   0.24084   0.00000  Uiso   1.00
C58    C     0.46267   0.48723   0.29719   0.00000  Uiso   1.00
C59    C     0.53462   0.50952   0.38797   0.00000  Uiso   1.00
C60    C     0.35388   0.10756   0.20659   0.00000  Uiso   1.00
C61    C     0.35942   0.09634   0.14718   0.00000  Uiso   1.00
C62    C     0.37000   0.95680   0.12248   0.00000  Uiso   1.00
C63    C     0.37355   0.97175   0.06771   0.00000  Uiso   1.00
C64    C     0.29846   0.18180   0.19253   0.00000  Uiso   1.00
C65    C     0.25779   0.11412   0.20597   0.00000  Uiso   1.00
C66    C     0.21002   0.20100   0.18940   0.00000  Uiso   1.00
C67    C     0.39518   0.23277   0.24352   0.00000  Uiso   1.00
C68    C     0.43581   0.20795   0.29984   0.00000  Uiso   1.00
C69    C     0.46947   0.33778   0.32621   0.00000  Uiso   1.00
H70    H     0.33609   0.49837   0.13071   0.00000  Uiso   1.00
H71    H     0.35091   0.37615   0.04107   0.00000  Uiso   1.00
H72    H     0.23872   0.53345   0.12456   0.00000  Uiso   1.00
H73    H     0.41672   0.62727   0.21841   0.00000  Uiso   1.00
H74    H     0.37032   0.17485   0.95444   0.00000  Uiso   1.00
H75    H     0.13376   0.50655   0.13050   0.00000  Uiso   1.00
H76    H     0.50911   0.70439   0.32842   0.00000  Uiso   1.00
H77    H     0.35916   0.99141   0.22915   0.00000  Uiso   1.00
H78    H     0.37525   0.84137   0.14490   0.00000  Uiso   1.00
H79    H     0.26305   0.99867   0.22839   0.00000  Uiso   1.00
H80    H     0.44105   0.09249   0.32225   0.00000  Uiso   1.00
H81    H     0.39007   0.74079   0.03872   0.00000  Uiso   1.00
H82    H     0.15351   0.07250   0.21478   0.00000  Uiso   1.00
H83    H     0.52886   0.27034   0.41270   0.00000  Uiso   1.00
O84    O     0.39034   0.86825   0.93938   0.00000  Uiso   1.00
O85    O     0.07999   0.30345   0.17037   0.00000  Uiso   1.00
O86    O     0.57244   0.56301   0.43003   0.00000  Uiso   1.00
N87    N     0.37277   0.09329   0.98585   0.00000  Uiso   1.00
N88    N     0.15160   0.40340   0.15044   0.00000  Uiso   1.00
N89    N     0.50251   0.58838   0.33549   0.00000  Uiso   1.00
N90    N     0.38340   0.85973   0.03119   0.00000  Uiso   1.00
N91    N     0.16222   0.16984   0.19579   0.00000  Uiso   1.00
N92    N     0.51313   0.35482   0.38084   0.00000  Uiso   1.00
C93    C     0.15862   0.88223   0.34674   0.00000  Uiso   1.00
C94    C     0.14736   0.74552   0.38179   0.00000  Uiso   1.00
C95    C     0.14383   0.76068   0.43653   0.00000  Uiso   1.00
C96    C     0.13325   0.62120   0.46131   0.00000  Uiso   1.00
C97    C     0.11683   0.43161   0.52015   0.00000  Uiso   1.00
C98    C     0.20833   0.83098   0.33644   0.00000  Uiso   1.00
C99    C     0.25604   0.91800   0.35303   0.00000  Uiso   1.00
C100   C     0.29678   0.85046   0.33962   0.00000  Uiso   1.00
C101   C     0.37499   0.79360   0.32802   0.00000  Uiso   1.00
C102   C     0.11161   0.88195   0.28545   0.00000  Uiso   1.00
C103   C     0.07801   0.01185   0.25916   0.00000  Uiso   1.00
C104   C     0.03733   0.98723   0.20281   0.00000  Uiso   1.00
C105   C     0.96538   0.00952   0.11203   0.00000  Uiso   1.00
C106   C     0.14612   0.60756   0.29341   0.00000  Uiso   1.00
C107   C     0.14058   0.59634   0.35282   0.00000  Uiso   1.00
C108   C     0.13000   0.45680   0.37752   0.00000  Uiso   1.00
C109   C     0.12645   0.47175   0.43229   0.00000  Uiso   1.00
C110   C     0.20154   0.68180   0.30747   0.00000  Uiso   1.00
C111   C     0.24221   0.61412   0.29403   0.00000  Uiso   1.00
C112   C     0.28998   0.70100   0.31060   0.00000  Uiso   1.00
C113   C     0.10482   0.73277   0.25648   0.00000  Uiso   1.00
C114   C     0.06419   0.70795   0.20016   0.00000  Uiso   1.00
C115   C     0.03053   0.83778   0.17379   0.00000  Uiso   1.00
H116   H     0.16391   0.99837   0.36929   0.00000  Uiso   1.00
H117   H     0.14909   0.87615   0.45893   0.00000  Uiso   1.00
H118   H     0.26128   0.03345   0.37544   0.00000  Uiso   1.00
H119   H     0.08328   0.12727   0.28159   0.00000  Uiso   1.00
H120   H     0.12968   0.67485   0.54556   0.00000  Uiso   1.00
H121   H     0.36624   0.00655   0.36950   0.00000  Uiso   1.00
H122   H     0.99089   0.20439   0.17158   0.00000  Uiso   1.00
H123   H     0.14084   0.49141   0.27085   0.00000  Uiso   1.00
H124   H     0.12475   0.34137   0.35510   0.00000  Uiso   1.00
H125   H     0.23695   0.49867   0.27161   0.00000  Uiso   1.00
H126   H     0.05895   0.59249   0.17775   0.00000  Uiso   1.00
H127   H     0.10993   0.24079   0.46128   0.00000  Uiso   1.00
H128   H     0.34649   0.57250   0.28522   0.00000  Uiso   1.00
H129   H     0.97114   0.77034   0.08730   0.00000  Uiso   1.00
O130   O     0.10966   0.36825   0.56062   0.00000  Uiso   1.00
O131   O     0.42001   0.80345   0.32963   0.00000  Uiso   1.00
O132   O     0.92756   0.06301   0.06997   0.00000  Uiso   1.00
N133   N     0.12723   0.59329   0.51415   0.00000  Uiso   1.00
N134   N     0.34840   0.90340   0.34956   0.00000  Uiso   1.00
N135   N     0.99749   0.08838   0.16451   0.00000  Uiso   1.00
N136   N     0.11660   0.35973   0.46881   0.00000  Uiso   1.00
N137   N     0.33778   0.66984   0.30421   0.00000  Uiso   1.00
N138   N     0.98687   0.85482   0.11916   0.00000  Uiso   1.00
C139   C     0.65862   0.38223   0.34674   0.00000  Uiso   1.00
C140   C     0.64736   0.24552   0.38179   0.00000  Uiso   1.00
C141   C     0.64383   0.26068   0.43653   0.00000  Uiso   1.00
C142   C     0.63325   0.12120   0.46131   0.00000  Uiso   1.00
C143   C     0.61683   0.93161   0.52015   0.00000  Uiso   1.00
C144   C     0.70833   0.33098   0.33644   0.00000  Uiso   1.00
C145   C     0.75604   0.41800   0.35303   0.00000  Uiso   1.00
C146   C     0.79678   0.35046   0.33962   0.00000  Uiso   1.00
C147   C     0.87499   0.29360   0.32802   0.00000  Uiso   1.00
C148   C     0.61161   0.38195   0.28545   0.00000  Uiso   1.00
C149   C     0.57801   0.51185   0.25916   0.00000  Uiso   1.00
C150   C     0.53733   0.48723   0.20281   0.00000  Uiso   1.00
C151   C     0.46538   0.50952   0.11203   0.00000  Uiso   1.00
C152   C     0.64612   0.10756   0.29341   0.00000  Uiso   1.00
C153   C     0.64058   0.09634   0.35282   0.00000  Uiso   1.00
C154   C     0.63000   0.95680   0.37752   0.00000  Uiso   1.00
C155   C     0.62645   0.97175   0.43229   0.00000  Uiso   1.00
C156   C     0.70154   0.18180   0.30747   0.00000  Uiso   1.00
C157   C     0.74221   0.11412   0.29403   0.00000  Uiso   1.00
C158   C     0.78998   0.20100   0.31060   0.00000  Uiso   1.00
C159   C     0.60482   0.23277   0.25648   0.00000  Uiso   1.00
C160   C     0.56419   0.20795   0.20016   0.00000  Uiso   1.00
C161   C     0.53053   0.33778   0.17379   0.00000  Uiso   1.00
H162   H     0.66391   0.49837   0.36929   0.00000  Uiso   1.00
H163   H     0.64909   0.37615   0.45893   0.00000  Uiso   1.00
H164   H     0.76128   0.53345   0.37544   0.00000  Uiso   1.00
H165   H     0.58328   0.62727   0.28159   0.00000  Uiso   1.00
H166   H     0.62968   0.17485   0.54556   0.00000  Uiso   1.00
H167   H     0.86624   0.50655   0.36950   0.00000  Uiso   1.00
H168   H     0.49089   0.70439   0.17158   0.00000  Uiso   1.00
H169   H     0.64084   0.99141   0.27085   0.00000  Uiso   1.00
H170   H     0.62475   0.84137   0.35510   0.00000  Uiso   1.00
H171   H     0.73695   0.99867   0.27161   0.00000  Uiso   1.00
H172   H     0.55895   0.09249   0.17775   0.00000  Uiso   1.00
H173   H     0.60993   0.74079   0.46128   0.00000  Uiso   1.00
H174   H     0.84649   0.07250   0.28522   0.00000  Uiso   1.00
H175   H     0.47114   0.27034   0.08730   0.00000  Uiso   1.00
O176   O     0.60966   0.86825   0.56062   0.00000  Uiso   1.00
O177   O     0.92001   0.30345   0.32963   0.00000  Uiso   1.00
O178   O     0.42756   0.56301   0.06997   0.00000  Uiso   1.00
N179   N     0.62723   0.09329   0.51415   0.00000  Uiso   1.00
N180   N     0.84840   0.40340   0.34956   0.00000  Uiso   1.00
N181   N     0.49749   0.58838   0.16451   0.00000  Uiso   1.00
N182   N     0.61660   0.85973   0.46881   0.00000  Uiso   1.00
N183   N     0.83778   0.16984   0.30421   0.00000  Uiso   1.00
N184   N     0.48687   0.35482   0.11916   0.00000  Uiso   1.00
C185   C     0.15862   0.11777   0.84674   0.00000  Uiso   1.00
C186   C     0.14736   0.25448   0.88179   0.00000  Uiso   1.00
C187   C     0.14383   0.23932   0.93653   0.00000  Uiso   1.00
C188   C     0.13325   0.37880   0.96131   0.00000  Uiso   1.00
C189   C     0.11683   0.56839   0.02015   0.00000  Uiso   1.00
C190   C     0.20833   0.16902   0.83644   0.00000  Uiso   1.00
C191   C     0.25604   0.08200   0.85303   0.00000  Uiso   1.00
C192   C     0.29678   0.14954   0.83962   0.00000  Uiso   1.00
C193   C     0.37499   0.20640   0.82802   0.00000  Uiso   1.00
C194   C     0.11161   0.11805   0.78545   0.00000  Uiso   1.00
C195   C     0.07801   0.98815   0.75916   0.00000  Uiso   1.00
C196   C     0.03733   0.01277   0.70281   0.00000  Uiso   1.00
C197   C     0.96538   0.99048   0.61203   0.00000  Uiso   1.00
C198   C     0.14612   0.39244   0.79341   0.00000  Uiso   1.00
C199   C     0.14058   0.40366   0.85282   0.00000  Uiso   1.00
C200   C     0.13000   0.54320   0.87752   0.00000  Uiso   1.00
C201   C     0.12645   0.52825   0.93229   0.00000  Uiso   1.00
C202   C     0.20154   0.31820   0.80747   0.00000  Uiso   1.00
C203   C     0.24221   0.38588   0.79403   0.00000  Uiso   1.00
C204   C     0.28998   0.29900   0.81060   0.00000  Uiso   1.00
C205   C     0.10482   0.26723   0.75648   0.00000  Uiso   1.00
C206   C     0.06419   0.29205   0.70016   0.00000  Uiso   1.00
C207   C     0.03053   0.16222   0.67379   0.00000  Uiso   1.00
H208   H     0.16391   0.00163   0.86929   0.00000  Uiso   1.00
H209   H     0.14909   0.12385   0.95893   0.00000  Uiso   1.00
H210   H     0.26128   0.96655   0.87544   0.00000  Uiso   1.00
H211   H     0.08328   0.87273   0.78159   0.00000  Uiso   1.00
H212   H     0.12968   0.32515   0.04556   0.00000  Uiso   1.00
H213   H     0.36624   0.99345   0.86950   0.00000  Uiso   1.00
H214   H     0.99089   0.79561   0.67158   0.00000  Uiso   1.00
H215   H     0.14084   0.50859   0.77085   0.00000  Uiso   1.00
H216   H     0.12475   0.65863   0.85510   0.00000  Uiso   1.00
H217   H     0.23695   0.50133   0.77161   0.00000  Uiso   1.00
H218   H     0.05895   0.40751   0.67775   0.00000  Uiso   1.00
H219   H     0.10993   0.75921   0.96128   0.00000  Uiso   1.00
H220   H     0.34649   0.42750   0.78522   0.00000  Uiso   1.00
H221   H     0.97114   0.22966   0.58730   0.00000  Uiso   1.00
O222   O     0.10966   0.63175   0.06062   0.00000  Uiso   1.00
O223   O     0.42001   0.19655   0.82963   0.00000  Uiso   1.00
O224   O     0.92756   0.93699   0.56997   0.00000  Uiso   1.00
N225   N     0.12723   0.40671   0.01415   0.00000  Uiso   1.00
N226   N     0.34840   0.09660   0.84956   0.00000  Uiso   1.00
N227   N     0.99749   0.91162   0.66451   0.00000  Uiso   1.00
N228   N     0.11660   0.64027   0.96881   0.00000  Uiso   1.00
N229   N     0.33778   0.33016   0.80421   0.00000  Uiso   1.00
N230   N     0.98687   0.14518   0.61916   0.00000  Uiso   1.00
C231   C     0.65862   0.61777   0.84674   0.00000  Uiso   1.00
C232   C     0.64736   0.75448   0.88179   0.00000  Uiso   1.00
C233   C     0.64383   0.73932   0.93653   0.00000  Uiso   1.00
C234   C     0.63325   0.87880   0.96131   0.00000  Uiso   1.00
C235   C     0.61683   0.06839   0.02015   0.00000  Uiso   1.00
C236   C     0.70833   0.66902   0.83644   0.00000  Uiso   1.00
C237   C     0.75604   0.58200   0.85303   0.00000  Uiso   1.00
C238   C     0.79678   0.64954   0.83962   0.00000  Uiso   1.00
C239   C     0.87499   0.70640   0.82802   0.00000  Uiso   1.00
C240   C     0.61161   0.61805   0.78545   0.00000  Uiso   1.00
C241   C     0.57801   0.48815   0.75916   0.00000  Uiso   1.00
C242   C     0.53733   0.51277   0.70281   0.00000  Uiso   1.00
C243   C     0.46538   0.49048   0.61203   0.00000  Uiso   1.00
C244   C     0.64612   0.89244   0.79341   0.00000  Uiso   1.00
C245   C     0.64058   0.90366   0.85282   0.00000  Uiso   1.00
C246   C     0.63000   0.04320   0.87752   0.00000  Uiso   1.00
C247   C     0.62645   0.02825   0.93229   0.00000  Uiso   1.00
C248   C     0.70154   0.81820   0.80747   0.00000  Uiso   1.00
C249   C     0.74221   0.88588   0.79403   0.00000  Uiso   1.00
C250   C     0.78998   0.79900   0.81060   0.00000  Uiso   1.00
C251   C     0.60482   0.76723   0.75648   0.00000  Uiso   1.00
C252   C     0.56419   0.79205   0.70016   0.00000  Uiso   1.00
C253   C     0.53053   0.66222   0.67379   0.00000  Uiso   1.00
H254   H     0.66391   0.50163   0.86929   0.00000  Uiso   1.00
H255   H     0.64909   0.62385   0.95893   0.00000  Uiso   1.00
H256   H     0.76128   0.46655   0.87544   0.00000  Uiso   1.00
H257   H     0.58328   0.37273   0.78159   0.00000  Uiso   1.00
H258   H     0.62968   0.82515   0.04556   0.00000  Uiso   1.00
H259   H     0.86624   0.49345   0.86950   0.00000  Uiso   1.00
H260   H     0.49089   0.29561   0.67158   0.00000  Uiso   1.00
H261   H     0.64084   0.00859   0.77085   0.00000  Uiso   1.00
H262   H     0.62475   0.15863   0.85510   0.00000  Uiso   1.00
H263   H     0.73695   0.00133   0.77161   0.00000  Uiso   1.00
H264   H     0.55895   0.90751   0.67775   0.00000  Uiso   1.00
H265   H     0.60993   0.25921   0.96128   0.00000  Uiso   1.00
H266   H     0.84649   0.92750   0.78522   0.00000  Uiso   1.00
H267   H     0.47114   0.72966   0.58730   0.00000  Uiso   1.00
O268   O     0.60966   0.13175   0.06062   0.00000  Uiso   1.00
O269   O     0.92001   0.69655   0.82963   0.00000  Uiso   1.00
O270   O     0.42756   0.43699   0.56997   0.00000  Uiso   1.00
N271   N     0.62723   0.90671   0.01415   0.00000  Uiso   1.00
N272   N     0.84840   0.59660   0.84956   0.00000  Uiso   1.00
N273   N     0.49749   0.41162   0.66451   0.00000  Uiso   1.00
N274   N     0.61660   0.14027   0.96881   0.00000  Uiso   1.00
N275   N     0.83778   0.83016   0.80421   0.00000  Uiso   1.00
N276   N     0.48687   0.64518   0.61916   0.00000  Uiso   1.00
C277   C     0.84138   0.11777   0.65326   0.00000  Uiso   1.00
C278   C     0.85264   0.25448   0.61821   0.00000  Uiso   1.00
C279   C     0.85617   0.23932   0.56347   0.00000  Uiso   1.00
C280   C     0.86675   0.37880   0.53869   0.00000  Uiso   1.00
C281   C     0.88317   0.56839   0.47985   0.00000  Uiso   1.00
C282   C     0.79167   0.16902   0.66356   0.00000  Uiso   1.00
C283   C     0.74396   0.08200   0.64697   0.00000  Uiso   1.00
C284   C     0.70322   0.14954   0.66038   0.00000  Uiso   1.00
C285   C     0.62501   0.20640   0.67198   0.00000  Uiso   1.00
C286   C     0.88839   0.11805   0.71455   0.00000  Uiso   1.00
C287   C     0.92199   0.98815   0.74084   0.00000  Uiso   1.00
C288   C     0.96267   0.01277   0.79719   0.00000  Uiso   1.00
C289   C     0.03462   0.99048   0.88797   0.00000  Uiso   1.00
C290   C     0.85388   0.39244   0.70659   0.00000  Uiso   1.00
C291   C     0.85942   0.40366   0.64718   0.00000  Uiso   1.00
C292   C     0.87000   0.54320   0.62248   0.00000  Uiso   1.00
C293   C     0.87355   0.52825   0.56771   0.00000  Uiso   1.00
C294   C     0.79846   0.31820   0.69253   0.00000  Uiso   1.00
C295   C     0.75779   0.38588   0.70597   0.00000  Uiso   1.00
C296   C     0.71002   0.29900   0.68940   0.00000  Uiso   1.00
C297   C     0.89518   0.26723   0.74352   0.00000  Uiso   1.00
C298   C     0.93581   0.29205   0.79984   0.00000  Uiso   1.00
C299   C     0.96947   0.16222   0.82621   0.00000  Uiso   1.00
H300   H     0.83609   0.00163   0.63071   0.00000  Uiso   1.00
H301   H     0.85091   0.12385   0.54107   0.00000  Uiso   1.00
H302   H     0.73872   0.96655   0.62456   0.00000  Uiso   1.00
H303   H     0.91672   0.87273   0.71841   0.00000  Uiso   1.00
H304   H     0.87032   0.32515   0.45444   0.00000  Uiso   1.00
H305   H     0.63376   0.99345   0.63050   0.00000  Uiso   1.00
H306   H     0.00911   0.79561   0.82842   0.00000  Uiso   1.00
H307   H     0.85916   0.50859   0.72915   0.00000  Uiso   1.00
H308   H     0.87525   0.65863   0.64490   0.00000  Uiso   1.00
H309   H     0.76305   0.50133   0.72839   0.00000  Uiso   1.00
H310   H     0.94105   0.40751   0.82225   0.00000  Uiso   1.00
H311   H     0.89007   0.75921   0.53872   0.00000  Uiso   1.00
H312   H     0.65351   0.42750   0.71478   0.00000  Uiso   1.00
H313   H     0.02886   0.22966   0.91270   0.00000  Uiso   1.00
O314   O     0.89034   0.63175   0.43938   0.00000  Uiso   1.00
O315   O     0.57999   0.19655   0.67037   0.00000  Uiso   1.00
O316   O     0.07244   0.93699   0.93003   0.00000  Uiso   1.00
N317   N     0.87277   0.40671   0.48585   0.00000  Uiso   1.00
N318   N     0.65160   0.09660   0.65044   0.00000  Uiso   1.00
N319   N     0.00251   0.91162   0.83549   0.00000  Uiso   1.00
N320   N     0.88340   0.64027   0.53119   0.00000  Uiso   1.00
N321   N     0.66222   0.33016   0.69579   0.00000  Uiso   1.00
N322   N     0.01313   0.14518   0.88084   0.00000  Uiso   1.00
C323   C     0.34138   0.61777   0.65326   0.00000  Uiso   1.00
C324   C     0.35264   0.75448   0.61821   0.00000  Uiso   1.00
C325   C     0.35617   0.73932   0.56347   0.00000  Uiso   1.00
C326   C     0.36675   0.87880   0.53869   0.00000  Uiso   1.00
C327   C     0.38317   0.06839   0.47985   0.00000  Uiso   1.00
C328   C     0.29167   0.66902   0.66356   0.00000  Uiso   1.00
C329   C     0.24396   0.58200   0.64697   0.00000  Uiso   1.00
C330   C     0.20322   0.64954   0.66038   0.00000  Uiso   1.00
C331   C     0.12501   0.70640   0.67198   0.00000  Uiso   1.00
C332   C     0.38839   0.61805   0.71455   0.00000  Uiso   1.00
C333   C     0.42199   0.48815   0.74084   0.00000  Uiso   1.00
C334   C     0.46267   0.51277   0.79719   0.00000  Uiso   1.00
C335   C     0.53462   0.49048   0.88797   0.00000  Uiso   1.00
C336   C     0.35388   0.89244   0.70659   0.00000  Uiso   1.00
C337   C     0.35942   0.90366   0.64718   0.00000  Uiso   1.00
C338   C     0.37000   0.04320   0.62248   0.00000  Uiso   1.00
C339   C     0.37355   0.02825   0.56771   0.00000  Uiso   1.00
C340   C     0.29846   0.81820   0.69253   0.00000  Uiso   1.00
C341   C     0.25779   0.88588   0.70597   0.00000  Uiso   1.00
C342   C     0.21002   0.79900   0.68940   0.00000  Uiso   1.00
C343   C     0.39518   0.76723   0.74352   0.00000  Uiso   1.00
C344   C     0.43581   0.79205   0.79984   0.00000  Uiso   1.00
C345   C     0.46947   0.66222   0.82621   0.00000  Uiso   1.00
H346   H     0.33609   0.50163   0.63071   0.00000  Uiso   1.00
H347   H     0.35091   0.62385   0.54107   0.00000  Uiso   1.00
H348   H     0.23872   0.46655   0.62456   0.00000  Uiso   1.00
H349   H     0.41672   0.37273   0.71841   0.00000  Uiso   1.00
H350   H     0.37032   0.82515   0.45444   0.00000  Uiso   1.00
H351   H     0.13376   0.49345   0.63050   0.00000  Uiso   1.00
H352   H     0.50911   0.29561   0.82842   0.00000  Uiso   1.00
H353   H     0.35916   0.00859   0.72915   0.00000  Uiso   1.00
H354   H     0.37525   0.15863   0.64490   0.00000  Uiso   1.00
H355   H     0.26305   0.00133   0.72839   0.00000  Uiso   1.00
H356   H     0.44105   0.90751   0.82225   0.00000  Uiso   1.00
H357   H     0.39007   0.25921   0.53872   0.00000  Uiso   1.00
H358   H     0.15351   0.92750   0.71478   0.00000  Uiso   1.00
H359   H     0.52886   0.72966   0.91270   0.00000  Uiso   1.00
O360   O     0.39034   0.13175   0.43938   0.00000  Uiso   1.00
O361   O     0.07999   0.69655   0.67037   0.00000  Uiso   1.00
O362   O     0.57244   0.43699   0.93003   0.00000  Uiso   1.00
N363   N     0.37277   0.90671   0.48585   0.00000  Uiso   1.00
N364   N     0.15160   0.59660   0.65044   0.00000  Uiso   1.00
N365   N     0.50251   0.41162   0.83549   0.00000  Uiso   1.00
N366   N     0.38340   0.14027   0.53119   0.00000  Uiso   1.00
N367   N     0.16222   0.83016   0.69579   0.00000  Uiso   1.00
N368   N     0.51313   0.64518   0.88084   0.00000  Uiso   1.00
