data_job_05063
_audit_creation_date              2018-12-19
_audit_creation_method            'Materials Studio'
_symmetry_space_group_name_H-M    'P1'
_symmetry_Int_Tables_number       1
_symmetry_cell_setting            triclinic
loop_
_symmetry_equiv_pos_as_xyz
  x,y,z
_cell_length_a                    19.3809
_cell_length_b                    19.3809
_cell_length_c                    12.2172
_cell_angle_alpha                 90.0000
_cell_angle_beta                  90.0000
_cell_angle_gamma                 90.0000
loop_
_atom_site_label
_atom_site_type_symbol
_atom_site_fract_x
_atom_site_fract_y
_atom_site_fract_z
_atom_site_U_iso_or_equiv
_atom_site_adp_type
_atom_site_occupancy
C1     C     0.30734   0.70923   0.86153   0.00000  Uiso   1.00
C2     C     0.36094   0.74809   0.92900   0.00000  Uiso   1.00
C3     C     0.38640   0.81344   0.90612   0.00000  Uiso   1.00
C4     C     0.43520   0.84002   0.97783   0.00000  Uiso   1.00
C5     C     0.51503   0.90604   0.06867   0.00000  Uiso   1.00
C6     C     0.34064   0.64066   0.83057   0.00000  Uiso   1.00
C7     C     0.34901   0.61569   0.72494   0.00000  Uiso   1.00
C8     C     0.38072   0.55183   0.71380   0.00000  Uiso   1.00
C9     C     0.42898   0.45105   0.65184   0.00000  Uiso   1.00
C10    C     0.24883   0.69165   0.94018   0.00000  Uiso   1.00
C11    C     0.18002   0.70953   0.92669   0.00000  Uiso   1.00
C12    C     0.13443   0.68858   0.00781   0.00000  Uiso   1.00
C13    C     0.04015   0.66697   0.11603   0.00000  Uiso   1.00
C14    C     0.34874   0.64022   0.02958   0.00000  Uiso   1.00
C15    C     0.38343   0.71060   0.02027   0.00000  Uiso   1.00
C16    C     0.43220   0.73709   0.09204   0.00000  Uiso   1.00
C17    C     0.45773   0.80247   0.06927   0.00000  Uiso   1.00
C18    C     0.36312   0.60318   0.92184   0.00000  Uiso   1.00
C19    C     0.39482   0.53934   0.91086   0.00000  Uiso   1.00
C20    C     0.40325   0.51428   0.80524   0.00000  Uiso   1.00
C21    C     0.27132   0.65416   0.03145   0.00000  Uiso   1.00
C22    C     0.22582   0.63318   0.11261   0.00000  Uiso   1.00
C23    C     0.15695   0.65103   0.09925   0.00000  Uiso   1.00
H24    H     0.28984   0.73841   0.79047   0.00000  Uiso   1.00
H25    H     0.36899   0.84243   0.83547   0.00000  Uiso   1.00
H26    H     0.33160   0.64471   0.65432   0.00000  Uiso   1.00
H27    H     0.16263   0.73854   0.85604   0.00000  Uiso   1.00
H28    H     0.46668   0.94121   0.92559   0.00000  Uiso   1.00
H29    H     0.38782   0.52430   0.54363   0.00000  Uiso   1.00
H30    H     0.03152   0.72215   0.96900   0.00000  Uiso   1.00
H31    H     0.36625   0.61103   0.10064   0.00000  Uiso   1.00
H32    H     0.44960   0.70807   0.16266   0.00000  Uiso   1.00
H33    H     0.41221   0.51034   0.98151   0.00000  Uiso   1.00
H34    H     0.24324   0.60417   0.18323   0.00000  Uiso   1.00
H35    H     0.53210   0.83216   0.19115   0.00000  Uiso   1.00
H36    H     0.45325   0.41524   0.80919   0.00000  Uiso   1.00
H37    H     0.09695   0.61310   0.23456   0.00000  Uiso   1.00
O38    O     0.55285   0.95280   0.09355   0.00000  Uiso   1.00
O39    O     0.44939   0.40583   0.59244   0.00000  Uiso   1.00
O40    O     0.98193   0.66541   0.15051   0.00000  Uiso   1.00
N41    N     0.47063   0.90223   0.97959   0.00000  Uiso   1.00
N42    N     0.39691   0.51245   0.62248   0.00000  Uiso   1.00
N43    N     0.06380   0.69741   0.02015   0.00000  Uiso   1.00
N44    N     0.50583   0.84355   0.12249   0.00000  Uiso   1.00
N45    N     0.43212   0.45377   0.76538   0.00000  Uiso   1.00
N46    N     0.09900   0.63873   0.16304   0.00000  Uiso   1.00
C47    C     0.69266   0.29077   0.86153   0.00000  Uiso   1.00
C48    C     0.63906   0.25191   0.92900   0.00000  Uiso   1.00
C49    C     0.61360   0.18656   0.90612   0.00000  Uiso   1.00
C50    C     0.56480   0.15998   0.97783   0.00000  Uiso   1.00
C51    C     0.48497   0.09396   0.06867   0.00000  Uiso   1.00
C52    C     0.65936   0.35934   0.83057   0.00000  Uiso   1.00
C53    C     0.65099   0.38431   0.72494   0.00000  Uiso   1.00
C54    C     0.61928   0.44817   0.71380   0.00000  Uiso   1.00
C55    C     0.57102   0.54895   0.65184   0.00000  Uiso   1.00
C56    C     0.75117   0.30835   0.94018   0.00000  Uiso   1.00
C57    C     0.81998   0.29047   0.92669   0.00000  Uiso   1.00
C58    C     0.86557   0.31142   0.00781   0.00000  Uiso   1.00
C59    C     0.95985   0.33303   0.11603   0.00000  Uiso   1.00
C60    C     0.65126   0.35978   0.02958   0.00000  Uiso   1.00
C61    C     0.61657   0.28940   0.02027   0.00000  Uiso   1.00
C62    C     0.56780   0.26291   0.09204   0.00000  Uiso   1.00
C63    C     0.54227   0.19753   0.06927   0.00000  Uiso   1.00
C64    C     0.63688   0.39682   0.92184   0.00000  Uiso   1.00
C65    C     0.60518   0.46066   0.91086   0.00000  Uiso   1.00
C66    C     0.59675   0.48572   0.80524   0.00000  Uiso   1.00
C67    C     0.72868   0.34584   0.03145   0.00000  Uiso   1.00
C68    C     0.77418   0.36682   0.11261   0.00000  Uiso   1.00
C69    C     0.84305   0.34897   0.09925   0.00000  Uiso   1.00
H70    H     0.71016   0.26159   0.79047   0.00000  Uiso   1.00
H71    H     0.63101   0.15757   0.83547   0.00000  Uiso   1.00
H72    H     0.66840   0.35529   0.65432   0.00000  Uiso   1.00
H73    H     0.83737   0.26146   0.85604   0.00000  Uiso   1.00
H74    H     0.53332   0.05879   0.92559   0.00000  Uiso   1.00
H75    H     0.61218   0.47570   0.54363   0.00000  Uiso   1.00
H76    H     0.96848   0.27785   0.96900   0.00000  Uiso   1.00
H77    H     0.63375   0.38897   0.10064   0.00000  Uiso   1.00
H78    H     0.55040   0.29193   0.16266   0.00000  Uiso   1.00
H79    H     0.58779   0.48966   0.98151   0.00000  Uiso   1.00
H80    H     0.75676   0.39583   0.18323   0.00000  Uiso   1.00
H81    H     0.46790   0.16784   0.19115   0.00000  Uiso   1.00
H82    H     0.54675   0.58476   0.80919   0.00000  Uiso   1.00
H83    H     0.90305   0.38690   0.23456   0.00000  Uiso   1.00
O84    O     0.44715   0.04720   0.09355   0.00000  Uiso   1.00
O85    O     0.55061   0.59417   0.59244   0.00000  Uiso   1.00
O86    O     0.01807   0.33459   0.15051   0.00000  Uiso   1.00
N87    N     0.52937   0.09777   0.97959   0.00000  Uiso   1.00
N88    N     0.60309   0.48755   0.62248   0.00000  Uiso   1.00
N89    N     0.93620   0.30259   0.02015   0.00000  Uiso   1.00
N90    N     0.49417   0.15645   0.12249   0.00000  Uiso   1.00
N91    N     0.56788   0.54623   0.76538   0.00000  Uiso   1.00
N92    N     0.90100   0.36127   0.16304   0.00000  Uiso   1.00
C93    C     0.79077   0.80734   0.36153   0.00000  Uiso   1.00
C94    C     0.75191   0.86094   0.42900   0.00000  Uiso   1.00
C95    C     0.68656   0.88640   0.40612   0.00000  Uiso   1.00
C96    C     0.65998   0.93520   0.47783   0.00000  Uiso   1.00
C97    C     0.59396   0.01503   0.56867   0.00000  Uiso   1.00
C98    C     0.85934   0.84064   0.33057   0.00000  Uiso   1.00
C99    C     0.88431   0.84901   0.22494   0.00000  Uiso   1.00
C100   C     0.94817   0.88072   0.21380   0.00000  Uiso   1.00
C101   C     0.04895   0.92898   0.15184   0.00000  Uiso   1.00
C102   C     0.80835   0.74883   0.44018   0.00000  Uiso   1.00
C103   C     0.79047   0.68002   0.42669   0.00000  Uiso   1.00
C104   C     0.81142   0.63443   0.50781   0.00000  Uiso   1.00
C105   C     0.83303   0.54015   0.61603   0.00000  Uiso   1.00
C106   C     0.85978   0.84874   0.52958   0.00000  Uiso   1.00
C107   C     0.78940   0.88343   0.52027   0.00000  Uiso   1.00
C108   C     0.76291   0.93220   0.59204   0.00000  Uiso   1.00
C109   C     0.69753   0.95773   0.56927   0.00000  Uiso   1.00
C110   C     0.89682   0.86312   0.42184   0.00000  Uiso   1.00
C111   C     0.96066   0.89482   0.41086   0.00000  Uiso   1.00
C112   C     0.98572   0.90325   0.30524   0.00000  Uiso   1.00
C113   C     0.84584   0.77132   0.53145   0.00000  Uiso   1.00
C114   C     0.86682   0.72582   0.61261   0.00000  Uiso   1.00
C115   C     0.84897   0.65695   0.59925   0.00000  Uiso   1.00
H116   H     0.76159   0.78984   0.29047   0.00000  Uiso   1.00
H117   H     0.65757   0.86899   0.33547   0.00000  Uiso   1.00
H118   H     0.85529   0.83160   0.15432   0.00000  Uiso   1.00
H119   H     0.76146   0.66263   0.35604   0.00000  Uiso   1.00
H120   H     0.55879   0.96668   0.42559   0.00000  Uiso   1.00
H121   H     0.97570   0.88782   0.04363   0.00000  Uiso   1.00
H122   H     0.77785   0.53152   0.46900   0.00000  Uiso   1.00
H123   H     0.88897   0.86625   0.60064   0.00000  Uiso   1.00
H124   H     0.79193   0.94960   0.66266   0.00000  Uiso   1.00
H125   H     0.98966   0.91221   0.48151   0.00000  Uiso   1.00
H126   H     0.89583   0.74324   0.68323   0.00000  Uiso   1.00
H127   H     0.66784   0.03210   0.69115   0.00000  Uiso   1.00
H128   H     0.08476   0.95325   0.30919   0.00000  Uiso   1.00
H129   H     0.88690   0.59695   0.73456   0.00000  Uiso   1.00
O130   O     0.54720   0.05285   0.59355   0.00000  Uiso   1.00
O131   O     0.09417   0.94939   0.09244   0.00000  Uiso   1.00
O132   O     0.83459   0.48193   0.65051   0.00000  Uiso   1.00
N133   N     0.59777   0.97063   0.47959   0.00000  Uiso   1.00
N134   N     0.98755   0.89691   0.12248   0.00000  Uiso   1.00
N135   N     0.80259   0.56380   0.52015   0.00000  Uiso   1.00
N136   N     0.65645   0.00583   0.62249   0.00000  Uiso   1.00
N137   N     0.04623   0.93212   0.26538   0.00000  Uiso   1.00
N138   N     0.86127   0.59900   0.66304   0.00000  Uiso   1.00
C139   C     0.20923   0.19266   0.36153   0.00000  Uiso   1.00
C140   C     0.24809   0.13906   0.42900   0.00000  Uiso   1.00
C141   C     0.31344   0.11360   0.40612   0.00000  Uiso   1.00
C142   C     0.34002   0.06480   0.47783   0.00000  Uiso   1.00
C143   C     0.40604   0.98497   0.56867   0.00000  Uiso   1.00
C144   C     0.14066   0.15936   0.33057   0.00000  Uiso   1.00
C145   C     0.11569   0.15099   0.22494   0.00000  Uiso   1.00
C146   C     0.05183   0.11928   0.21380   0.00000  Uiso   1.00
C147   C     0.95105   0.07102   0.15184   0.00000  Uiso   1.00
C148   C     0.19165   0.25117   0.44018   0.00000  Uiso   1.00
C149   C     0.20953   0.31998   0.42669   0.00000  Uiso   1.00
C150   C     0.18858   0.36557   0.50781   0.00000  Uiso   1.00
C151   C     0.16697   0.45985   0.61603   0.00000  Uiso   1.00
C152   C     0.14022   0.15126   0.52958   0.00000  Uiso   1.00
C153   C     0.21060   0.11657   0.52027   0.00000  Uiso   1.00
C154   C     0.23709   0.06780   0.59204   0.00000  Uiso   1.00
C155   C     0.30247   0.04227   0.56927   0.00000  Uiso   1.00
C156   C     0.10318   0.13688   0.42184   0.00000  Uiso   1.00
C157   C     0.03934   0.10518   0.41086   0.00000  Uiso   1.00
C158   C     0.01428   0.09675   0.30524   0.00000  Uiso   1.00
C159   C     0.15416   0.22868   0.53145   0.00000  Uiso   1.00
C160   C     0.13318   0.27418   0.61261   0.00000  Uiso   1.00
C161   C     0.15103   0.34305   0.59925   0.00000  Uiso   1.00
H162   H     0.23841   0.21016   0.29047   0.00000  Uiso   1.00
H163   H     0.34243   0.13101   0.33547   0.00000  Uiso   1.00
H164   H     0.14471   0.16840   0.15432   0.00000  Uiso   1.00
H165   H     0.23854   0.33737   0.35604   0.00000  Uiso   1.00
H166   H     0.44121   0.03332   0.42559   0.00000  Uiso   1.00
H167   H     0.02430   0.11218   0.04363   0.00000  Uiso   1.00
H168   H     0.22215   0.46848   0.46900   0.00000  Uiso   1.00
H169   H     0.11103   0.13375   0.60064   0.00000  Uiso   1.00
H170   H     0.20807   0.05040   0.66266   0.00000  Uiso   1.00
H171   H     0.01034   0.08779   0.48151   0.00000  Uiso   1.00
H172   H     0.10417   0.25676   0.68323   0.00000  Uiso   1.00
H173   H     0.33216   0.96790   0.69115   0.00000  Uiso   1.00
H174   H     0.91524   0.04675   0.30919   0.00000  Uiso   1.00
H175   H     0.11310   0.40305   0.73456   0.00000  Uiso   1.00
O176   O     0.45280   0.94715   0.59355   0.00000  Uiso   1.00
O177   O     0.90583   0.05061   0.09244   0.00000  Uiso   1.00
O178   O     0.16541   0.51807   0.65051   0.00000  Uiso   1.00
N179   N     0.40223   0.02937   0.47959   0.00000  Uiso   1.00
N180   N     0.01245   0.10309   0.12248   0.00000  Uiso   1.00
N181   N     0.19741   0.43620   0.52015   0.00000  Uiso   1.00
N182   N     0.34355   0.99417   0.62249   0.00000  Uiso   1.00
N183   N     0.95377   0.06788   0.26538   0.00000  Uiso   1.00
N184   N     0.13873   0.40100   0.66304   0.00000  Uiso   1.00
C185   C     0.19266   0.79077   0.63847   0.00000  Uiso   1.00
C186   C     0.13906   0.75191   0.57100   0.00000  Uiso   1.00
C187   C     0.11360   0.68656   0.59388   0.00000  Uiso   1.00
C188   C     0.06480   0.65998   0.52217   0.00000  Uiso   1.00
C189   C     0.98497   0.59396   0.43133   0.00000  Uiso   1.00
C190   C     0.15936   0.85934   0.66943   0.00000  Uiso   1.00
C191   C     0.15099   0.88431   0.77506   0.00000  Uiso   1.00
C192   C     0.11928   0.94817   0.78620   0.00000  Uiso   1.00
C193   C     0.07102   0.04895   0.84816   0.00000  Uiso   1.00
C194   C     0.25117   0.80835   0.55982   0.00000  Uiso   1.00
C195   C     0.31998   0.79047   0.57331   0.00000  Uiso   1.00
C196   C     0.36557   0.81142   0.49219   0.00000  Uiso   1.00
C197   C     0.45985   0.83303   0.38397   0.00000  Uiso   1.00
C198   C     0.15126   0.85978   0.47042   0.00000  Uiso   1.00
C199   C     0.11657   0.78940   0.47973   0.00000  Uiso   1.00
C200   C     0.06780   0.76291   0.40796   0.00000  Uiso   1.00
C201   C     0.04227   0.69753   0.43073   0.00000  Uiso   1.00
C202   C     0.13688   0.89682   0.57816   0.00000  Uiso   1.00
C203   C     0.10518   0.96066   0.58914   0.00000  Uiso   1.00
C204   C     0.09675   0.98572   0.69476   0.00000  Uiso   1.00
C205   C     0.22868   0.84584   0.46855   0.00000  Uiso   1.00
C206   C     0.27418   0.86682   0.38739   0.00000  Uiso   1.00
C207   C     0.34305   0.84897   0.40075   0.00000  Uiso   1.00
H208   H     0.21016   0.76159   0.70953   0.00000  Uiso   1.00
H209   H     0.13101   0.65757   0.66453   0.00000  Uiso   1.00
H210   H     0.16840   0.85529   0.84568   0.00000  Uiso   1.00
H211   H     0.33737   0.76146   0.64396   0.00000  Uiso   1.00
H212   H     0.03332   0.55879   0.57441   0.00000  Uiso   1.00
H213   H     0.11218   0.97570   0.95637   0.00000  Uiso   1.00
H214   H     0.46848   0.77785   0.53100   0.00000  Uiso   1.00
H215   H     0.13375   0.88897   0.39936   0.00000  Uiso   1.00
H216   H     0.05040   0.79193   0.33734   0.00000  Uiso   1.00
H217   H     0.08779   0.98966   0.51849   0.00000  Uiso   1.00
H218   H     0.25676   0.89583   0.31677   0.00000  Uiso   1.00
H219   H     0.96790   0.66784   0.30885   0.00000  Uiso   1.00
H220   H     0.04675   0.08476   0.69081   0.00000  Uiso   1.00
H221   H     0.40305   0.88690   0.26544   0.00000  Uiso   1.00
O222   O     0.94715   0.54720   0.40645   0.00000  Uiso   1.00
O223   O     0.05061   0.09417   0.90756   0.00000  Uiso   1.00
O224   O     0.51807   0.83459   0.34949   0.00000  Uiso   1.00
N225   N     0.02937   0.59777   0.52041   0.00000  Uiso   1.00
N226   N     0.10309   0.98755   0.87752   0.00000  Uiso   1.00
N227   N     0.43620   0.80259   0.47985   0.00000  Uiso   1.00
N228   N     0.99417   0.65645   0.37751   0.00000  Uiso   1.00
N229   N     0.06788   0.04623   0.73462   0.00000  Uiso   1.00
N230   N     0.40100   0.86127   0.33696   0.00000  Uiso   1.00
C231   C     0.80734   0.20923   0.63847   0.00000  Uiso   1.00
C232   C     0.86094   0.24809   0.57100   0.00000  Uiso   1.00
C233   C     0.88640   0.31344   0.59388   0.00000  Uiso   1.00
C234   C     0.93520   0.34002   0.52217   0.00000  Uiso   1.00
C235   C     0.01503   0.40604   0.43133   0.00000  Uiso   1.00
C236   C     0.84064   0.14066   0.66943   0.00000  Uiso   1.00
C237   C     0.84901   0.11569   0.77506   0.00000  Uiso   1.00
C238   C     0.88072   0.05183   0.78620   0.00000  Uiso   1.00
C239   C     0.92898   0.95105   0.84816   0.00000  Uiso   1.00
C240   C     0.74883   0.19165   0.55982   0.00000  Uiso   1.00
C241   C     0.68002   0.20953   0.57331   0.00000  Uiso   1.00
C242   C     0.63443   0.18858   0.49219   0.00000  Uiso   1.00
C243   C     0.54015   0.16697   0.38397   0.00000  Uiso   1.00
C244   C     0.84874   0.14022   0.47042   0.00000  Uiso   1.00
C245   C     0.88343   0.21060   0.47973   0.00000  Uiso   1.00
C246   C     0.93220   0.23709   0.40796   0.00000  Uiso   1.00
C247   C     0.95773   0.30247   0.43073   0.00000  Uiso   1.00
C248   C     0.86312   0.10318   0.57816   0.00000  Uiso   1.00
C249   C     0.89482   0.03934   0.58914   0.00000  Uiso   1.00
C250   C     0.90325   0.01428   0.69476   0.00000  Uiso   1.00
C251   C     0.77132   0.15416   0.46855   0.00000  Uiso   1.00
C252   C     0.72582   0.13318   0.38739   0.00000  Uiso   1.00
C253   C     0.65695   0.15103   0.40075   0.00000  Uiso   1.00
H254   H     0.78984   0.23841   0.70953   0.00000  Uiso   1.00
H255   H     0.86899   0.34243   0.66453   0.00000  Uiso   1.00
H256   H     0.83160   0.14471   0.84568   0.00000  Uiso   1.00
H257   H     0.66263   0.23854   0.64396   0.00000  Uiso   1.00
H258   H     0.96668   0.44121   0.57441   0.00000  Uiso   1.00
H259   H     0.88782   0.02430   0.95637   0.00000  Uiso   1.00
H260   H     0.53152   0.22215   0.53100   0.00000  Uiso   1.00
H261   H     0.86625   0.11103   0.39936   0.00000  Uiso   1.00
H262   H     0.94960   0.20807   0.33734   0.00000  Uiso   1.00
H263   H     0.91221   0.01034   0.51849   0.00000  Uiso   1.00
H264   H     0.74324   0.10417   0.31677   0.00000  Uiso   1.00
H265   H     0.03210   0.33216   0.30885   0.00000  Uiso   1.00
H266   H     0.95325   0.91524   0.69081   0.00000  Uiso   1.00
H267   H     0.59695   0.11310   0.26544   0.00000  Uiso   1.00
O268   O     0.05285   0.45280   0.40645   0.00000  Uiso   1.00
O269   O     0.94939   0.90583   0.90756   0.00000  Uiso   1.00
O270   O     0.48193   0.16541   0.34949   0.00000  Uiso   1.00
N271   N     0.97063   0.40223   0.52041   0.00000  Uiso   1.00
N272   N     0.89691   0.01245   0.87752   0.00000  Uiso   1.00
N273   N     0.56380   0.19741   0.47985   0.00000  Uiso   1.00
N274   N     0.00583   0.34355   0.37751   0.00000  Uiso   1.00
N275   N     0.93212   0.95377   0.73462   0.00000  Uiso   1.00
N276   N     0.59900   0.13873   0.33696   0.00000  Uiso   1.00
C277   C     0.70923   0.69266   0.13847   0.00000  Uiso   1.00
C278   C     0.74809   0.63906   0.07100   0.00000  Uiso   1.00
C279   C     0.81344   0.61360   0.09388   0.00000  Uiso   1.00
C280   C     0.84002   0.56480   0.02217   0.00000  Uiso   1.00
C281   C     0.90604   0.48497   0.93133   0.00000  Uiso   1.00
C282   C     0.64066   0.65936   0.16943   0.00000  Uiso   1.00
C283   C     0.61569   0.65099   0.27506   0.00000  Uiso   1.00
C284   C     0.55183   0.61928   0.28620   0.00000  Uiso   1.00
C285   C     0.45105   0.57102   0.34816   0.00000  Uiso   1.00
C286   C     0.69165   0.75117   0.05982   0.00000  Uiso   1.00
C287   C     0.70953   0.81998   0.07331   0.00000  Uiso   1.00
C288   C     0.68858   0.86557   0.99219   0.00000  Uiso   1.00
C289   C     0.66697   0.95985   0.88397   0.00000  Uiso   1.00
C290   C     0.64022   0.65126   0.97042   0.00000  Uiso   1.00
C291   C     0.71060   0.61657   0.97973   0.00000  Uiso   1.00
C292   C     0.73709   0.56780   0.90796   0.00000  Uiso   1.00
C293   C     0.80247   0.54227   0.93073   0.00000  Uiso   1.00
C294   C     0.60318   0.63688   0.07816   0.00000  Uiso   1.00
C295   C     0.53934   0.60518   0.08914   0.00000  Uiso   1.00
C296   C     0.51428   0.59675   0.19476   0.00000  Uiso   1.00
C297   C     0.65416   0.72868   0.96855   0.00000  Uiso   1.00
C298   C     0.63318   0.77418   0.88739   0.00000  Uiso   1.00
C299   C     0.65103   0.84305   0.90075   0.00000  Uiso   1.00
H300   H     0.73841   0.71016   0.20953   0.00000  Uiso   1.00
H301   H     0.84243   0.63101   0.16453   0.00000  Uiso   1.00
H302   H     0.64471   0.66840   0.34568   0.00000  Uiso   1.00
H303   H     0.73854   0.83737   0.14396   0.00000  Uiso   1.00
H304   H     0.94121   0.53332   0.07441   0.00000  Uiso   1.00
H305   H     0.52430   0.61218   0.45637   0.00000  Uiso   1.00
H306   H     0.72215   0.96848   0.03100   0.00000  Uiso   1.00
H307   H     0.61103   0.63375   0.89936   0.00000  Uiso   1.00
H308   H     0.70807   0.55040   0.83734   0.00000  Uiso   1.00
H309   H     0.51034   0.58779   0.01849   0.00000  Uiso   1.00
H310   H     0.60417   0.75676   0.81677   0.00000  Uiso   1.00
H311   H     0.83216   0.46790   0.80885   0.00000  Uiso   1.00
H312   H     0.41524   0.54675   0.19081   0.00000  Uiso   1.00
H313   H     0.61310   0.90305   0.76544   0.00000  Uiso   1.00
O314   O     0.95280   0.44715   0.90645   0.00000  Uiso   1.00
O315   O     0.40583   0.55061   0.40756   0.00000  Uiso   1.00
O316   O     0.66541   0.01807   0.84949   0.00000  Uiso   1.00
N317   N     0.90223   0.52937   0.02041   0.00000  Uiso   1.00
N318   N     0.51245   0.60309   0.37752   0.00000  Uiso   1.00
N319   N     0.69741   0.93620   0.97985   0.00000  Uiso   1.00
N320   N     0.84355   0.49417   0.87751   0.00000  Uiso   1.00
N321   N     0.45377   0.56788   0.23462   0.00000  Uiso   1.00
N322   N     0.63873   0.90100   0.83696   0.00000  Uiso   1.00
C323   C     0.29077   0.30734   0.13847   0.00000  Uiso   1.00
C324   C     0.25191   0.36094   0.07100   0.00000  Uiso   1.00
C325   C     0.18656   0.38640   0.09388   0.00000  Uiso   1.00
C326   C     0.15998   0.43520   0.02217   0.00000  Uiso   1.00
C327   C     0.09396   0.51503   0.93133   0.00000  Uiso   1.00
C328   C     0.35934   0.34064   0.16943   0.00000  Uiso   1.00
C329   C     0.38431   0.34901   0.27506   0.00000  Uiso   1.00
C330   C     0.44817   0.38072   0.28620   0.00000  Uiso   1.00
C331   C     0.54895   0.42898   0.34816   0.00000  Uiso   1.00
C332   C     0.30835   0.24883   0.05982   0.00000  Uiso   1.00
C333   C     0.29047   0.18002   0.07331   0.00000  Uiso   1.00
C334   C     0.31142   0.13443   0.99219   0.00000  Uiso   1.00
C335   C     0.33303   0.04015   0.88397   0.00000  Uiso   1.00
C336   C     0.35978   0.34874   0.97042   0.00000  Uiso   1.00
C337   C     0.28940   0.38343   0.97973   0.00000  Uiso   1.00
C338   C     0.26291   0.43220   0.90796   0.00000  Uiso   1.00
C339   C     0.19753   0.45773   0.93073   0.00000  Uiso   1.00
C340   C     0.39682   0.36312   0.07816   0.00000  Uiso   1.00
C341   C     0.46066   0.39482   0.08914   0.00000  Uiso   1.00
C342   C     0.48572   0.40325   0.19476   0.00000  Uiso   1.00
C343   C     0.34584   0.27132   0.96855   0.00000  Uiso   1.00
C344   C     0.36682   0.22582   0.88739   0.00000  Uiso   1.00
C345   C     0.34897   0.15695   0.90075   0.00000  Uiso   1.00
H346   H     0.26159   0.28984   0.20953   0.00000  Uiso   1.00
H347   H     0.15757   0.36899   0.16453   0.00000  Uiso   1.00
H348   H     0.35529   0.33160   0.34568   0.00000  Uiso   1.00
H349   H     0.26146   0.16263   0.14396   0.00000  Uiso   1.00
H350   H     0.05879   0.46668   0.07441   0.00000  Uiso   1.00
H351   H     0.47570   0.38782   0.45637   0.00000  Uiso   1.00
H352   H     0.27785   0.03152   0.03100   0.00000  Uiso   1.00
H353   H     0.38897   0.36625   0.89936   0.00000  Uiso   1.00
H354   H     0.29193   0.44960   0.83734   0.00000  Uiso   1.00
H355   H     0.48966   0.41221   0.01849   0.00000  Uiso   1.00
H356   H     0.39583   0.24324   0.81677   0.00000  Uiso   1.00
H357   H     0.16784   0.53210   0.80885   0.00000  Uiso   1.00
H358   H     0.58476   0.45325   0.19081   0.00000  Uiso   1.00
H359   H     0.38690   0.09695   0.76544   0.00000  Uiso   1.00
O360   O     0.04720   0.55285   0.90645   0.00000  Uiso   1.00
O361   O     0.59417   0.44939   0.40756   0.00000  Uiso   1.00
O362   O     0.33459   0.98193   0.84949   0.00000  Uiso   1.00
N363   N     0.09777   0.47063   0.02041   0.00000  Uiso   1.00
N364   N     0.48755   0.39691   0.37752   0.00000  Uiso   1.00
N365   N     0.30259   0.06380   0.97985   0.00000  Uiso   1.00
N366   N     0.15645   0.50583   0.87751   0.00000  Uiso   1.00
N367   N     0.54623   0.43212   0.23462   0.00000  Uiso   1.00
N368   N     0.36127   0.09900   0.83696   0.00000  Uiso   1.00
