data_job_05001
_audit_creation_date              2018-12-19
_audit_creation_method            'Materials Studio'
_symmetry_space_group_name_H-M    'P1'
_symmetry_Int_Tables_number       1
_symmetry_cell_setting            triclinic
loop_
_symmetry_equiv_pos_as_xyz
  x,y,z
_cell_length_a                    7.2606
_cell_length_b                    23.5420
_cell_length_c                    31.6048
_cell_angle_alpha                 90.0000
_cell_angle_beta                  98.5658
_cell_angle_gamma                 90.0000
loop_
_atom_site_label
_atom_site_type_symbol
_atom_site_fract_x
_atom_site_fract_y
_atom_site_fract_z
_atom_site_U_iso_or_equiv
_atom_site_adp_type
_atom_site_occupancy
C1     C     0.32251   0.64954   0.59202   0.00000  Uiso   1.00
C2     C     0.28464   0.70163   0.61808   0.00000  Uiso   1.00
C3     C     0.40948   0.74535   0.63031   0.00000  Uiso   1.00
C4     C     0.34824   0.78921   0.65408   0.00000  Uiso   1.00
C5     C     0.31680   0.87006   0.69288   0.00000  Uiso   1.00
C6     C     0.28557   0.59815   0.61890   0.00000  Uiso   1.00
C7     C     0.41118   0.55486   0.63181   0.00000  Uiso   1.00
C8     C     0.35070   0.51161   0.65626   0.00000  Uiso   1.00
C9     C     0.32066   0.43178   0.69631   0.00000  Uiso   1.00
C10    C     0.17066   0.64894   0.55309   0.00000  Uiso   1.00
C11    C     0.19966   0.64835   0.51067   0.00000  Uiso   1.00
C12    C     0.04243   0.64785   0.47971   0.00000  Uiso   1.00
C13    C     0.83398   0.64690   0.41758   0.00000  Uiso   1.00
C14    C     0.99175   0.64969   0.61247   0.00000  Uiso   1.00
C15    C     0.10498   0.70171   0.62919   0.00000  Uiso   1.00
C16    C     0.04353   0.74552   0.65294   0.00000  Uiso   1.00
C17    C     0.16826   0.78930   0.66521   0.00000  Uiso   1.00
C18    C     0.10592   0.59823   0.63001   0.00000  Uiso   1.00
C19    C     0.04523   0.55503   0.65444   0.00000  Uiso   1.00
C20    C     0.17072   0.51169   0.66739   0.00000  Uiso   1.00
C21    C     0.99100   0.64903   0.56420   0.00000  Uiso   1.00
C22    C     0.83371   0.64853   0.53330   0.00000  Uiso   1.00
C23    C     0.86245   0.64793   0.49084   0.00000  Uiso   1.00
H24    H     0.46238   0.64947   0.58337   0.00000  Uiso   1.00
H25    H     0.54851   0.74526   0.62171   0.00000  Uiso   1.00
H26    H     0.55020   0.55480   0.62321   0.00000  Uiso   1.00
H27    H     0.33870   0.64828   0.50209   0.00000  Uiso   1.00
H28    H     0.56479   0.85149   0.66914   0.00000  Uiso   1.00
H29    H     0.56833   0.44989   0.67228   0.00000  Uiso   1.00
H30    H     0.12236   0.64701   0.41687   0.00000  Uiso   1.00
H31    H     0.85187   0.64976   0.62112   0.00000  Uiso   1.00
H32    H     0.90449   0.74557   0.66153   0.00000  Uiso   1.00
H33    H     0.90619   0.55511   0.66303   0.00000  Uiso   1.00
H34    H     0.69470   0.64859   0.54191   0.00000  Uiso   1.00
H35    H     0.04209   0.85175   0.70146   0.00000  Uiso   1.00
H36    H     0.04563   0.45013   0.70460   0.00000  Uiso   1.00
H37    H     0.59966   0.64726   0.44919   0.00000  Uiso   1.00
O38    O     0.34910   0.91463   0.71122   0.00000  Uiso   1.00
O39    O     0.35373   0.38773   0.71533   0.00000  Uiso   1.00
O40    O     0.76863   0.64636   0.38024   0.00000  Uiso   1.00
N41    N     0.43454   0.83841   0.67119   0.00000  Uiso   1.00
N42    N     0.43786   0.46293   0.67413   0.00000  Uiso   1.00
N43    N     0.02091   0.64721   0.43534   0.00000  Uiso   1.00
N44    N     0.15328   0.83855   0.68858   0.00000  Uiso   1.00
N45    N     0.15660   0.46307   0.69153   0.00000  Uiso   1.00
N46    N     0.73965   0.64735   0.45274   0.00000  Uiso   1.00
C47    C     0.82251   0.14954   0.59202   0.00000  Uiso   1.00
C48    C     0.78464   0.20163   0.61808   0.00000  Uiso   1.00
C49    C     0.90948   0.24535   0.63031   0.00000  Uiso   1.00
C50    C     0.84824   0.28921   0.65408   0.00000  Uiso   1.00
C51    C     0.81680   0.37006   0.69288   0.00000  Uiso   1.00
C52    C     0.78557   0.09815   0.61890   0.00000  Uiso   1.00
C53    C     0.91118   0.05486   0.63181   0.00000  Uiso   1.00
C54    C     0.85070   0.01161   0.65626   0.00000  Uiso   1.00
C55    C     0.82066   0.93178   0.69631   0.00000  Uiso   1.00
C56    C     0.67066   0.14894   0.55309   0.00000  Uiso   1.00
C57    C     0.69966   0.14835   0.51067   0.00000  Uiso   1.00
C58    C     0.54243   0.14785   0.47971   0.00000  Uiso   1.00
C59    C     0.33398   0.14690   0.41758   0.00000  Uiso   1.00
C60    C     0.49175   0.14969   0.61247   0.00000  Uiso   1.00
C61    C     0.60498   0.20171   0.62919   0.00000  Uiso   1.00
C62    C     0.54353   0.24552   0.65294   0.00000  Uiso   1.00
C63    C     0.66826   0.28930   0.66521   0.00000  Uiso   1.00
C64    C     0.60592   0.09823   0.63001   0.00000  Uiso   1.00
C65    C     0.54523   0.05503   0.65444   0.00000  Uiso   1.00
C66    C     0.67072   0.01169   0.66739   0.00000  Uiso   1.00
C67    C     0.49100   0.14903   0.56420   0.00000  Uiso   1.00
C68    C     0.33371   0.14853   0.53330   0.00000  Uiso   1.00
C69    C     0.36245   0.14793   0.49084   0.00000  Uiso   1.00
H70    H     0.96238   0.14947   0.58337   0.00000  Uiso   1.00
H71    H     0.04851   0.24526   0.62171   0.00000  Uiso   1.00
H72    H     0.05020   0.05480   0.62321   0.00000  Uiso   1.00
H73    H     0.83870   0.14828   0.50209   0.00000  Uiso   1.00
H74    H     0.06479   0.35149   0.66914   0.00000  Uiso   1.00
H75    H     0.06833   0.94989   0.67228   0.00000  Uiso   1.00
H76    H     0.62236   0.14701   0.41687   0.00000  Uiso   1.00
H77    H     0.35187   0.14976   0.62112   0.00000  Uiso   1.00
H78    H     0.40449   0.24557   0.66153   0.00000  Uiso   1.00
H79    H     0.40619   0.05511   0.66303   0.00000  Uiso   1.00
H80    H     0.19470   0.14859   0.54191   0.00000  Uiso   1.00
H81    H     0.54209   0.35175   0.70146   0.00000  Uiso   1.00
H82    H     0.54563   0.95013   0.70460   0.00000  Uiso   1.00
H83    H     0.09966   0.14726   0.44919   0.00000  Uiso   1.00
O84    O     0.84910   0.41463   0.71122   0.00000  Uiso   1.00
O85    O     0.85373   0.88773   0.71533   0.00000  Uiso   1.00
O86    O     0.26863   0.14636   0.38024   0.00000  Uiso   1.00
N87    N     0.93454   0.33841   0.67119   0.00000  Uiso   1.00
N88    N     0.93786   0.96293   0.67413   0.00000  Uiso   1.00
N89    N     0.52091   0.14721   0.43534   0.00000  Uiso   1.00
N90    N     0.65328   0.33855   0.68858   0.00000  Uiso   1.00
N91    N     0.65660   0.96307   0.69153   0.00000  Uiso   1.00
N92    N     0.23965   0.14735   0.45274   0.00000  Uiso   1.00
C93    C     0.67749   0.64954   0.90798   0.00000  Uiso   1.00
C94    C     0.71536   0.70163   0.88192   0.00000  Uiso   1.00
C95    C     0.59052   0.74535   0.86969   0.00000  Uiso   1.00
C96    C     0.65176   0.78921   0.84592   0.00000  Uiso   1.00
C97    C     0.68320   0.87006   0.80712   0.00000  Uiso   1.00
C98    C     0.71443   0.59815   0.88110   0.00000  Uiso   1.00
C99    C     0.58882   0.55486   0.86819   0.00000  Uiso   1.00
C100   C     0.64930   0.51161   0.84374   0.00000  Uiso   1.00
C101   C     0.67934   0.43178   0.80369   0.00000  Uiso   1.00
C102   C     0.82934   0.64894   0.94691   0.00000  Uiso   1.00
C103   C     0.80034   0.64835   0.98933   0.00000  Uiso   1.00
C104   C     0.95757   0.64785   0.02029   0.00000  Uiso   1.00
C105   C     0.16602   0.64690   0.08242   0.00000  Uiso   1.00
C106   C     0.00825   0.64969   0.88753   0.00000  Uiso   1.00
C107   C     0.89502   0.70171   0.87081   0.00000  Uiso   1.00
C108   C     0.95647   0.74552   0.84706   0.00000  Uiso   1.00
C109   C     0.83174   0.78930   0.83479   0.00000  Uiso   1.00
C110   C     0.89408   0.59823   0.86999   0.00000  Uiso   1.00
C111   C     0.95477   0.55503   0.84556   0.00000  Uiso   1.00
C112   C     0.82928   0.51169   0.83261   0.00000  Uiso   1.00
C113   C     0.00900   0.64903   0.93580   0.00000  Uiso   1.00
C114   C     0.16629   0.64853   0.96670   0.00000  Uiso   1.00
C115   C     0.13755   0.64793   0.00916   0.00000  Uiso   1.00
H116   H     0.53762   0.64947   0.91663   0.00000  Uiso   1.00
H117   H     0.45149   0.74526   0.87829   0.00000  Uiso   1.00
H118   H     0.44980   0.55480   0.87679   0.00000  Uiso   1.00
H119   H     0.66130   0.64828   0.99791   0.00000  Uiso   1.00
H120   H     0.43521   0.85149   0.83086   0.00000  Uiso   1.00
H121   H     0.43167   0.44989   0.82772   0.00000  Uiso   1.00
H122   H     0.87764   0.64701   0.08313   0.00000  Uiso   1.00
H123   H     0.14813   0.64976   0.87888   0.00000  Uiso   1.00
H124   H     0.09551   0.74557   0.83847   0.00000  Uiso   1.00
H125   H     0.09381   0.55511   0.83697   0.00000  Uiso   1.00
H126   H     0.30530   0.64859   0.95809   0.00000  Uiso   1.00
H127   H     0.95791   0.85175   0.79854   0.00000  Uiso   1.00
H128   H     0.95437   0.45013   0.79540   0.00000  Uiso   1.00
H129   H     0.40034   0.64726   0.05081   0.00000  Uiso   1.00
O130   O     0.65090   0.91463   0.78878   0.00000  Uiso   1.00
O131   O     0.64627   0.38773   0.78467   0.00000  Uiso   1.00
O132   O     0.23137   0.64636   0.11976   0.00000  Uiso   1.00
N133   N     0.56546   0.83841   0.82881   0.00000  Uiso   1.00
N134   N     0.56214   0.46293   0.82587   0.00000  Uiso   1.00
N135   N     0.97909   0.64721   0.06466   0.00000  Uiso   1.00
N136   N     0.84672   0.83855   0.81142   0.00000  Uiso   1.00
N137   N     0.84340   0.46307   0.80847   0.00000  Uiso   1.00
N138   N     0.26035   0.64735   0.04726   0.00000  Uiso   1.00
C139   C     0.17749   0.14954   0.90798   0.00000  Uiso   1.00
C140   C     0.21536   0.20163   0.88192   0.00000  Uiso   1.00
C141   C     0.09052   0.24535   0.86969   0.00000  Uiso   1.00
C142   C     0.15176   0.28921   0.84592   0.00000  Uiso   1.00
C143   C     0.18320   0.37006   0.80712   0.00000  Uiso   1.00
C144   C     0.21443   0.09815   0.88110   0.00000  Uiso   1.00
C145   C     0.08882   0.05486   0.86819   0.00000  Uiso   1.00
C146   C     0.14930   0.01161   0.84374   0.00000  Uiso   1.00
C147   C     0.17934   0.93178   0.80369   0.00000  Uiso   1.00
C148   C     0.32934   0.14894   0.94691   0.00000  Uiso   1.00
C149   C     0.30034   0.14835   0.98933   0.00000  Uiso   1.00
C150   C     0.45757   0.14785   0.02029   0.00000  Uiso   1.00
C151   C     0.66602   0.14690   0.08242   0.00000  Uiso   1.00
C152   C     0.50825   0.14969   0.88753   0.00000  Uiso   1.00
C153   C     0.39502   0.20171   0.87081   0.00000  Uiso   1.00
C154   C     0.45647   0.24552   0.84706   0.00000  Uiso   1.00
C155   C     0.33174   0.28930   0.83479   0.00000  Uiso   1.00
C156   C     0.39408   0.09823   0.86999   0.00000  Uiso   1.00
C157   C     0.45477   0.05503   0.84556   0.00000  Uiso   1.00
C158   C     0.32928   0.01169   0.83261   0.00000  Uiso   1.00
C159   C     0.50900   0.14903   0.93580   0.00000  Uiso   1.00
C160   C     0.66629   0.14853   0.96670   0.00000  Uiso   1.00
C161   C     0.63755   0.14793   0.00916   0.00000  Uiso   1.00
H162   H     0.03762   0.14947   0.91663   0.00000  Uiso   1.00
H163   H     0.95149   0.24526   0.87829   0.00000  Uiso   1.00
H164   H     0.94980   0.05480   0.87679   0.00000  Uiso   1.00
H165   H     0.16130   0.14828   0.99791   0.00000  Uiso   1.00
H166   H     0.93521   0.35149   0.83086   0.00000  Uiso   1.00
H167   H     0.93167   0.94989   0.82772   0.00000  Uiso   1.00
H168   H     0.37764   0.14701   0.08313   0.00000  Uiso   1.00
H169   H     0.64813   0.14976   0.87888   0.00000  Uiso   1.00
H170   H     0.59551   0.24557   0.83847   0.00000  Uiso   1.00
H171   H     0.59381   0.05511   0.83697   0.00000  Uiso   1.00
H172   H     0.80530   0.14859   0.95809   0.00000  Uiso   1.00
H173   H     0.45791   0.35175   0.79854   0.00000  Uiso   1.00
H174   H     0.45437   0.95013   0.79540   0.00000  Uiso   1.00
H175   H     0.90034   0.14726   0.05081   0.00000  Uiso   1.00
O176   O     0.15090   0.41463   0.78878   0.00000  Uiso   1.00
O177   O     0.14627   0.88773   0.78467   0.00000  Uiso   1.00
O178   O     0.73137   0.14636   0.11976   0.00000  Uiso   1.00
N179   N     0.06546   0.33841   0.82881   0.00000  Uiso   1.00
N180   N     0.06214   0.96293   0.82587   0.00000  Uiso   1.00
N181   N     0.47909   0.14721   0.06466   0.00000  Uiso   1.00
N182   N     0.34672   0.33855   0.81142   0.00000  Uiso   1.00
N183   N     0.34340   0.96307   0.80847   0.00000  Uiso   1.00
N184   N     0.76035   0.14735   0.04726   0.00000  Uiso   1.00
C185   C     0.67749   0.35046   0.40798   0.00000  Uiso   1.00
C186   C     0.71536   0.29837   0.38192   0.00000  Uiso   1.00
C187   C     0.59052   0.25465   0.36969   0.00000  Uiso   1.00
C188   C     0.65176   0.21079   0.34592   0.00000  Uiso   1.00
C189   C     0.68320   0.12994   0.30712   0.00000  Uiso   1.00
C190   C     0.71443   0.40185   0.38110   0.00000  Uiso   1.00
C191   C     0.58882   0.44514   0.36819   0.00000  Uiso   1.00
C192   C     0.64930   0.48839   0.34374   0.00000  Uiso   1.00
C193   C     0.67934   0.56822   0.30369   0.00000  Uiso   1.00
C194   C     0.82934   0.35106   0.44691   0.00000  Uiso   1.00
C195   C     0.80034   0.35165   0.48933   0.00000  Uiso   1.00
C196   C     0.95757   0.35215   0.52029   0.00000  Uiso   1.00
C197   C     0.16602   0.35310   0.58242   0.00000  Uiso   1.00
C198   C     0.00825   0.35031   0.38753   0.00000  Uiso   1.00
C199   C     0.89502   0.29829   0.37081   0.00000  Uiso   1.00
C200   C     0.95647   0.25448   0.34706   0.00000  Uiso   1.00
C201   C     0.83174   0.21070   0.33479   0.00000  Uiso   1.00
C202   C     0.89408   0.40177   0.36999   0.00000  Uiso   1.00
C203   C     0.95477   0.44497   0.34556   0.00000  Uiso   1.00
C204   C     0.82928   0.48831   0.33261   0.00000  Uiso   1.00
C205   C     0.00900   0.35097   0.43580   0.00000  Uiso   1.00
C206   C     0.16629   0.35147   0.46670   0.00000  Uiso   1.00
C207   C     0.13755   0.35207   0.50916   0.00000  Uiso   1.00
H208   H     0.53762   0.35053   0.41663   0.00000  Uiso   1.00
H209   H     0.45149   0.25474   0.37829   0.00000  Uiso   1.00
H210   H     0.44980   0.44520   0.37679   0.00000  Uiso   1.00
H211   H     0.66130   0.35172   0.49791   0.00000  Uiso   1.00
H212   H     0.43521   0.14851   0.33086   0.00000  Uiso   1.00
H213   H     0.43167   0.55011   0.32772   0.00000  Uiso   1.00
H214   H     0.87764   0.35299   0.58313   0.00000  Uiso   1.00
H215   H     0.14813   0.35024   0.37888   0.00000  Uiso   1.00
H216   H     0.09551   0.25443   0.33847   0.00000  Uiso   1.00
H217   H     0.09381   0.44489   0.33697   0.00000  Uiso   1.00
H218   H     0.30530   0.35141   0.45809   0.00000  Uiso   1.00
H219   H     0.95791   0.14825   0.29854   0.00000  Uiso   1.00
H220   H     0.95437   0.54987   0.29540   0.00000  Uiso   1.00
H221   H     0.40034   0.35274   0.55081   0.00000  Uiso   1.00
O222   O     0.65090   0.08537   0.28878   0.00000  Uiso   1.00
O223   O     0.64627   0.61227   0.28467   0.00000  Uiso   1.00
O224   O     0.23137   0.35364   0.61976   0.00000  Uiso   1.00
N225   N     0.56546   0.16159   0.32881   0.00000  Uiso   1.00
N226   N     0.56214   0.53707   0.32587   0.00000  Uiso   1.00
N227   N     0.97909   0.35279   0.56466   0.00000  Uiso   1.00
N228   N     0.84672   0.16145   0.31142   0.00000  Uiso   1.00
N229   N     0.84340   0.53693   0.30847   0.00000  Uiso   1.00
N230   N     0.26035   0.35265   0.54726   0.00000  Uiso   1.00
C231   C     0.17749   0.85046   0.40798   0.00000  Uiso   1.00
C232   C     0.21536   0.79837   0.38192   0.00000  Uiso   1.00
C233   C     0.09052   0.75465   0.36969   0.00000  Uiso   1.00
C234   C     0.15176   0.71079   0.34592   0.00000  Uiso   1.00
C235   C     0.18320   0.62994   0.30712   0.00000  Uiso   1.00
C236   C     0.21443   0.90185   0.38110   0.00000  Uiso   1.00
C237   C     0.08882   0.94514   0.36819   0.00000  Uiso   1.00
C238   C     0.14930   0.98839   0.34374   0.00000  Uiso   1.00
C239   C     0.17934   0.06822   0.30369   0.00000  Uiso   1.00
C240   C     0.32934   0.85106   0.44691   0.00000  Uiso   1.00
C241   C     0.30034   0.85165   0.48933   0.00000  Uiso   1.00
C242   C     0.45757   0.85215   0.52029   0.00000  Uiso   1.00
C243   C     0.66602   0.85310   0.58242   0.00000  Uiso   1.00
C244   C     0.50825   0.85031   0.38753   0.00000  Uiso   1.00
C245   C     0.39502   0.79829   0.37081   0.00000  Uiso   1.00
C246   C     0.45647   0.75448   0.34706   0.00000  Uiso   1.00
C247   C     0.33174   0.71070   0.33479   0.00000  Uiso   1.00
C248   C     0.39408   0.90177   0.36999   0.00000  Uiso   1.00
C249   C     0.45477   0.94497   0.34556   0.00000  Uiso   1.00
C250   C     0.32928   0.98831   0.33261   0.00000  Uiso   1.00
C251   C     0.50900   0.85097   0.43580   0.00000  Uiso   1.00
C252   C     0.66629   0.85147   0.46670   0.00000  Uiso   1.00
C253   C     0.63755   0.85207   0.50916   0.00000  Uiso   1.00
H254   H     0.03762   0.85053   0.41663   0.00000  Uiso   1.00
H255   H     0.95149   0.75474   0.37829   0.00000  Uiso   1.00
H256   H     0.94980   0.94520   0.37679   0.00000  Uiso   1.00
H257   H     0.16130   0.85172   0.49791   0.00000  Uiso   1.00
H258   H     0.93521   0.64851   0.33086   0.00000  Uiso   1.00
H259   H     0.93167   0.05011   0.32772   0.00000  Uiso   1.00
H260   H     0.37764   0.85299   0.58313   0.00000  Uiso   1.00
H261   H     0.64813   0.85024   0.37888   0.00000  Uiso   1.00
H262   H     0.59551   0.75443   0.33847   0.00000  Uiso   1.00
H263   H     0.59381   0.94489   0.33697   0.00000  Uiso   1.00
H264   H     0.80530   0.85141   0.45809   0.00000  Uiso   1.00
H265   H     0.45791   0.64825   0.29854   0.00000  Uiso   1.00
H266   H     0.45437   0.04987   0.29540   0.00000  Uiso   1.00
H267   H     0.90034   0.85274   0.55081   0.00000  Uiso   1.00
O268   O     0.15090   0.58537   0.28878   0.00000  Uiso   1.00
O269   O     0.14627   0.11227   0.28467   0.00000  Uiso   1.00
O270   O     0.73137   0.85364   0.61976   0.00000  Uiso   1.00
N271   N     0.06546   0.66159   0.32881   0.00000  Uiso   1.00
N272   N     0.06214   0.03707   0.32587   0.00000  Uiso   1.00
N273   N     0.47909   0.85279   0.56466   0.00000  Uiso   1.00
N274   N     0.34672   0.66145   0.31142   0.00000  Uiso   1.00
N275   N     0.34340   0.03693   0.30847   0.00000  Uiso   1.00
N276   N     0.76035   0.85265   0.54726   0.00000  Uiso   1.00
C277   C     0.32251   0.35046   0.09202   0.00000  Uiso   1.00
C278   C     0.28464   0.29837   0.11808   0.00000  Uiso   1.00
C279   C     0.40948   0.25465   0.13031   0.00000  Uiso   1.00
C280   C     0.34824   0.21079   0.15408   0.00000  Uiso   1.00
C281   C     0.31680   0.12994   0.19288   0.00000  Uiso   1.00
C282   C     0.28557   0.40185   0.11890   0.00000  Uiso   1.00
C283   C     0.41118   0.44514   0.13181   0.00000  Uiso   1.00
C284   C     0.35070   0.48839   0.15626   0.00000  Uiso   1.00
C285   C     0.32066   0.56822   0.19631   0.00000  Uiso   1.00
C286   C     0.17066   0.35106   0.05309   0.00000  Uiso   1.00
C287   C     0.19966   0.35165   0.01067   0.00000  Uiso   1.00
C288   C     0.04243   0.35215   0.97971   0.00000  Uiso   1.00
C289   C     0.83398   0.35310   0.91758   0.00000  Uiso   1.00
C290   C     0.99175   0.35031   0.11247   0.00000  Uiso   1.00
C291   C     0.10498   0.29829   0.12919   0.00000  Uiso   1.00
C292   C     0.04353   0.25448   0.15294   0.00000  Uiso   1.00
C293   C     0.16826   0.21070   0.16521   0.00000  Uiso   1.00
C294   C     0.10592   0.40177   0.13001   0.00000  Uiso   1.00
C295   C     0.04523   0.44497   0.15444   0.00000  Uiso   1.00
C296   C     0.17072   0.48831   0.16739   0.00000  Uiso   1.00
C297   C     0.99100   0.35097   0.06420   0.00000  Uiso   1.00
C298   C     0.83371   0.35147   0.03330   0.00000  Uiso   1.00
C299   C     0.86245   0.35207   0.99084   0.00000  Uiso   1.00
H300   H     0.46238   0.35053   0.08337   0.00000  Uiso   1.00
H301   H     0.54851   0.25474   0.12171   0.00000  Uiso   1.00
H302   H     0.55020   0.44520   0.12321   0.00000  Uiso   1.00
H303   H     0.33870   0.35172   0.00209   0.00000  Uiso   1.00
H304   H     0.56479   0.14851   0.16914   0.00000  Uiso   1.00
H305   H     0.56833   0.55011   0.17228   0.00000  Uiso   1.00
H306   H     0.12236   0.35299   0.91687   0.00000  Uiso   1.00
H307   H     0.85187   0.35024   0.12112   0.00000  Uiso   1.00
H308   H     0.90449   0.25443   0.16153   0.00000  Uiso   1.00
H309   H     0.90619   0.44489   0.16303   0.00000  Uiso   1.00
H310   H     0.69470   0.35141   0.04191   0.00000  Uiso   1.00
H311   H     0.04209   0.14825   0.20146   0.00000  Uiso   1.00
H312   H     0.04563   0.54987   0.20460   0.00000  Uiso   1.00
H313   H     0.59966   0.35274   0.94919   0.00000  Uiso   1.00
O314   O     0.34910   0.08537   0.21122   0.00000  Uiso   1.00
O315   O     0.35373   0.61227   0.21533   0.00000  Uiso   1.00
O316   O     0.76863   0.35364   0.88024   0.00000  Uiso   1.00
N317   N     0.43454   0.16159   0.17119   0.00000  Uiso   1.00
N318   N     0.43786   0.53707   0.17413   0.00000  Uiso   1.00
N319   N     0.02091   0.35279   0.93534   0.00000  Uiso   1.00
N320   N     0.15328   0.16145   0.18858   0.00000  Uiso   1.00
N321   N     0.15660   0.53693   0.19153   0.00000  Uiso   1.00
N322   N     0.73965   0.35265   0.95274   0.00000  Uiso   1.00
C323   C     0.82251   0.85046   0.09202   0.00000  Uiso   1.00
C324   C     0.78464   0.79837   0.11808   0.00000  Uiso   1.00
C325   C     0.90948   0.75465   0.13031   0.00000  Uiso   1.00
C326   C     0.84824   0.71079   0.15408   0.00000  Uiso   1.00
C327   C     0.81680   0.62994   0.19288   0.00000  Uiso   1.00
C328   C     0.78557   0.90185   0.11890   0.00000  Uiso   1.00
C329   C     0.91118   0.94514   0.13181   0.00000  Uiso   1.00
C330   C     0.85070   0.98839   0.15626   0.00000  Uiso   1.00
C331   C     0.82066   0.06822   0.19631   0.00000  Uiso   1.00
C332   C     0.67066   0.85106   0.05309   0.00000  Uiso   1.00
C333   C     0.69966   0.85165   0.01067   0.00000  Uiso   1.00
C334   C     0.54243   0.85215   0.97971   0.00000  Uiso   1.00
C335   C     0.33398   0.85310   0.91758   0.00000  Uiso   1.00
C336   C     0.49175   0.85031   0.11247   0.00000  Uiso   1.00
C337   C     0.60498   0.79829   0.12919   0.00000  Uiso   1.00
C338   C     0.54353   0.75448   0.15294   0.00000  Uiso   1.00
C339   C     0.66826   0.71070   0.16521   0.00000  Uiso   1.00
C340   C     0.60592   0.90177   0.13001   0.00000  Uiso   1.00
C341   C     0.54523   0.94497   0.15444   0.00000  Uiso   1.00
C342   C     0.67072   0.98831   0.16739   0.00000  Uiso   1.00
C343   C     0.49100   0.85097   0.06420   0.00000  Uiso   1.00
C344   C     0.33371   0.85147   0.03330   0.00000  Uiso   1.00
C345   C     0.36245   0.85207   0.99084   0.00000  Uiso   1.00
H346   H     0.96238   0.85053   0.08337   0.00000  Uiso   1.00
H347   H     0.04851   0.75474   0.12171   0.00000  Uiso   1.00
H348   H     0.05020   0.94520   0.12321   0.00000  Uiso   1.00
H349   H     0.83870   0.85172   0.00209   0.00000  Uiso   1.00
H350   H     0.06479   0.64851   0.16914   0.00000  Uiso   1.00
H351   H     0.06833   0.05011   0.17228   0.00000  Uiso   1.00
H352   H     0.62236   0.85299   0.91687   0.00000  Uiso   1.00
H353   H     0.35187   0.85024   0.12112   0.00000  Uiso   1.00
H354   H     0.40449   0.75443   0.16153   0.00000  Uiso   1.00
H355   H     0.40619   0.94489   0.16303   0.00000  Uiso   1.00
H356   H     0.19470   0.85141   0.04191   0.00000  Uiso   1.00
H357   H     0.54209   0.64825   0.20146   0.00000  Uiso   1.00
H358   H     0.54563   0.04987   0.20460   0.00000  Uiso   1.00
H359   H     0.09966   0.85274   0.94919   0.00000  Uiso   1.00
O360   O     0.84910   0.58537   0.21122   0.00000  Uiso   1.00
O361   O     0.85373   0.11227   0.21533   0.00000  Uiso   1.00
O362   O     0.26863   0.85364   0.88024   0.00000  Uiso   1.00
N363   N     0.93454   0.66159   0.17119   0.00000  Uiso   1.00
N364   N     0.93786   0.03707   0.17413   0.00000  Uiso   1.00
N365   N     0.52091   0.85279   0.93534   0.00000  Uiso   1.00
N366   N     0.65328   0.66145   0.18858   0.00000  Uiso   1.00
N367   N     0.65660   0.03693   0.19153   0.00000  Uiso   1.00
N368   N     0.23965   0.85265   0.95274   0.00000  Uiso   1.00
