data_job_01251
_audit_creation_date              2018-12-19
_audit_creation_method            'Materials Studio'
_symmetry_space_group_name_H-M    'P1'
_symmetry_Int_Tables_number       1
_symmetry_cell_setting            triclinic
loop_
_symmetry_equiv_pos_as_xyz
  x,y,z
_cell_length_a                    15.3194
_cell_length_b                    25.2167
_cell_length_c                    12.3477
_cell_angle_alpha                 90.0000
_cell_angle_beta                  72.3627
_cell_angle_gamma                 90.0000
loop_
_atom_site_label
_atom_site_type_symbol
_atom_site_fract_x
_atom_site_fract_y
_atom_site_fract_z
_atom_site_U_iso_or_equiv
_atom_site_adp_type
_atom_site_occupancy
C1     C     0.85313   0.58964   0.05904   0.00000  Uiso   1.00
C2     C     0.91513   0.63443   0.07461   0.00000  Uiso   1.00
C3     C     0.00098   0.62829   0.08894   0.00000  Uiso   1.00
C4     C     0.04686   0.67420   0.10184   0.00000  Uiso   1.00
C5     C     0.14899   0.73611   0.12629   0.00000  Uiso   1.00
C6     C     0.76257   0.59665   0.15294   0.00000  Uiso   1.00
C7     C     0.72015   0.55874   0.23311   0.00000  Uiso   1.00
C8     C     0.63759   0.57285   0.31194   0.00000  Uiso   1.00
C9     C     0.50284   0.57609   0.45795   0.00000  Uiso   1.00
C10    C     0.83288   0.60121   0.94782   0.00000  Uiso   1.00
C11    C     0.84955   0.56713   0.85553   0.00000  Uiso   1.00
C12    C     0.82617   0.58508   0.76167   0.00000  Uiso   1.00
C13    C     0.80059   0.59539   0.58920   0.00000  Uiso   1.00
C14    C     0.78193   0.68210   0.05648   0.00000  Uiso   1.00
C15    C     0.87646   0.68465   0.07323   0.00000  Uiso   1.00
C16    C     0.92221   0.73059   0.08611   0.00000  Uiso   1.00
C17    C     0.00812   0.72452   0.10044   0.00000  Uiso   1.00
C18    C     0.72390   0.64687   0.15156   0.00000  Uiso   1.00
C19    C     0.64138   0.66104   0.23028   0.00000  Uiso   1.00
C20    C     0.59884   0.62317   0.31055   0.00000  Uiso   1.00
C21    C     0.79421   0.65143   0.94643   0.00000  Uiso   1.00
C22    C     0.77079   0.66943   0.85270   0.00000  Uiso   1.00
C23    C     0.78743   0.63539   0.76028   0.00000  Uiso   1.00
H24    H     0.88323   0.55054   0.06013   0.00000  Uiso   1.00
H25    H     0.03088   0.58942   0.09002   0.00000  Uiso   1.00
H26    H     0.75009   0.51988   0.23416   0.00000  Uiso   1.00
H27    H     0.87948   0.52827   0.85664   0.00000  Uiso   1.00
H28    H     0.17752   0.65466   0.12258   0.00000  Uiso   1.00
H29    H     0.58543   0.50803   0.42649   0.00000  Uiso   1.00
H30    H     0.85827   0.52572   0.63041   0.00000  Uiso   1.00
H31    H     0.75182   0.72120   0.05540   0.00000  Uiso   1.00
H32    H     0.89227   0.76945   0.08503   0.00000  Uiso   1.00
H33    H     0.61147   0.69991   0.22918   0.00000  Uiso   1.00
H34    H     0.74086   0.70830   0.85166   0.00000  Uiso   1.00
H35    H     0.06501   0.80078   0.11855   0.00000  Uiso   1.00
H36    H     0.47292   0.65415   0.42245   0.00000  Uiso   1.00
H37    H     0.74577   0.67184   0.62637   0.00000  Uiso   1.00
O38    O     0.21601   0.75638   0.14018   0.00000  Uiso   1.00
O39    O     0.43921   0.56400   0.53888   0.00000  Uiso   1.00
O40    O     0.79718   0.58721   0.49444   0.00000  Uiso   1.00
N41    N     0.13177   0.68243   0.11754   0.00000  Uiso   1.00
N42    N     0.57821   0.54535   0.40169   0.00000  Uiso   1.00
N43    N     0.83328   0.56188   0.65743   0.00000  Uiso   1.00
N44    N     0.07123   0.76106   0.11537   0.00000  Uiso   1.00
N45    N     0.51767   0.62397   0.39952   0.00000  Uiso   1.00
N46    N     0.77274   0.64050   0.65526   0.00000  Uiso   1.00
C47    C     0.35313   0.08964   0.05904   0.00000  Uiso   1.00
C48    C     0.41513   0.13443   0.07461   0.00000  Uiso   1.00
C49    C     0.50098   0.12829   0.08894   0.00000  Uiso   1.00
C50    C     0.54686   0.17420   0.10184   0.00000  Uiso   1.00
C51    C     0.64899   0.23611   0.12629   0.00000  Uiso   1.00
C52    C     0.26257   0.09665   0.15294   0.00000  Uiso   1.00
C53    C     0.22015   0.05874   0.23311   0.00000  Uiso   1.00
C54    C     0.13759   0.07285   0.31194   0.00000  Uiso   1.00
C55    C     0.00284   0.07609   0.45795   0.00000  Uiso   1.00
C56    C     0.33288   0.10121   0.94782   0.00000  Uiso   1.00
C57    C     0.34955   0.06713   0.85553   0.00000  Uiso   1.00
C58    C     0.32617   0.08508   0.76167   0.00000  Uiso   1.00
C59    C     0.30059   0.09539   0.58920   0.00000  Uiso   1.00
C60    C     0.28193   0.18210   0.05648   0.00000  Uiso   1.00
C61    C     0.37646   0.18465   0.07323   0.00000  Uiso   1.00
C62    C     0.42221   0.23059   0.08611   0.00000  Uiso   1.00
C63    C     0.50812   0.22452   0.10044   0.00000  Uiso   1.00
C64    C     0.22390   0.14687   0.15156   0.00000  Uiso   1.00
C65    C     0.14138   0.16104   0.23028   0.00000  Uiso   1.00
C66    C     0.09884   0.12317   0.31055   0.00000  Uiso   1.00
C67    C     0.29421   0.15143   0.94643   0.00000  Uiso   1.00
C68    C     0.27079   0.16943   0.85270   0.00000  Uiso   1.00
C69    C     0.28743   0.13539   0.76028   0.00000  Uiso   1.00
H70    H     0.38323   0.05054   0.06013   0.00000  Uiso   1.00
H71    H     0.53088   0.08942   0.09002   0.00000  Uiso   1.00
H72    H     0.25009   0.01988   0.23416   0.00000  Uiso   1.00
H73    H     0.37948   0.02827   0.85664   0.00000  Uiso   1.00
H74    H     0.67752   0.15466   0.12258   0.00000  Uiso   1.00
H75    H     0.08543   0.00803   0.42649   0.00000  Uiso   1.00
H76    H     0.35827   0.02572   0.63041   0.00000  Uiso   1.00
H77    H     0.25182   0.22120   0.05540   0.00000  Uiso   1.00
H78    H     0.39227   0.26945   0.08503   0.00000  Uiso   1.00
H79    H     0.11147   0.19991   0.22918   0.00000  Uiso   1.00
H80    H     0.24086   0.20830   0.85166   0.00000  Uiso   1.00
H81    H     0.56501   0.30078   0.11855   0.00000  Uiso   1.00
H82    H     0.97292   0.15415   0.42245   0.00000  Uiso   1.00
H83    H     0.24577   0.17184   0.62637   0.00000  Uiso   1.00
O84    O     0.71601   0.25638   0.14018   0.00000  Uiso   1.00
O85    O     0.93921   0.06400   0.53888   0.00000  Uiso   1.00
O86    O     0.29718   0.08721   0.49444   0.00000  Uiso   1.00
N87    N     0.63177   0.18243   0.11754   0.00000  Uiso   1.00
N88    N     0.07821   0.04535   0.40169   0.00000  Uiso   1.00
N89    N     0.33328   0.06188   0.65743   0.00000  Uiso   1.00
N90    N     0.57123   0.26106   0.11537   0.00000  Uiso   1.00
N91    N     0.01767   0.12397   0.39952   0.00000  Uiso   1.00
N92    N     0.27274   0.14050   0.65526   0.00000  Uiso   1.00
C93    C     0.14687   0.58964   0.44096   0.00000  Uiso   1.00
C94    C     0.08487   0.63443   0.42539   0.00000  Uiso   1.00
C95    C     0.99902   0.62829   0.41106   0.00000  Uiso   1.00
C96    C     0.95314   0.67420   0.39816   0.00000  Uiso   1.00
C97    C     0.85101   0.73611   0.37371   0.00000  Uiso   1.00
C98    C     0.23743   0.59665   0.34706   0.00000  Uiso   1.00
C99    C     0.27985   0.55874   0.26689   0.00000  Uiso   1.00
C100   C     0.36241   0.57285   0.18806   0.00000  Uiso   1.00
C101   C     0.49716   0.57609   0.04205   0.00000  Uiso   1.00
C102   C     0.16712   0.60121   0.55218   0.00000  Uiso   1.00
C103   C     0.15045   0.56713   0.64447   0.00000  Uiso   1.00
C104   C     0.17383   0.58508   0.73833   0.00000  Uiso   1.00
C105   C     0.19941   0.59539   0.91080   0.00000  Uiso   1.00
C106   C     0.21807   0.68210   0.44352   0.00000  Uiso   1.00
C107   C     0.12354   0.68465   0.42677   0.00000  Uiso   1.00
C108   C     0.07779   0.73059   0.41389   0.00000  Uiso   1.00
C109   C     0.99188   0.72452   0.39956   0.00000  Uiso   1.00
C110   C     0.27610   0.64687   0.34844   0.00000  Uiso   1.00
C111   C     0.35862   0.66104   0.26972   0.00000  Uiso   1.00
C112   C     0.40116   0.62317   0.18945   0.00000  Uiso   1.00
C113   C     0.20579   0.65143   0.55357   0.00000  Uiso   1.00
C114   C     0.22921   0.66943   0.64730   0.00000  Uiso   1.00
C115   C     0.21257   0.63539   0.73972   0.00000  Uiso   1.00
H116   H     0.11677   0.55054   0.43987   0.00000  Uiso   1.00
H117   H     0.96912   0.58942   0.40998   0.00000  Uiso   1.00
H118   H     0.24991   0.51988   0.26584   0.00000  Uiso   1.00
H119   H     0.12052   0.52827   0.64336   0.00000  Uiso   1.00
H120   H     0.82248   0.65466   0.37742   0.00000  Uiso   1.00
H121   H     0.41457   0.50803   0.07351   0.00000  Uiso   1.00
H122   H     0.14173   0.52572   0.86959   0.00000  Uiso   1.00
H123   H     0.24818   0.72120   0.44460   0.00000  Uiso   1.00
H124   H     0.10773   0.76945   0.41497   0.00000  Uiso   1.00
H125   H     0.38853   0.69991   0.27082   0.00000  Uiso   1.00
H126   H     0.25914   0.70830   0.64834   0.00000  Uiso   1.00
H127   H     0.93499   0.80078   0.38145   0.00000  Uiso   1.00
H128   H     0.52708   0.65415   0.07755   0.00000  Uiso   1.00
H129   H     0.25423   0.67184   0.87363   0.00000  Uiso   1.00
O130   O     0.78399   0.75638   0.35982   0.00000  Uiso   1.00
O131   O     0.56079   0.56400   0.96112   0.00000  Uiso   1.00
O132   O     0.20282   0.58721   0.00556   0.00000  Uiso   1.00
N133   N     0.86823   0.68243   0.38246   0.00000  Uiso   1.00
N134   N     0.42179   0.54535   0.09831   0.00000  Uiso   1.00
N135   N     0.16672   0.56188   0.84257   0.00000  Uiso   1.00
N136   N     0.92877   0.76106   0.38463   0.00000  Uiso   1.00
N137   N     0.48233   0.62397   0.10048   0.00000  Uiso   1.00
N138   N     0.22726   0.64050   0.84474   0.00000  Uiso   1.00
C139   C     0.64687   0.08964   0.44096   0.00000  Uiso   1.00
C140   C     0.58487   0.13443   0.42539   0.00000  Uiso   1.00
C141   C     0.49902   0.12829   0.41106   0.00000  Uiso   1.00
C142   C     0.45314   0.17420   0.39816   0.00000  Uiso   1.00
C143   C     0.35101   0.23611   0.37371   0.00000  Uiso   1.00
C144   C     0.73743   0.09665   0.34706   0.00000  Uiso   1.00
C145   C     0.77985   0.05874   0.26689   0.00000  Uiso   1.00
C146   C     0.86241   0.07285   0.18806   0.00000  Uiso   1.00
C147   C     0.99716   0.07609   0.04205   0.00000  Uiso   1.00
C148   C     0.66712   0.10121   0.55218   0.00000  Uiso   1.00
C149   C     0.65045   0.06713   0.64447   0.00000  Uiso   1.00
C150   C     0.67383   0.08508   0.73833   0.00000  Uiso   1.00
C151   C     0.69941   0.09539   0.91080   0.00000  Uiso   1.00
C152   C     0.71807   0.18210   0.44352   0.00000  Uiso   1.00
C153   C     0.62354   0.18465   0.42677   0.00000  Uiso   1.00
C154   C     0.57779   0.23059   0.41389   0.00000  Uiso   1.00
C155   C     0.49188   0.22452   0.39956   0.00000  Uiso   1.00
C156   C     0.77610   0.14687   0.34844   0.00000  Uiso   1.00
C157   C     0.85862   0.16104   0.26972   0.00000  Uiso   1.00
C158   C     0.90116   0.12317   0.18945   0.00000  Uiso   1.00
C159   C     0.70579   0.15143   0.55357   0.00000  Uiso   1.00
C160   C     0.72921   0.16943   0.64730   0.00000  Uiso   1.00
C161   C     0.71257   0.13539   0.73972   0.00000  Uiso   1.00
H162   H     0.61677   0.05054   0.43987   0.00000  Uiso   1.00
H163   H     0.46912   0.08942   0.40998   0.00000  Uiso   1.00
H164   H     0.74991   0.01988   0.26584   0.00000  Uiso   1.00
H165   H     0.62052   0.02827   0.64336   0.00000  Uiso   1.00
H166   H     0.32248   0.15466   0.37742   0.00000  Uiso   1.00
H167   H     0.91457   0.00803   0.07351   0.00000  Uiso   1.00
H168   H     0.64173   0.02572   0.86959   0.00000  Uiso   1.00
H169   H     0.74818   0.22120   0.44460   0.00000  Uiso   1.00
H170   H     0.60773   0.26945   0.41497   0.00000  Uiso   1.00
H171   H     0.88853   0.19991   0.27082   0.00000  Uiso   1.00
H172   H     0.75914   0.20830   0.64834   0.00000  Uiso   1.00
H173   H     0.43499   0.30078   0.38145   0.00000  Uiso   1.00
H174   H     0.02708   0.15415   0.07755   0.00000  Uiso   1.00
H175   H     0.75423   0.17184   0.87363   0.00000  Uiso   1.00
O176   O     0.28399   0.25638   0.35982   0.00000  Uiso   1.00
O177   O     0.06079   0.06400   0.96112   0.00000  Uiso   1.00
O178   O     0.70282   0.08721   0.00556   0.00000  Uiso   1.00
N179   N     0.36823   0.18243   0.38246   0.00000  Uiso   1.00
N180   N     0.92179   0.04535   0.09831   0.00000  Uiso   1.00
N181   N     0.66672   0.06188   0.84257   0.00000  Uiso   1.00
N182   N     0.42877   0.26106   0.38463   0.00000  Uiso   1.00
N183   N     0.98233   0.12397   0.10048   0.00000  Uiso   1.00
N184   N     0.72726   0.14050   0.84474   0.00000  Uiso   1.00
C185   C     0.14687   0.41036   0.94096   0.00000  Uiso   1.00
C186   C     0.08487   0.36557   0.92539   0.00000  Uiso   1.00
C187   C     0.99902   0.37171   0.91106   0.00000  Uiso   1.00
C188   C     0.95314   0.32580   0.89816   0.00000  Uiso   1.00
C189   C     0.85101   0.26389   0.87371   0.00000  Uiso   1.00
C190   C     0.23743   0.40335   0.84706   0.00000  Uiso   1.00
C191   C     0.27985   0.44126   0.76689   0.00000  Uiso   1.00
C192   C     0.36241   0.42715   0.68806   0.00000  Uiso   1.00
C193   C     0.49716   0.42391   0.54205   0.00000  Uiso   1.00
C194   C     0.16712   0.39879   0.05218   0.00000  Uiso   1.00
C195   C     0.15045   0.43287   0.14447   0.00000  Uiso   1.00
C196   C     0.17383   0.41492   0.23833   0.00000  Uiso   1.00
C197   C     0.19941   0.40461   0.41080   0.00000  Uiso   1.00
C198   C     0.21807   0.31790   0.94352   0.00000  Uiso   1.00
C199   C     0.12354   0.31535   0.92677   0.00000  Uiso   1.00
C200   C     0.07779   0.26941   0.91389   0.00000  Uiso   1.00
C201   C     0.99188   0.27548   0.89956   0.00000  Uiso   1.00
C202   C     0.27610   0.35313   0.84844   0.00000  Uiso   1.00
C203   C     0.35862   0.33896   0.76972   0.00000  Uiso   1.00
C204   C     0.40116   0.37683   0.68945   0.00000  Uiso   1.00
C205   C     0.20579   0.34857   0.05357   0.00000  Uiso   1.00
C206   C     0.22921   0.33057   0.14730   0.00000  Uiso   1.00
C207   C     0.21257   0.36461   0.23972   0.00000  Uiso   1.00
H208   H     0.11677   0.44946   0.93987   0.00000  Uiso   1.00
H209   H     0.96912   0.41058   0.90998   0.00000  Uiso   1.00
H210   H     0.24991   0.48012   0.76584   0.00000  Uiso   1.00
H211   H     0.12052   0.47173   0.14336   0.00000  Uiso   1.00
H212   H     0.82248   0.34534   0.87742   0.00000  Uiso   1.00
H213   H     0.41457   0.49197   0.57351   0.00000  Uiso   1.00
H214   H     0.14173   0.47428   0.36959   0.00000  Uiso   1.00
H215   H     0.24818   0.27880   0.94460   0.00000  Uiso   1.00
H216   H     0.10773   0.23055   0.91497   0.00000  Uiso   1.00
H217   H     0.38853   0.30009   0.77082   0.00000  Uiso   1.00
H218   H     0.25914   0.29170   0.14834   0.00000  Uiso   1.00
H219   H     0.93499   0.19922   0.88145   0.00000  Uiso   1.00
H220   H     0.52708   0.34585   0.57755   0.00000  Uiso   1.00
H221   H     0.25423   0.32816   0.37363   0.00000  Uiso   1.00
O222   O     0.78399   0.24362   0.85982   0.00000  Uiso   1.00
O223   O     0.56079   0.43600   0.46112   0.00000  Uiso   1.00
O224   O     0.20282   0.41279   0.50556   0.00000  Uiso   1.00
N225   N     0.86823   0.31757   0.88246   0.00000  Uiso   1.00
N226   N     0.42179   0.45465   0.59831   0.00000  Uiso   1.00
N227   N     0.16672   0.43812   0.34257   0.00000  Uiso   1.00
N228   N     0.92877   0.23894   0.88463   0.00000  Uiso   1.00
N229   N     0.48233   0.37603   0.60048   0.00000  Uiso   1.00
N230   N     0.22726   0.35950   0.34474   0.00000  Uiso   1.00
C231   C     0.64687   0.91036   0.94096   0.00000  Uiso   1.00
C232   C     0.58487   0.86557   0.92539   0.00000  Uiso   1.00
C233   C     0.49902   0.87171   0.91106   0.00000  Uiso   1.00
C234   C     0.45314   0.82580   0.89816   0.00000  Uiso   1.00
C235   C     0.35101   0.76389   0.87371   0.00000  Uiso   1.00
C236   C     0.73743   0.90335   0.84706   0.00000  Uiso   1.00
C237   C     0.77985   0.94126   0.76689   0.00000  Uiso   1.00
C238   C     0.86241   0.92715   0.68806   0.00000  Uiso   1.00
C239   C     0.99716   0.92391   0.54205   0.00000  Uiso   1.00
C240   C     0.66712   0.89879   0.05218   0.00000  Uiso   1.00
C241   C     0.65045   0.93287   0.14447   0.00000  Uiso   1.00
C242   C     0.67383   0.91492   0.23833   0.00000  Uiso   1.00
C243   C     0.69941   0.90461   0.41080   0.00000  Uiso   1.00
C244   C     0.71807   0.81790   0.94352   0.00000  Uiso   1.00
C245   C     0.62354   0.81535   0.92677   0.00000  Uiso   1.00
C246   C     0.57779   0.76941   0.91389   0.00000  Uiso   1.00
C247   C     0.49188   0.77548   0.89956   0.00000  Uiso   1.00
C248   C     0.77610   0.85313   0.84844   0.00000  Uiso   1.00
C249   C     0.85862   0.83896   0.76972   0.00000  Uiso   1.00
C250   C     0.90116   0.87683   0.68945   0.00000  Uiso   1.00
C251   C     0.70579   0.84857   0.05357   0.00000  Uiso   1.00
C252   C     0.72921   0.83057   0.14730   0.00000  Uiso   1.00
C253   C     0.71257   0.86461   0.23972   0.00000  Uiso   1.00
H254   H     0.61677   0.94946   0.93987   0.00000  Uiso   1.00
H255   H     0.46912   0.91058   0.90998   0.00000  Uiso   1.00
H256   H     0.74991   0.98012   0.76584   0.00000  Uiso   1.00
H257   H     0.62052   0.97173   0.14336   0.00000  Uiso   1.00
H258   H     0.32248   0.84534   0.87742   0.00000  Uiso   1.00
H259   H     0.91457   0.99197   0.57351   0.00000  Uiso   1.00
H260   H     0.64173   0.97428   0.36959   0.00000  Uiso   1.00
H261   H     0.74818   0.77880   0.94460   0.00000  Uiso   1.00
H262   H     0.60773   0.73055   0.91497   0.00000  Uiso   1.00
H263   H     0.88853   0.80009   0.77082   0.00000  Uiso   1.00
H264   H     0.75914   0.79170   0.14834   0.00000  Uiso   1.00
H265   H     0.43499   0.69922   0.88145   0.00000  Uiso   1.00
H266   H     0.02708   0.84585   0.57755   0.00000  Uiso   1.00
H267   H     0.75423   0.82816   0.37363   0.00000  Uiso   1.00
O268   O     0.28399   0.74362   0.85982   0.00000  Uiso   1.00
O269   O     0.06079   0.93600   0.46112   0.00000  Uiso   1.00
O270   O     0.70282   0.91279   0.50556   0.00000  Uiso   1.00
N271   N     0.36823   0.81757   0.88246   0.00000  Uiso   1.00
N272   N     0.92179   0.95465   0.59831   0.00000  Uiso   1.00
N273   N     0.66672   0.93812   0.34257   0.00000  Uiso   1.00
N274   N     0.42877   0.73894   0.88463   0.00000  Uiso   1.00
N275   N     0.98233   0.87603   0.60048   0.00000  Uiso   1.00
N276   N     0.72726   0.85950   0.34474   0.00000  Uiso   1.00
C277   C     0.85313   0.41036   0.55904   0.00000  Uiso   1.00
C278   C     0.91513   0.36557   0.57461   0.00000  Uiso   1.00
C279   C     0.00098   0.37171   0.58894   0.00000  Uiso   1.00
C280   C     0.04686   0.32580   0.60184   0.00000  Uiso   1.00
C281   C     0.14899   0.26389   0.62629   0.00000  Uiso   1.00
C282   C     0.76257   0.40335   0.65294   0.00000  Uiso   1.00
C283   C     0.72015   0.44126   0.73311   0.00000  Uiso   1.00
C284   C     0.63759   0.42715   0.81194   0.00000  Uiso   1.00
C285   C     0.50284   0.42391   0.95795   0.00000  Uiso   1.00
C286   C     0.83288   0.39879   0.44782   0.00000  Uiso   1.00
C287   C     0.84955   0.43287   0.35553   0.00000  Uiso   1.00
C288   C     0.82617   0.41492   0.26167   0.00000  Uiso   1.00
C289   C     0.80059   0.40461   0.08920   0.00000  Uiso   1.00
C290   C     0.78193   0.31790   0.55648   0.00000  Uiso   1.00
C291   C     0.87646   0.31535   0.57323   0.00000  Uiso   1.00
C292   C     0.92221   0.26941   0.58611   0.00000  Uiso   1.00
C293   C     0.00812   0.27548   0.60044   0.00000  Uiso   1.00
C294   C     0.72390   0.35313   0.65156   0.00000  Uiso   1.00
C295   C     0.64138   0.33896   0.73028   0.00000  Uiso   1.00
C296   C     0.59884   0.37683   0.81055   0.00000  Uiso   1.00
C297   C     0.79421   0.34857   0.44643   0.00000  Uiso   1.00
C298   C     0.77079   0.33057   0.35270   0.00000  Uiso   1.00
C299   C     0.78743   0.36461   0.26028   0.00000  Uiso   1.00
H300   H     0.88323   0.44946   0.56013   0.00000  Uiso   1.00
H301   H     0.03088   0.41058   0.59002   0.00000  Uiso   1.00
H302   H     0.75009   0.48012   0.73416   0.00000  Uiso   1.00
H303   H     0.87948   0.47173   0.35664   0.00000  Uiso   1.00
H304   H     0.17752   0.34534   0.62258   0.00000  Uiso   1.00
H305   H     0.58543   0.49197   0.92649   0.00000  Uiso   1.00
H306   H     0.85827   0.47428   0.13041   0.00000  Uiso   1.00
H307   H     0.75182   0.27880   0.55540   0.00000  Uiso   1.00
H308   H     0.89227   0.23055   0.58503   0.00000  Uiso   1.00
H309   H     0.61147   0.30009   0.72918   0.00000  Uiso   1.00
H310   H     0.74086   0.29170   0.35166   0.00000  Uiso   1.00
H311   H     0.06501   0.19922   0.61855   0.00000  Uiso   1.00
H312   H     0.47292   0.34585   0.92245   0.00000  Uiso   1.00
H313   H     0.74577   0.32816   0.12637   0.00000  Uiso   1.00
O314   O     0.21601   0.24362   0.64018   0.00000  Uiso   1.00
O315   O     0.43921   0.43600   0.03888   0.00000  Uiso   1.00
O316   O     0.79718   0.41279   0.99444   0.00000  Uiso   1.00
N317   N     0.13177   0.31757   0.61754   0.00000  Uiso   1.00
N318   N     0.57821   0.45465   0.90169   0.00000  Uiso   1.00
N319   N     0.83328   0.43812   0.15743   0.00000  Uiso   1.00
N320   N     0.07123   0.23894   0.61537   0.00000  Uiso   1.00
N321   N     0.51767   0.37603   0.89952   0.00000  Uiso   1.00
N322   N     0.77274   0.35950   0.15526   0.00000  Uiso   1.00
C323   C     0.35313   0.91036   0.55904   0.00000  Uiso   1.00
C324   C     0.41513   0.86557   0.57461   0.00000  Uiso   1.00
C325   C     0.50098   0.87171   0.58894   0.00000  Uiso   1.00
C326   C     0.54686   0.82580   0.60184   0.00000  Uiso   1.00
C327   C     0.64899   0.76389   0.62629   0.00000  Uiso   1.00
C328   C     0.26257   0.90335   0.65294   0.00000  Uiso   1.00
C329   C     0.22015   0.94126   0.73311   0.00000  Uiso   1.00
C330   C     0.13759   0.92715   0.81194   0.00000  Uiso   1.00
C331   C     0.00284   0.92391   0.95795   0.00000  Uiso   1.00
C332   C     0.33288   0.89879   0.44782   0.00000  Uiso   1.00
C333   C     0.34955   0.93287   0.35553   0.00000  Uiso   1.00
C334   C     0.32617   0.91492   0.26167   0.00000  Uiso   1.00
C335   C     0.30059   0.90461   0.08920   0.00000  Uiso   1.00
C336   C     0.28193   0.81790   0.55648   0.00000  Uiso   1.00
C337   C     0.37646   0.81535   0.57323   0.00000  Uiso   1.00
C338   C     0.42221   0.76941   0.58611   0.00000  Uiso   1.00
C339   C     0.50812   0.77548   0.60044   0.00000  Uiso   1.00
C340   C     0.22390   0.85313   0.65156   0.00000  Uiso   1.00
C341   C     0.14138   0.83896   0.73028   0.00000  Uiso   1.00
C342   C     0.09884   0.87683   0.81055   0.00000  Uiso   1.00
C343   C     0.29421   0.84857   0.44643   0.00000  Uiso   1.00
C344   C     0.27079   0.83057   0.35270   0.00000  Uiso   1.00
C345   C     0.28743   0.86461   0.26028   0.00000  Uiso   1.00
H346   H     0.38323   0.94946   0.56013   0.00000  Uiso   1.00
H347   H     0.53088   0.91058   0.59002   0.00000  Uiso   1.00
H348   H     0.25009   0.98012   0.73416   0.00000  Uiso   1.00
H349   H     0.37948   0.97173   0.35664   0.00000  Uiso   1.00
H350   H     0.67752   0.84534   0.62258   0.00000  Uiso   1.00
H351   H     0.08543   0.99197   0.92649   0.00000  Uiso   1.00
H352   H     0.35827   0.97428   0.13041   0.00000  Uiso   1.00
H353   H     0.25182   0.77880   0.55540   0.00000  Uiso   1.00
H354   H     0.39227   0.73055   0.58503   0.00000  Uiso   1.00
H355   H     0.11147   0.80009   0.72918   0.00000  Uiso   1.00
H356   H     0.24086   0.79170   0.35166   0.00000  Uiso   1.00
H357   H     0.56501   0.69922   0.61855   0.00000  Uiso   1.00
H358   H     0.97292   0.84585   0.92245   0.00000  Uiso   1.00
H359   H     0.24577   0.82816   0.12637   0.00000  Uiso   1.00
O360   O     0.71601   0.74362   0.64018   0.00000  Uiso   1.00
O361   O     0.93921   0.93600   0.03888   0.00000  Uiso   1.00
O362   O     0.29718   0.91279   0.99444   0.00000  Uiso   1.00
N363   N     0.63177   0.81757   0.61754   0.00000  Uiso   1.00
N364   N     0.07821   0.95465   0.90169   0.00000  Uiso   1.00
N365   N     0.33328   0.93812   0.15743   0.00000  Uiso   1.00
N366   N     0.57123   0.73894   0.61537   0.00000  Uiso   1.00
N367   N     0.01767   0.87603   0.89952   0.00000  Uiso   1.00
N368   N     0.27274   0.85950   0.15526   0.00000  Uiso   1.00
