data_job_03535
_audit_creation_date              2018-12-19
_audit_creation_method            'Materials Studio'
_symmetry_space_group_name_H-M    'P1'
_symmetry_Int_Tables_number       1
_symmetry_cell_setting            triclinic
loop_
_symmetry_equiv_pos_as_xyz
  x,y,z
_cell_length_a                    13.0252
_cell_length_b                    42.5506
_cell_length_c                    23.2788
_cell_angle_alpha                 90.0000
_cell_angle_beta                  90.0000
_cell_angle_gamma                 90.0000
loop_
_atom_site_label
_atom_site_type_symbol
_atom_site_fract_x
_atom_site_fract_y
_atom_site_fract_z
_atom_site_U_iso_or_equiv
_atom_site_adp_type
_atom_site_occupancy
C1     C     0.63492   0.34773   0.67920   0.00000  Uiso   1.00
C2     C     0.55735   0.37427   0.67182   0.00000  Uiso   1.00
C3     C     0.58087   0.40582   0.66440   0.00000  Uiso   1.00
C4     C     0.49892   0.42643   0.65843   0.00000  Uiso   1.00
C5     C     0.39395   0.46924   0.64679   0.00000  Uiso   1.00
C6     C     0.60758   0.33157   0.73563   0.00000  Uiso   1.00
C7     C     0.67334   0.32722   0.78186   0.00000  Uiso   1.00
C8     C     0.63367   0.31188   0.82960   0.00000  Uiso   1.00
C9     C     0.60671   0.28839   0.91701   0.00000  Uiso   1.00
C10    C     0.61145   0.32399   0.63192   0.00000  Uiso   1.00
C11    C     0.68047   0.31326   0.59096   0.00000  Uiso   1.00
C12    C     0.64407   0.29153   0.55139   0.00000  Uiso   1.00
C13    C     0.62311   0.25627   0.47777   0.00000  Uiso   1.00
C14    C     0.44756   0.32823   0.68178   0.00000  Uiso   1.00
C15    C     0.45558   0.36367   0.67322   0.00000  Uiso   1.00
C16    C     0.37358   0.38424   0.66725   0.00000  Uiso   1.00
C17    C     0.39697   0.41581   0.65983   0.00000  Uiso   1.00
C18    C     0.50581   0.32098   0.73703   0.00000  Uiso   1.00
C19    C     0.46605   0.30564   0.78471   0.00000  Uiso   1.00
C20    C     0.53173   0.30126   0.83100   0.00000  Uiso   1.00
C21    C     0.50968   0.31340   0.63332   0.00000  Uiso   1.00
C22    C     0.47317   0.29168   0.59381   0.00000  Uiso   1.00
C23    C     0.54212   0.28092   0.55279   0.00000  Uiso   1.00
H24    H     0.71415   0.35598   0.67812   0.00000  Uiso   1.00
H25    H     0.65963   0.41401   0.66333   0.00000  Uiso   1.00
H26    H     0.75209   0.33541   0.78077   0.00000  Uiso   1.00
H27    H     0.75921   0.32146   0.58989   0.00000  Uiso   1.00
H28    H     0.55431   0.47367   0.64757   0.00000  Uiso   1.00
H29    H     0.74927   0.30795   0.89519   0.00000  Uiso   1.00
H30    H     0.76429   0.27852   0.49269   0.00000  Uiso   1.00
H31    H     0.36833   0.31998   0.68287   0.00000  Uiso   1.00
H32    H     0.29483   0.37603   0.66834   0.00000  Uiso   1.00
H33    H     0.38729   0.29744   0.78578   0.00000  Uiso   1.00
H34    H     0.39442   0.28349   0.59490   0.00000  Uiso   1.00
H35    H     0.25823   0.44285   0.65164   0.00000  Uiso   1.00
H36    H     0.45319   0.27713   0.89926   0.00000  Uiso   1.00
H37    H     0.46821   0.24770   0.49676   0.00000  Uiso   1.00
O38    O     0.36416   0.49579   0.63999   0.00000  Uiso   1.00
O39    O     0.61994   0.27836   0.96484   0.00000  Uiso   1.00
O40    O     0.63965   0.23975   0.43677   0.00000  Uiso   1.00
N41    N     0.49471   0.45872   0.65051   0.00000  Uiso   1.00
N42    N     0.67698   0.30379   0.88202   0.00000  Uiso   1.00
N43    N     0.69104   0.27627   0.50573   0.00000  Uiso   1.00
N44    N     0.33539   0.44214   0.65270   0.00000  Uiso   1.00
N45    N     0.51766   0.28720   0.88421   0.00000  Uiso   1.00
N46    N     0.53172   0.25969   0.50792   0.00000  Uiso   1.00
C47    C     0.63492   0.84773   0.17920   0.00000  Uiso   1.00
C48    C     0.55735   0.87427   0.17182   0.00000  Uiso   1.00
C49    C     0.58087   0.90582   0.16440   0.00000  Uiso   1.00
C50    C     0.49892   0.92643   0.15843   0.00000  Uiso   1.00
C51    C     0.39395   0.96924   0.14679   0.00000  Uiso   1.00
C52    C     0.60758   0.83157   0.23563   0.00000  Uiso   1.00
C53    C     0.67334   0.82722   0.28186   0.00000  Uiso   1.00
C54    C     0.63367   0.81188   0.32960   0.00000  Uiso   1.00
C55    C     0.60671   0.78839   0.41701   0.00000  Uiso   1.00
C56    C     0.61145   0.82399   0.13192   0.00000  Uiso   1.00
C57    C     0.68047   0.81326   0.09096   0.00000  Uiso   1.00
C58    C     0.64407   0.79153   0.05139   0.00000  Uiso   1.00
C59    C     0.62311   0.75627   0.97777   0.00000  Uiso   1.00
C60    C     0.44756   0.82823   0.18178   0.00000  Uiso   1.00
C61    C     0.45558   0.86367   0.17322   0.00000  Uiso   1.00
C62    C     0.37358   0.88424   0.16725   0.00000  Uiso   1.00
C63    C     0.39697   0.91581   0.15983   0.00000  Uiso   1.00
C64    C     0.50581   0.82098   0.23703   0.00000  Uiso   1.00
C65    C     0.46605   0.80564   0.28471   0.00000  Uiso   1.00
C66    C     0.53173   0.80126   0.33100   0.00000  Uiso   1.00
C67    C     0.50968   0.81340   0.13332   0.00000  Uiso   1.00
C68    C     0.47317   0.79168   0.09381   0.00000  Uiso   1.00
C69    C     0.54212   0.78092   0.05279   0.00000  Uiso   1.00
H70    H     0.71415   0.85598   0.17812   0.00000  Uiso   1.00
H71    H     0.65963   0.91401   0.16333   0.00000  Uiso   1.00
H72    H     0.75209   0.83541   0.28077   0.00000  Uiso   1.00
H73    H     0.75921   0.82146   0.08989   0.00000  Uiso   1.00
H74    H     0.55431   0.97367   0.14757   0.00000  Uiso   1.00
H75    H     0.74927   0.80795   0.39519   0.00000  Uiso   1.00
H76    H     0.76429   0.77852   0.99269   0.00000  Uiso   1.00
H77    H     0.36833   0.81998   0.18287   0.00000  Uiso   1.00
H78    H     0.29483   0.87603   0.16834   0.00000  Uiso   1.00
H79    H     0.38729   0.79744   0.28578   0.00000  Uiso   1.00
H80    H     0.39442   0.78349   0.09490   0.00000  Uiso   1.00
H81    H     0.25823   0.94285   0.15164   0.00000  Uiso   1.00
H82    H     0.45319   0.77713   0.39926   0.00000  Uiso   1.00
H83    H     0.46821   0.74770   0.99676   0.00000  Uiso   1.00
O84    O     0.36416   0.99579   0.13999   0.00000  Uiso   1.00
O85    O     0.61994   0.77836   0.46484   0.00000  Uiso   1.00
O86    O     0.63965   0.73975   0.93677   0.00000  Uiso   1.00
N87    N     0.49471   0.95872   0.15051   0.00000  Uiso   1.00
N88    N     0.67698   0.80379   0.38202   0.00000  Uiso   1.00
N89    N     0.69104   0.77627   0.00573   0.00000  Uiso   1.00
N90    N     0.33539   0.94214   0.15270   0.00000  Uiso   1.00
N91    N     0.51766   0.78720   0.38421   0.00000  Uiso   1.00
N92    N     0.53172   0.75969   0.00792   0.00000  Uiso   1.00
C93    C     0.36508   0.65227   0.67920   0.00000  Uiso   1.00
C94    C     0.44265   0.62573   0.67182   0.00000  Uiso   1.00
C95    C     0.41913   0.59418   0.66440   0.00000  Uiso   1.00
C96    C     0.50108   0.57357   0.65843   0.00000  Uiso   1.00
C97    C     0.60605   0.53076   0.64679   0.00000  Uiso   1.00
C98    C     0.39242   0.66843   0.73563   0.00000  Uiso   1.00
C99    C     0.32666   0.67278   0.78186   0.00000  Uiso   1.00
C100   C     0.36633   0.68812   0.82960   0.00000  Uiso   1.00
C101   C     0.39329   0.71161   0.91701   0.00000  Uiso   1.00
C102   C     0.38855   0.67601   0.63192   0.00000  Uiso   1.00
C103   C     0.31953   0.68674   0.59096   0.00000  Uiso   1.00
C104   C     0.35593   0.70847   0.55139   0.00000  Uiso   1.00
C105   C     0.37689   0.74373   0.47777   0.00000  Uiso   1.00
C106   C     0.55244   0.67177   0.68178   0.00000  Uiso   1.00
C107   C     0.54442   0.63633   0.67322   0.00000  Uiso   1.00
C108   C     0.62642   0.61576   0.66725   0.00000  Uiso   1.00
C109   C     0.60303   0.58419   0.65983   0.00000  Uiso   1.00
C110   C     0.49419   0.67902   0.73703   0.00000  Uiso   1.00
C111   C     0.53395   0.69436   0.78471   0.00000  Uiso   1.00
C112   C     0.46827   0.69874   0.83100   0.00000  Uiso   1.00
C113   C     0.49032   0.68660   0.63332   0.00000  Uiso   1.00
C114   C     0.52683   0.70832   0.59381   0.00000  Uiso   1.00
C115   C     0.45788   0.71908   0.55279   0.00000  Uiso   1.00
H116   H     0.28585   0.64402   0.67812   0.00000  Uiso   1.00
H117   H     0.34037   0.58599   0.66333   0.00000  Uiso   1.00
H118   H     0.24791   0.66459   0.78077   0.00000  Uiso   1.00
H119   H     0.24079   0.67854   0.58989   0.00000  Uiso   1.00
H120   H     0.44569   0.52633   0.64757   0.00000  Uiso   1.00
H121   H     0.25073   0.69205   0.89519   0.00000  Uiso   1.00
H122   H     0.23571   0.72148   0.49269   0.00000  Uiso   1.00
H123   H     0.63167   0.68002   0.68287   0.00000  Uiso   1.00
H124   H     0.70517   0.62397   0.66834   0.00000  Uiso   1.00
H125   H     0.61271   0.70256   0.78578   0.00000  Uiso   1.00
H126   H     0.60558   0.71651   0.59490   0.00000  Uiso   1.00
H127   H     0.74177   0.55715   0.65164   0.00000  Uiso   1.00
H128   H     0.54681   0.72287   0.89926   0.00000  Uiso   1.00
H129   H     0.53179   0.75230   0.49676   0.00000  Uiso   1.00
O130   O     0.63584   0.50421   0.63999   0.00000  Uiso   1.00
O131   O     0.38006   0.72164   0.96484   0.00000  Uiso   1.00
O132   O     0.36035   0.76025   0.43677   0.00000  Uiso   1.00
N133   N     0.50529   0.54128   0.65051   0.00000  Uiso   1.00
N134   N     0.32302   0.69621   0.88202   0.00000  Uiso   1.00
N135   N     0.30896   0.72373   0.50573   0.00000  Uiso   1.00
N136   N     0.66461   0.55786   0.65270   0.00000  Uiso   1.00
N137   N     0.48234   0.71280   0.88421   0.00000  Uiso   1.00
N138   N     0.46828   0.74031   0.50792   0.00000  Uiso   1.00
C139   C     0.36508   0.15227   0.17920   0.00000  Uiso   1.00
C140   C     0.44265   0.12573   0.17182   0.00000  Uiso   1.00
C141   C     0.41913   0.09418   0.16440   0.00000  Uiso   1.00
C142   C     0.50108   0.07357   0.15843   0.00000  Uiso   1.00
C143   C     0.60605   0.03076   0.14679   0.00000  Uiso   1.00
C144   C     0.39242   0.16843   0.23563   0.00000  Uiso   1.00
C145   C     0.32666   0.17278   0.28186   0.00000  Uiso   1.00
C146   C     0.36633   0.18812   0.32960   0.00000  Uiso   1.00
C147   C     0.39329   0.21161   0.41701   0.00000  Uiso   1.00
C148   C     0.38855   0.17601   0.13192   0.00000  Uiso   1.00
C149   C     0.31953   0.18674   0.09096   0.00000  Uiso   1.00
C150   C     0.35593   0.20847   0.05139   0.00000  Uiso   1.00
C151   C     0.37689   0.24373   0.97777   0.00000  Uiso   1.00
C152   C     0.55244   0.17177   0.18178   0.00000  Uiso   1.00
C153   C     0.54442   0.13633   0.17322   0.00000  Uiso   1.00
C154   C     0.62642   0.11576   0.16725   0.00000  Uiso   1.00
C155   C     0.60303   0.08419   0.15983   0.00000  Uiso   1.00
C156   C     0.49419   0.17902   0.23703   0.00000  Uiso   1.00
C157   C     0.53395   0.19436   0.28471   0.00000  Uiso   1.00
C158   C     0.46827   0.19874   0.33100   0.00000  Uiso   1.00
C159   C     0.49032   0.18660   0.13332   0.00000  Uiso   1.00
C160   C     0.52683   0.20832   0.09381   0.00000  Uiso   1.00
C161   C     0.45788   0.21908   0.05279   0.00000  Uiso   1.00
H162   H     0.28585   0.14402   0.17812   0.00000  Uiso   1.00
H163   H     0.34037   0.08599   0.16333   0.00000  Uiso   1.00
H164   H     0.24791   0.16459   0.28077   0.00000  Uiso   1.00
H165   H     0.24079   0.17854   0.08989   0.00000  Uiso   1.00
H166   H     0.44569   0.02633   0.14757   0.00000  Uiso   1.00
H167   H     0.25073   0.19205   0.39519   0.00000  Uiso   1.00
H168   H     0.23571   0.22148   0.99269   0.00000  Uiso   1.00
H169   H     0.63167   0.18002   0.18287   0.00000  Uiso   1.00
H170   H     0.70517   0.12397   0.16834   0.00000  Uiso   1.00
H171   H     0.61271   0.20256   0.28578   0.00000  Uiso   1.00
H172   H     0.60558   0.21651   0.09490   0.00000  Uiso   1.00
H173   H     0.74177   0.05715   0.15164   0.00000  Uiso   1.00
H174   H     0.54681   0.22287   0.39926   0.00000  Uiso   1.00
H175   H     0.53179   0.25230   0.99676   0.00000  Uiso   1.00
O176   O     0.63584   0.00421   0.13999   0.00000  Uiso   1.00
O177   O     0.38006   0.22164   0.46484   0.00000  Uiso   1.00
O178   O     0.36035   0.26025   0.93677   0.00000  Uiso   1.00
N179   N     0.50529   0.04128   0.15051   0.00000  Uiso   1.00
N180   N     0.32302   0.19621   0.38202   0.00000  Uiso   1.00
N181   N     0.30896   0.22373   0.00573   0.00000  Uiso   1.00
N182   N     0.66461   0.05786   0.15270   0.00000  Uiso   1.00
N183   N     0.48234   0.21280   0.38421   0.00000  Uiso   1.00
N184   N     0.46828   0.24031   0.00792   0.00000  Uiso   1.00
C185   C     0.13492   0.15227   0.67920   0.00000  Uiso   1.00
C186   C     0.05735   0.12573   0.67182   0.00000  Uiso   1.00
C187   C     0.08087   0.09418   0.66440   0.00000  Uiso   1.00
C188   C     0.99892   0.07357   0.65843   0.00000  Uiso   1.00
C189   C     0.89395   0.03076   0.64679   0.00000  Uiso   1.00
C190   C     0.10758   0.16843   0.73563   0.00000  Uiso   1.00
C191   C     0.17334   0.17278   0.78186   0.00000  Uiso   1.00
C192   C     0.13367   0.18812   0.82960   0.00000  Uiso   1.00
C193   C     0.10671   0.21161   0.91701   0.00000  Uiso   1.00
C194   C     0.11145   0.17601   0.63192   0.00000  Uiso   1.00
C195   C     0.18047   0.18674   0.59096   0.00000  Uiso   1.00
C196   C     0.14407   0.20847   0.55139   0.00000  Uiso   1.00
C197   C     0.12311   0.24373   0.47777   0.00000  Uiso   1.00
C198   C     0.94756   0.17177   0.68178   0.00000  Uiso   1.00
C199   C     0.95558   0.13633   0.67322   0.00000  Uiso   1.00
C200   C     0.87358   0.11576   0.66725   0.00000  Uiso   1.00
C201   C     0.89697   0.08419   0.65983   0.00000  Uiso   1.00
C202   C     0.00581   0.17902   0.73703   0.00000  Uiso   1.00
C203   C     0.96605   0.19436   0.78471   0.00000  Uiso   1.00
C204   C     0.03173   0.19874   0.83100   0.00000  Uiso   1.00
C205   C     0.00968   0.18660   0.63332   0.00000  Uiso   1.00
C206   C     0.97317   0.20832   0.59381   0.00000  Uiso   1.00
C207   C     0.04212   0.21908   0.55279   0.00000  Uiso   1.00
H208   H     0.21415   0.14402   0.67812   0.00000  Uiso   1.00
H209   H     0.15963   0.08599   0.66333   0.00000  Uiso   1.00
H210   H     0.25209   0.16459   0.78077   0.00000  Uiso   1.00
H211   H     0.25921   0.17854   0.58989   0.00000  Uiso   1.00
H212   H     0.05431   0.02633   0.64757   0.00000  Uiso   1.00
H213   H     0.24927   0.19205   0.89519   0.00000  Uiso   1.00
H214   H     0.26429   0.22148   0.49269   0.00000  Uiso   1.00
H215   H     0.86833   0.18002   0.68287   0.00000  Uiso   1.00
H216   H     0.79483   0.12397   0.66834   0.00000  Uiso   1.00
H217   H     0.88729   0.20256   0.78578   0.00000  Uiso   1.00
H218   H     0.89442   0.21651   0.59490   0.00000  Uiso   1.00
H219   H     0.75823   0.05715   0.65164   0.00000  Uiso   1.00
H220   H     0.95319   0.22287   0.89926   0.00000  Uiso   1.00
H221   H     0.96821   0.25230   0.49676   0.00000  Uiso   1.00
O222   O     0.86416   0.00421   0.63999   0.00000  Uiso   1.00
O223   O     0.11994   0.22164   0.96484   0.00000  Uiso   1.00
O224   O     0.13965   0.26025   0.43677   0.00000  Uiso   1.00
N225   N     0.99471   0.04128   0.65051   0.00000  Uiso   1.00
N226   N     0.17698   0.19621   0.88202   0.00000  Uiso   1.00
N227   N     0.19104   0.22373   0.50573   0.00000  Uiso   1.00
N228   N     0.83539   0.05786   0.65270   0.00000  Uiso   1.00
N229   N     0.01766   0.21280   0.88421   0.00000  Uiso   1.00
N230   N     0.03172   0.24031   0.50792   0.00000  Uiso   1.00
C231   C     0.13492   0.65227   0.17920   0.00000  Uiso   1.00
C232   C     0.05735   0.62573   0.17182   0.00000  Uiso   1.00
C233   C     0.08087   0.59418   0.16440   0.00000  Uiso   1.00
C234   C     0.99892   0.57357   0.15843   0.00000  Uiso   1.00
C235   C     0.89395   0.53076   0.14679   0.00000  Uiso   1.00
C236   C     0.10758   0.66843   0.23563   0.00000  Uiso   1.00
C237   C     0.17334   0.67278   0.28186   0.00000  Uiso   1.00
C238   C     0.13367   0.68812   0.32960   0.00000  Uiso   1.00
C239   C     0.10671   0.71161   0.41701   0.00000  Uiso   1.00
C240   C     0.11145   0.67601   0.13192   0.00000  Uiso   1.00
C241   C     0.18047   0.68674   0.09096   0.00000  Uiso   1.00
C242   C     0.14407   0.70847   0.05139   0.00000  Uiso   1.00
C243   C     0.12311   0.74373   0.97777   0.00000  Uiso   1.00
C244   C     0.94756   0.67177   0.18178   0.00000  Uiso   1.00
C245   C     0.95558   0.63633   0.17322   0.00000  Uiso   1.00
C246   C     0.87358   0.61576   0.16725   0.00000  Uiso   1.00
C247   C     0.89697   0.58419   0.15983   0.00000  Uiso   1.00
C248   C     0.00581   0.67902   0.23703   0.00000  Uiso   1.00
C249   C     0.96605   0.69436   0.28471   0.00000  Uiso   1.00
C250   C     0.03173   0.69874   0.33100   0.00000  Uiso   1.00
C251   C     0.00968   0.68660   0.13332   0.00000  Uiso   1.00
C252   C     0.97317   0.70832   0.09381   0.00000  Uiso   1.00
C253   C     0.04212   0.71908   0.05279   0.00000  Uiso   1.00
H254   H     0.21415   0.64402   0.17812   0.00000  Uiso   1.00
H255   H     0.15963   0.58599   0.16333   0.00000  Uiso   1.00
H256   H     0.25209   0.66459   0.28077   0.00000  Uiso   1.00
H257   H     0.25921   0.67854   0.08989   0.00000  Uiso   1.00
H258   H     0.05431   0.52633   0.14757   0.00000  Uiso   1.00
H259   H     0.24927   0.69205   0.39519   0.00000  Uiso   1.00
H260   H     0.26429   0.72148   0.99269   0.00000  Uiso   1.00
H261   H     0.86833   0.68002   0.18287   0.00000  Uiso   1.00
H262   H     0.79483   0.62397   0.16834   0.00000  Uiso   1.00
H263   H     0.88729   0.70256   0.28578   0.00000  Uiso   1.00
H264   H     0.89442   0.71651   0.09490   0.00000  Uiso   1.00
H265   H     0.75823   0.55715   0.15164   0.00000  Uiso   1.00
H266   H     0.95319   0.72287   0.39926   0.00000  Uiso   1.00
H267   H     0.96821   0.75230   0.99676   0.00000  Uiso   1.00
O268   O     0.86416   0.50421   0.13999   0.00000  Uiso   1.00
O269   O     0.11994   0.72164   0.46484   0.00000  Uiso   1.00
O270   O     0.13965   0.76025   0.93677   0.00000  Uiso   1.00
N271   N     0.99471   0.54128   0.15051   0.00000  Uiso   1.00
N272   N     0.17698   0.69621   0.38202   0.00000  Uiso   1.00
N273   N     0.19104   0.72373   0.00573   0.00000  Uiso   1.00
N274   N     0.83539   0.55786   0.15270   0.00000  Uiso   1.00
N275   N     0.01766   0.71280   0.38421   0.00000  Uiso   1.00
N276   N     0.03172   0.74031   0.00792   0.00000  Uiso   1.00
C277   C     0.86508   0.84773   0.67920   0.00000  Uiso   1.00
C278   C     0.94265   0.87427   0.67182   0.00000  Uiso   1.00
C279   C     0.91913   0.90582   0.66440   0.00000  Uiso   1.00
C280   C     0.00108   0.92643   0.65843   0.00000  Uiso   1.00
C281   C     0.10605   0.96924   0.64679   0.00000  Uiso   1.00
C282   C     0.89242   0.83157   0.73563   0.00000  Uiso   1.00
C283   C     0.82666   0.82722   0.78186   0.00000  Uiso   1.00
C284   C     0.86633   0.81188   0.82960   0.00000  Uiso   1.00
C285   C     0.89329   0.78839   0.91701   0.00000  Uiso   1.00
C286   C     0.88855   0.82399   0.63192   0.00000  Uiso   1.00
C287   C     0.81953   0.81326   0.59096   0.00000  Uiso   1.00
C288   C     0.85593   0.79153   0.55139   0.00000  Uiso   1.00
C289   C     0.87689   0.75627   0.47777   0.00000  Uiso   1.00
C290   C     0.05244   0.82823   0.68178   0.00000  Uiso   1.00
C291   C     0.04442   0.86367   0.67322   0.00000  Uiso   1.00
C292   C     0.12642   0.88424   0.66725   0.00000  Uiso   1.00
C293   C     0.10303   0.91581   0.65983   0.00000  Uiso   1.00
C294   C     0.99419   0.82098   0.73703   0.00000  Uiso   1.00
C295   C     0.03395   0.80564   0.78471   0.00000  Uiso   1.00
C296   C     0.96827   0.80126   0.83100   0.00000  Uiso   1.00
C297   C     0.99032   0.81340   0.63332   0.00000  Uiso   1.00
C298   C     0.02683   0.79168   0.59381   0.00000  Uiso   1.00
C299   C     0.95788   0.78092   0.55279   0.00000  Uiso   1.00
H300   H     0.78585   0.85598   0.67812   0.00000  Uiso   1.00
H301   H     0.84037   0.91401   0.66333   0.00000  Uiso   1.00
H302   H     0.74791   0.83541   0.78077   0.00000  Uiso   1.00
H303   H     0.74079   0.82146   0.58989   0.00000  Uiso   1.00
H304   H     0.94569   0.97367   0.64757   0.00000  Uiso   1.00
H305   H     0.75073   0.80795   0.89519   0.00000  Uiso   1.00
H306   H     0.73571   0.77852   0.49269   0.00000  Uiso   1.00
H307   H     0.13167   0.81998   0.68287   0.00000  Uiso   1.00
H308   H     0.20517   0.87603   0.66834   0.00000  Uiso   1.00
H309   H     0.11271   0.79744   0.78578   0.00000  Uiso   1.00
H310   H     0.10558   0.78349   0.59490   0.00000  Uiso   1.00
H311   H     0.24177   0.94285   0.65164   0.00000  Uiso   1.00
H312   H     0.04681   0.77713   0.89926   0.00000  Uiso   1.00
H313   H     0.03179   0.74770   0.49676   0.00000  Uiso   1.00
O314   O     0.13584   0.99579   0.63999   0.00000  Uiso   1.00
O315   O     0.88006   0.77836   0.96484   0.00000  Uiso   1.00
O316   O     0.86035   0.73975   0.43677   0.00000  Uiso   1.00
N317   N     0.00529   0.95872   0.65051   0.00000  Uiso   1.00
N318   N     0.82302   0.80379   0.88202   0.00000  Uiso   1.00
N319   N     0.80896   0.77627   0.50573   0.00000  Uiso   1.00
N320   N     0.16461   0.94214   0.65270   0.00000  Uiso   1.00
N321   N     0.98234   0.78720   0.88421   0.00000  Uiso   1.00
N322   N     0.96828   0.75969   0.50792   0.00000  Uiso   1.00
C323   C     0.86508   0.34773   0.17920   0.00000  Uiso   1.00
C324   C     0.94265   0.37427   0.17182   0.00000  Uiso   1.00
C325   C     0.91913   0.40582   0.16440   0.00000  Uiso   1.00
C326   C     0.00108   0.42643   0.15843   0.00000  Uiso   1.00
C327   C     0.10605   0.46924   0.14679   0.00000  Uiso   1.00
C328   C     0.89242   0.33157   0.23563   0.00000  Uiso   1.00
C329   C     0.82666   0.32722   0.28186   0.00000  Uiso   1.00
C330   C     0.86633   0.31188   0.32960   0.00000  Uiso   1.00
C331   C     0.89329   0.28839   0.41701   0.00000  Uiso   1.00
C332   C     0.88855   0.32399   0.13192   0.00000  Uiso   1.00
C333   C     0.81953   0.31326   0.09096   0.00000  Uiso   1.00
C334   C     0.85593   0.29153   0.05139   0.00000  Uiso   1.00
C335   C     0.87689   0.25627   0.97777   0.00000  Uiso   1.00
C336   C     0.05244   0.32823   0.18178   0.00000  Uiso   1.00
C337   C     0.04442   0.36367   0.17322   0.00000  Uiso   1.00
C338   C     0.12642   0.38424   0.16725   0.00000  Uiso   1.00
C339   C     0.10303   0.41581   0.15983   0.00000  Uiso   1.00
C340   C     0.99419   0.32098   0.23703   0.00000  Uiso   1.00
C341   C     0.03395   0.30564   0.28471   0.00000  Uiso   1.00
C342   C     0.96827   0.30126   0.33100   0.00000  Uiso   1.00
C343   C     0.99032   0.31340   0.13332   0.00000  Uiso   1.00
C344   C     0.02683   0.29168   0.09381   0.00000  Uiso   1.00
C345   C     0.95788   0.28092   0.05279   0.00000  Uiso   1.00
H346   H     0.78585   0.35598   0.17812   0.00000  Uiso   1.00
H347   H     0.84037   0.41401   0.16333   0.00000  Uiso   1.00
H348   H     0.74791   0.33541   0.28077   0.00000  Uiso   1.00
H349   H     0.74079   0.32146   0.08989   0.00000  Uiso   1.00
H350   H     0.94569   0.47367   0.14757   0.00000  Uiso   1.00
H351   H     0.75073   0.30795   0.39519   0.00000  Uiso   1.00
H352   H     0.73571   0.27852   0.99269   0.00000  Uiso   1.00
H353   H     0.13167   0.31998   0.18287   0.00000  Uiso   1.00
H354   H     0.20517   0.37603   0.16834   0.00000  Uiso   1.00
H355   H     0.11271   0.29744   0.28578   0.00000  Uiso   1.00
H356   H     0.10558   0.28349   0.09490   0.00000  Uiso   1.00
H357   H     0.24177   0.44285   0.15164   0.00000  Uiso   1.00
H358   H     0.04681   0.27713   0.39926   0.00000  Uiso   1.00
H359   H     0.03179   0.24770   0.99676   0.00000  Uiso   1.00
O360   O     0.13584   0.49579   0.13999   0.00000  Uiso   1.00
O361   O     0.88006   0.27836   0.46484   0.00000  Uiso   1.00
O362   O     0.86035   0.23975   0.93677   0.00000  Uiso   1.00
N363   N     0.00529   0.45872   0.15051   0.00000  Uiso   1.00
N364   N     0.82302   0.30379   0.38202   0.00000  Uiso   1.00
N365   N     0.80896   0.27627   0.00573   0.00000  Uiso   1.00
N366   N     0.16461   0.44214   0.15270   0.00000  Uiso   1.00
N367   N     0.98234   0.28720   0.38421   0.00000  Uiso   1.00
N368   N     0.96828   0.25969   0.00792   0.00000  Uiso   1.00
