data_job_06538
_audit_creation_date              2018-12-19
_audit_creation_method            'Materials Studio'
_symmetry_space_group_name_H-M    'P1'
_symmetry_Int_Tables_number       1
_symmetry_cell_setting            triclinic
loop_
_symmetry_equiv_pos_as_xyz
  x,y,z
_cell_length_a                    19.8777
_cell_length_b                    20.8241
_cell_length_c                    18.9628
_cell_angle_alpha                 78.3692
_cell_angle_beta                  73.8713
_cell_angle_gamma                 66.3656
loop_
_atom_site_label
_atom_site_type_symbol
_atom_site_fract_x
_atom_site_fract_y
_atom_site_fract_z
_atom_site_U_iso_or_equiv
_atom_site_adp_type
_atom_site_occupancy
C1     C     0.28029   0.91770   0.25441   0.00000  Uiso   1.00
C2     C     0.36198   0.89543   0.25944   0.00000  Uiso   1.00
C3     C     0.41187   0.82657   0.26874   0.00000  Uiso   1.00
C4     C     0.48416   0.81722   0.27204   0.00000  Uiso   1.00
C5     C     0.60772   0.77389   0.28077   0.00000  Uiso   1.00
C6     C     0.23320   0.96616   0.31496   0.00000  Uiso   1.00
C7     C     0.17480   0.95676   0.37093   0.00000  Uiso   1.00
C8     C     0.13868   0.00696   0.42095   0.00000  Uiso   1.00
C9     C     0.06226   0.07347   0.51584   0.00000  Uiso   1.00
C10    C     0.27288   0.96406   0.18152   0.00000  Uiso   1.00
C11    C     0.24783   0.95291   0.12529   0.00000  Uiso   1.00
C12    C     0.24510   0.00135   0.06298   0.00000  Uiso   1.00
C13    C     0.23029   0.06459   0.95068   0.00000  Uiso   1.00
C14    C     0.31997   0.02356   0.24372   0.00000  Uiso   1.00
C15    C     0.38353   0.95293   0.25364   0.00000  Uiso   1.00
C16    C     0.45577   0.94368   0.25692   0.00000  Uiso   1.00
C17    C     0.50576   0.87482   0.26622   0.00000  Uiso   1.00
C18    C     0.25475   0.02366   0.30915   0.00000  Uiso   1.00
C19    C     0.21871   0.07388   0.35911   0.00000  Uiso   1.00
C20    C     0.16027   0.06456   0.41514   0.00000  Uiso   1.00
C21    C     0.29444   0.02155   0.17571   0.00000  Uiso   1.00
C22    C     0.29174   0.07002   0.11347   0.00000  Uiso   1.00
C23    C     0.26669   0.05895   0.05717   0.00000  Uiso   1.00
H24    H     0.26351   0.87294   0.25893   0.00000  Uiso   1.00
H25    H     0.39516   0.78209   0.27324   0.00000  Uiso   1.00
H26    H     0.15813   0.91227   0.37540   0.00000  Uiso   1.00
H27    H     0.23115   0.90841   0.12980   0.00000  Uiso   1.00
H28    H     0.55063   0.70671   0.28657   0.00000  Uiso   1.00
H29    H     0.05081   0.98122   0.50197   0.00000  Uiso   1.00
H30    H     0.20479   0.97308   0.98408   0.00000  Uiso   1.00
H31    H     0.33675   0.06833   0.23921   0.00000  Uiso   1.00
H32    H     0.47243   0.98819   0.25243   0.00000  Uiso   1.00
H33    H     0.23540   0.11837   0.35460   0.00000  Uiso   1.00
H34    H     0.30842   0.11451   0.10900   0.00000  Uiso   1.00
H35    H     0.61334   0.87399   0.26968   0.00000  Uiso   1.00
H36    H     0.11352   0.14850   0.48509   0.00000  Uiso   1.00
H37    H     0.26750   0.14036   0.96720   0.00000  Uiso   1.00
O38    O     0.66991   0.73411   0.28720   0.00000  Uiso   1.00
O39    O     0.01417   0.09426   0.56979   0.00000  Uiso   1.00
O40    O     0.21618   0.08358   0.89034   0.00000  Uiso   1.00
N41    N     0.54677   0.75708   0.28076   0.00000  Uiso   1.00
N42    N     0.07948   0.01372   0.48216   0.00000  Uiso   1.00
N43    N     0.22342   0.00612   0.99799   0.00000  Uiso   1.00
N44    N     0.58052   0.84709   0.27168   0.00000  Uiso   1.00
N45    N     0.11323   0.10374   0.47307   0.00000  Uiso   1.00
N46    N     0.25716   0.09614   0.98890   0.00000  Uiso   1.00
C47    C     0.24589   0.33832   0.95067   0.00000  Uiso   1.00
C48    C     0.20441   0.41367   0.97129   0.00000  Uiso   1.00
C49    C     0.21745   0.47276   0.93134   0.00000  Uiso   1.00
C50    C     0.17355   0.53699   0.95944   0.00000  Uiso   1.00
C51    C     0.11752   0.65323   0.98148   0.00000  Uiso   1.00
C52    C     0.27849   0.29514   0.01670   0.00000  Uiso   1.00
C53    C     0.35381   0.25456   0.01492   0.00000  Uiso   1.00
C54    C     0.37227   0.21901   0.08125   0.00000  Uiso   1.00
C55    C     0.43124   0.15119   0.17377   0.00000  Uiso   1.00
C56    C     0.18547   0.31233   0.94693   0.00000  Uiso   1.00
C57    C     0.18259   0.28618   0.88649   0.00000  Uiso   1.00
C58    C     0.12274   0.26508   0.89408   0.00000  Uiso   1.00
C59    C     0.03728   0.22394   0.87827   0.00000  Uiso   1.00
C60    C     0.14473   0.34732   0.07162   0.00000  Uiso   1.00
C61    C     0.14946   0.41856   0.03698   0.00000  Uiso   1.00
C62    C     0.10553   0.48271   0.06515   0.00000  Uiso   1.00
C63    C     0.11850   0.54188   0.02525   0.00000  Uiso   1.00
C64    C     0.22354   0.30003   0.08239   0.00000  Uiso   1.00
C65    C     0.24189   0.26452   0.14873   0.00000  Uiso   1.00
C66    C     0.31722   0.22390   0.14706   0.00000  Uiso   1.00
C67    C     0.13052   0.31721   0.01262   0.00000  Uiso   1.00
C68    C     0.07066   0.29614   0.02030   0.00000  Uiso   1.00
C69    C     0.06769   0.26997   0.95989   0.00000  Uiso   1.00
H70    H     0.28867   0.33452   0.89953   0.00000  Uiso   1.00
H71    H     0.25998   0.46895   0.88051   0.00000  Uiso   1.00
H72    H     0.39632   0.25079   0.96407   0.00000  Uiso   1.00
H73    H     0.22512   0.28240   0.83566   0.00000  Uiso   1.00
H74    H     0.20396   0.62015   0.88840   0.00000  Uiso   1.00
H75    H     0.49143   0.16012   0.06460   0.00000  Uiso   1.00
H76    H     0.13043   0.22679   0.79382   0.00000  Uiso   1.00
H77    H     0.10195   0.35113   0.12277   0.00000  Uiso   1.00
H78    H     0.06301   0.48648   0.11599   0.00000  Uiso   1.00
H79    H     0.19935   0.26831   0.19956   0.00000  Uiso   1.00
H80    H     0.02815   0.29993   0.07115   0.00000  Uiso   1.00
H81    H     0.04409   0.63438   0.07953   0.00000  Uiso   1.00
H82    H     0.33157   0.17434   0.25573   0.00000  Uiso   1.00
H83    H     0.97056   0.24101   0.98495   0.00000  Uiso   1.00
O84    O     0.10180   0.71600   0.97549   0.00000  Uiso   1.00
O85    O     0.47895   0.11244   0.20665   0.00000  Uiso   1.00
O86    O     0.00532   0.19992   0.85140   0.00000  Uiso   1.00
N87    N     0.17167   0.60493   0.93430   0.00000  Uiso   1.00
N88    N     0.44044   0.17483   0.09904   0.00000  Uiso   1.00
N89    N     0.10294   0.23714   0.84589   0.00000  Uiso   1.00
N90    N     0.08565   0.61258   0.03715   0.00000  Uiso   1.00
N91    N     0.35442   0.18248   0.20189   0.00000  Uiso   1.00
N92    N     0.01692   0.24480   0.94874   0.00000  Uiso   1.00
C93    C     0.85745   0.32555   0.29247   0.00000  Uiso   1.00
C94    C     0.84307   0.29775   0.37384   0.00000  Uiso   1.00
C95    C     0.77329   0.30305   0.41904   0.00000  Uiso   1.00
C96    C     0.77200   0.27429   0.49191   0.00000  Uiso   1.00
C97    C     0.73961   0.23615   0.61422   0.00000  Uiso   1.00
C98    C     0.89908   0.37489   0.28559   0.00000  Uiso   1.00
C99    C     0.87639   0.44505   0.25658   0.00000  Uiso   1.00
C100   C     0.92226   0.48121   0.25515   0.00000  Uiso   1.00
C101   C     0.97686   0.56282   0.24040   0.00000  Uiso   1.00
C102   C     0.91366   0.26254   0.25157   0.00000  Uiso   1.00
C103   C     0.90324   0.23824   0.19394   0.00000  Uiso   1.00
C104   C     0.96140   0.17982   0.16384   0.00000  Uiso   1.00
C105   C     0.03864   0.08699   0.09627   0.00000  Uiso   1.00
C106   C     0.97927   0.26502   0.34150   0.00000  Uiso   1.00
C107   C     0.90924   0.26487   0.40047   0.00000  Uiso   1.00
C108   C     0.90806   0.23608   0.47329   0.00000  Uiso   1.00
C109   C     0.83828   0.24134   0.51859   0.00000  Uiso   1.00
C110   C     0.96525   0.34201   0.31222   0.00000  Uiso   1.00
C111   C     0.01117   0.37808   0.31083   0.00000  Uiso   1.00
C112   C     0.98855   0.44827   0.28183   0.00000  Uiso   1.00
C113   C     0.97983   0.22966   0.27820   0.00000  Uiso   1.00
C114   C     0.03802   0.17127   0.24818   0.00000  Uiso   1.00
C115   C     0.02769   0.14688   0.19052   0.00000  Uiso   1.00
H116   H     0.80593   0.35115   0.27174   0.00000  Uiso   1.00
H117   H     0.72209   0.32851   0.39842   0.00000  Uiso   1.00
H118   H     0.82519   0.47048   0.23597   0.00000  Uiso   1.00
H119   H     0.85203   0.26370   0.17334   0.00000  Uiso   1.00
H120   H     0.65831   0.28893   0.55062   0.00000  Uiso   1.00
H121   H     0.87571   0.58827   0.20807   0.00000  Uiso   1.00
H122   H     0.93232   0.15224   0.07600   0.00000  Uiso   1.00
H123   H     0.03078   0.23942   0.36223   0.00000  Uiso   1.00
H124   H     0.95927   0.21064   0.49388   0.00000  Uiso   1.00
H125   H     0.06237   0.35261   0.33143   0.00000  Uiso   1.00
H126   H     0.08922   0.14583   0.26880   0.00000  Uiso   1.00
H127   H     0.85082   0.19327   0.62810   0.00000  Uiso   1.00
H128   H     0.06822   0.49261   0.28555   0.00000  Uiso   1.00
H129   H     0.12483   0.05658   0.15348   0.00000  Uiso   1.00
O130   O     0.70347   0.22421   0.67433   0.00000  Uiso   1.00
O131   O     0.98869   0.61693   0.22492   0.00000  Uiso   1.00
O132   O     0.06296   0.04486   0.05165   0.00000  Uiso   1.00
N133   N     0.71343   0.27035   0.55078   0.00000  Uiso   1.00
N134   N     0.91668   0.55022   0.23053   0.00000  Uiso   1.00
N135   N     0.96962   0.14258   0.10704   0.00000  Uiso   1.00
N136   N     0.81702   0.21888   0.59247   0.00000  Uiso   1.00
N137   N     0.02026   0.49875   0.27223   0.00000  Uiso   1.00
N138   N     0.07320   0.09110   0.14874   0.00000  Uiso   1.00
C139   C     0.82984   0.74235   0.41994   0.00000  Uiso   1.00
C140   C     0.90428   0.70784   0.44476   0.00000  Uiso   1.00
C141   C     0.97535   0.69340   0.39886   0.00000  Uiso   1.00
C142   C     0.03643   0.66163   0.43227   0.00000  Uiso   1.00
C143   C     0.15349   0.61062   0.45918   0.00000  Uiso   1.00
C144   C     0.78445   0.80688   0.46229   0.00000  Uiso   1.00
C145   C     0.75477   0.87571   0.43112   0.00000  Uiso   1.00
C146   C     0.71496   0.92731   0.47929   0.00000  Uiso   1.00
C147   C     0.64594   0.03006   0.53341   0.00000  Uiso   1.00
C148   C     0.78851   0.69126   0.44937   0.00000  Uiso   1.00
C149   C     0.76222   0.66288   0.40735   0.00000  Uiso   1.00
C150   C     0.72581   0.61714   0.44466   0.00000  Uiso   1.00
C151   C     0.66310   0.54036   0.47872   0.00000  Uiso   1.00
C152   C     0.81191   0.71159   0.56092   0.00000  Uiso   1.00
C153   C     0.89454   0.69114   0.52134   0.00000  Uiso   1.00
C154   C     0.95552   0.65937   0.55484   0.00000  Uiso   1.00
C155   C     0.02668   0.64489   0.50899   0.00000  Uiso   1.00
C156   C     0.77471   0.79018   0.53886   0.00000  Uiso   1.00
C157   C     0.73494   0.84169   0.58710   0.00000  Uiso   1.00
C158   C     0.70521   0.91058   0.55601   0.00000  Uiso   1.00
C159   C     0.77877   0.67455   0.52595   0.00000  Uiso   1.00
C160   C     0.74239   0.62885   0.56333   0.00000  Uiso   1.00
C161   C     0.71606   0.60041   0.52137   0.00000  Uiso   1.00
H162   H     0.83742   0.75536   0.36032   0.00000  Uiso   1.00
H163   H     0.98287   0.70634   0.33960   0.00000  Uiso   1.00
H164   H     0.76231   0.88862   0.37186   0.00000  Uiso   1.00
H165   H     0.76976   0.67582   0.34809   0.00000  Uiso   1.00
H166   H     0.13983   0.64466   0.35040   0.00000  Uiso   1.00
H167   H     0.67475   0.02901   0.41841   0.00000  Uiso   1.00
H168   H     0.69047   0.58027   0.36830   0.00000  Uiso   1.00
H169   H     0.80433   0.69859   0.62054   0.00000  Uiso   1.00
H170   H     0.94797   0.64645   0.61410   0.00000  Uiso   1.00
H171   H     0.72741   0.82874   0.64635   0.00000  Uiso   1.00
H172   H     0.73487   0.61594   0.62259   0.00000  Uiso   1.00
H173   H     0.11151   0.59605   0.57319   0.00000  Uiso   1.00
H174   H     0.64642   0.98040   0.64121   0.00000  Uiso   1.00
H175   H     0.66214   0.53166   0.59109   0.00000  Uiso   1.00
O176   O     0.22075   0.58710   0.45286   0.00000  Uiso   1.00
O177   O     0.61057   0.09135   0.54210   0.00000  Uiso   1.00
O178   O     0.63120   0.50262   0.47635   0.00000  Uiso   1.00
N179   N     0.11345   0.64036   0.40371   0.00000  Uiso   1.00
N180   N     0.67864   0.99971   0.46731   0.00000  Uiso   1.00
N181   N     0.69332   0.58019   0.42046   0.00000  Uiso   1.00
N182   N     0.09821   0.61420   0.52360   0.00000  Uiso   1.00
N183   N     0.66340   0.97355   0.58719   0.00000  Uiso   1.00
N184   N     0.67808   0.55403   0.54034   0.00000  Uiso   1.00
C185   C     0.75245   0.37918   0.69799   0.00000  Uiso   1.00
C186   C     0.77452   0.35063   0.77225   0.00000  Uiso   1.00
C187   C     0.78947   0.28179   0.80467   0.00000  Uiso   1.00
C188   C     0.80874   0.26615   0.87281   0.00000  Uiso   1.00
C189   C     0.84241   0.21398   0.98286   0.00000  Uiso   1.00
C190   C     0.81020   0.41062   0.65188   0.00000  Uiso   1.00
C191   C     0.85515   0.39223   0.58309   0.00000  Uiso   1.00
C192   C     0.90445   0.42711   0.54989   0.00000  Uiso   1.00
C193   C     0.99348   0.46813   0.47305   0.00000  Uiso   1.00
C194   C     0.67787   0.44115   0.71326   0.00000  Uiso   1.00
C195   C     0.61154   0.44844   0.69606   0.00000  Uiso   1.00
C196   C     0.54943   0.50903   0.71453   0.00000  Uiso   1.00
C197   C     0.43299   0.59744   0.73299   0.00000  Uiso   1.00
C198   C     0.76008   0.47383   0.76135   0.00000  Uiso   1.00
C199   C     0.77867   0.40204   0.80666   0.00000  Uiso   1.00
C200   C     0.79791   0.38650   0.87478   0.00000  Uiso   1.00
C201   C     0.81289   0.31765   0.90729   0.00000  Uiso   1.00
C202   C     0.81435   0.46203   0.68629   0.00000  Uiso   1.00
C203   C     0.86359   0.49695   0.65319   0.00000  Uiso   1.00
C204   C     0.90860   0.47861   0.58437   0.00000  Uiso   1.00
C205   C     0.68201   0.49256   0.74768   0.00000  Uiso   1.00
C206   C     0.61999   0.55315   0.76617   0.00000  Uiso   1.00
C207   C     0.55358   0.56053   0.74901   0.00000  Uiso   1.00
H208   H     0.74922   0.33916   0.67119   0.00000  Uiso   1.00
H209   H     0.78626   0.24201   0.77801   0.00000  Uiso   1.00
H210   H     0.85192   0.35245   0.55646   0.00000  Uiso   1.00
H211   H     0.60835   0.40864   0.66942   0.00000  Uiso   1.00
H212   H     0.82917   0.15698   0.91161   0.00000  Uiso   1.00
H213   H     0.96761   0.38986   0.44445   0.00000  Uiso   1.00
H214   H     0.45400   0.50835   0.68265   0.00000  Uiso   1.00
H215   H     0.76331   0.51386   0.78815   0.00000  Uiso   1.00
H216   H     0.80112   0.42630   0.90140   0.00000  Uiso   1.00
H217   H     0.86678   0.53673   0.67984   0.00000  Uiso   1.00
H218   H     0.62322   0.59292   0.79281   0.00000  Uiso   1.00
H219   H     0.84124   0.30655   0.01175   0.00000  Uiso   1.00
H220   H     0.97967   0.53943   0.54459   0.00000  Uiso   1.00
H221   H     0.46607   0.65792   0.78279   0.00000  Uiso   1.00
O222   O     0.85985   0.17101   0.03405   0.00000  Uiso   1.00
O223   O     0.04146   0.47654   0.42115   0.00000  Uiso   1.00
O224   O     0.36762   0.63200   0.73367   0.00000  Uiso   1.00
N225   N     0.82681   0.20420   0.91964   0.00000  Uiso   1.00
N226   N     0.95625   0.42192   0.48288   0.00000  Uiso   1.00
N227   N     0.47607   0.53271   0.70556   0.00000  Uiso   1.00
N228   N     0.83330   0.28468   0.97353   0.00000  Uiso   1.00
N229   N     0.96274   0.50240   0.53677   0.00000  Uiso   1.00
N230   N     0.48256   0.61319   0.75944   0.00000  Uiso   1.00
C231   C     0.42429   0.81063   0.77974   0.00000  Uiso   1.00
C232   C     0.42871   0.88350   0.76924   0.00000  Uiso   1.00
C233   C     0.36972   0.94484   0.79146   0.00000  Uiso   1.00
C234   C     0.38520   0.00618   0.77682   0.00000  Uiso   1.00
C235   C     0.38113   0.11933   0.76596   0.00000  Uiso   1.00
C236   C     0.48442   0.76257   0.82209   0.00000  Uiso   1.00
C237   C     0.47227   0.72223   0.88874   0.00000  Uiso   1.00
C238   C     0.53466   0.68175   0.91857   0.00000  Uiso   1.00
C239   C     0.61710   0.60712   0.98974   0.00000  Uiso   1.00
C240   C     0.45047   0.78570   0.70300   0.00000  Uiso   1.00
C241   C     0.40978   0.76480   0.66952   0.00000  Uiso   1.00
C242   C     0.44358   0.74378   0.59909   0.00000  Uiso   1.00
C243   C     0.47330   0.70507   0.48535   0.00000  Uiso   1.00
C244   C     0.55669   0.81046   0.71422   0.00000  Uiso   1.00
C245   C     0.50062   0.88341   0.73366   0.00000  Uiso   1.00
C246   C     0.51620   0.94466   0.71897   0.00000  Uiso   1.00
C247   C     0.45724   0.00609   0.74116   0.00000  Uiso   1.00
C248   C     0.55634   0.76248   0.78651   0.00000  Uiso   1.00
C249   C     0.61876   0.72205   0.81625   0.00000  Uiso   1.00
C250   C     0.60670   0.68166   0.88292   0.00000  Uiso   1.00
C251   C     0.52238   0.78561   0.66741   0.00000  Uiso   1.00
C252   C     0.55626   0.76462   0.59703   0.00000  Uiso   1.00
C253   C     0.51563   0.74369   0.56344   0.00000  Uiso   1.00
H254   H     0.36830   0.81069   0.80745   0.00000  Uiso   1.00
H255   H     0.31407   0.94489   0.81901   0.00000  Uiso   1.00
H256   H     0.41662   0.72231   0.91626   0.00000  Uiso   1.00
H257   H     0.35413   0.76487   0.69707   0.00000  Uiso   1.00
H258   H     0.28567   0.09363   0.81615   0.00000  Uiso   1.00
H259   H     0.50189   0.62428   0.02120   0.00000  Uiso   1.00
H260   H     0.37012   0.71403   0.55900   0.00000  Uiso   1.00
H261   H     0.61268   0.81039   0.68652   0.00000  Uiso   1.00
H262   H     0.57185   0.94458   0.69143   0.00000  Uiso   1.00
H263   H     0.67440   0.72199   0.78869   0.00000  Uiso   1.00
H264   H     0.61191   0.76456   0.56950   0.00000  Uiso   1.00
H265   H     0.49489   0.09337   0.71260   0.00000  Uiso   1.00
H266   H     0.71112   0.62402   0.91766   0.00000  Uiso   1.00
H267   H     0.57935   0.71378   0.45546   0.00000  Uiso   1.00
O268   O     0.35902   0.18177   0.76981   0.00000  Uiso   1.00
O269   O     0.64270   0.56599   0.03883   0.00000  Uiso   1.00
O270   O     0.46982   0.68375   0.43244   0.00000  Uiso   1.00
N271   N     0.34051   0.07516   0.79109   0.00000  Uiso   1.00
N272   N     0.54266   0.63635   0.98281   0.00000  Uiso   1.00
N273   N     0.41948   0.72025   0.55070   0.00000  Uiso   1.00
N274   N     0.45309   0.07502   0.73537   0.00000  Uiso   1.00
N275   N     0.65524   0.63621   0.92709   0.00000  Uiso   1.00
N276   N     0.53206   0.72011   0.49499   0.00000  Uiso   1.00
C277   C     0.71097   0.12752   0.85695   0.00000  Uiso   1.00
C278   C     0.63356   0.17255   0.84100   0.00000  Uiso   1.00
C279   C     0.60118   0.24552   0.83724   0.00000  Uiso   1.00
C280   C     0.52989   0.27685   0.82199   0.00000  Uiso   1.00
C281   C     0.41543   0.35289   0.79887   0.00000  Uiso   1.00
C282   C     0.75410   0.08350   0.79212   0.00000  Uiso   1.00
C283   C     0.82307   0.08158   0.74728   0.00000  Uiso   1.00
C284   C     0.85325   0.03794   0.69089   0.00000  Uiso   1.00
C285   C     0.92594   0.97568   0.59192   0.00000  Uiso   1.00
C286   C     0.69795   0.07572   0.92373   0.00000  Uiso   1.00
C287   C     0.71971   0.06726   0.98955   0.00000  Uiso   1.00
C288   C     0.70263   0.01706   0.04396   0.00000  Uiso   1.00
C289   C     0.68813   0.94274   0.14934   0.00000  Uiso   1.00
C290   C     0.64195   0.05340   0.83654   0.00000  Uiso   1.00
C291   C     0.59608   0.13229   0.82991   0.00000  Uiso   1.00
C292   C     0.52482   0.16351   0.81466   0.00000  Uiso   1.00
C293   C     0.49234   0.23652   0.81089   0.00000  Uiso   1.00
C294   C     0.71662   0.04324   0.78103   0.00000  Uiso   1.00
C295   C     0.74671   0.99958   0.72470   0.00000  Uiso   1.00
C296   C     0.81570   0.99760   0.67978   0.00000  Uiso   1.00
C297   C     0.66046   0.03546   0.91265   0.00000  Uiso   1.00
C298   C     0.64335   0.98526   0.96697   0.00000  Uiso   1.00
C299   C     0.66508   0.97672   0.03285   0.00000  Uiso   1.00
H300   H     0.74015   0.15886   0.86558   0.00000  Uiso   1.00
H301   H     0.63021   0.27666   0.84582   0.00000  Uiso   1.00
H302   H     0.85206   0.11274   0.75588   0.00000  Uiso   1.00
H303   H     0.74872   0.09842   0.99811   0.00000  Uiso   1.00
H304   H     0.49180   0.38950   0.81900   0.00000  Uiso   1.00
H305   H     0.95960   0.04386   0.62937   0.00000  Uiso   1.00
H306   H     0.74168   0.01367   0.14016   0.00000  Uiso   1.00
H307   H     0.61277   0.02205   0.82791   0.00000  Uiso   1.00
H308   H     0.49583   0.13234   0.80608   0.00000  Uiso   1.00
H309   H     0.71769   0.96843   0.71614   0.00000  Uiso   1.00
H310   H     0.61434   0.95411   0.95837   0.00000  Uiso   1.00
H311   H     0.38273   0.27237   0.78674   0.00000  Uiso   1.00
H312   H     0.85054   0.92672   0.59712   0.00000  Uiso   1.00
H313   H     0.63261   0.89654   0.10791   0.00000  Uiso   1.00
O314   O     0.36265   0.40596   0.78917   0.00000  Uiso   1.00
O315   O     0.97639   0.95248   0.54039   0.00000  Uiso   1.00
O316   O     0.69048   0.91287   0.21054   0.00000  Uiso   1.00
N317   N     0.48217   0.34680   0.81441   0.00000  Uiso   1.00
N318   N     0.91953   0.02365   0.63712   0.00000  Uiso   1.00
N319   N     0.71581   0.99541   0.11465   0.00000  Uiso   1.00
N320   N     0.42348   0.28377   0.79706   0.00000  Uiso   1.00
N321   N     0.86085   0.96062   0.61976   0.00000  Uiso   1.00
N322   N     0.65713   0.93239   0.09730   0.00000  Uiso   1.00
C323   C     0.73229   0.71552   0.10480   0.00000  Uiso   1.00
C324   C     0.77017   0.64268   0.07727   0.00000  Uiso   1.00
C325   C     0.76858   0.58005   0.11871   0.00000  Uiso   1.00
C326   C     0.80673   0.51899   0.08342   0.00000  Uiso   1.00
C327   C     0.85969   0.40564   0.05193   0.00000  Uiso   1.00
C328   C     0.68067   0.76104   0.05289   0.00000  Uiso   1.00
C329   C     0.60382   0.79792   0.07384   0.00000  Uiso   1.00
C330   C     0.56663   0.83650   0.01803   0.00000  Uiso   1.00
C331   C     0.48063   0.90696   0.94870   0.00000  Uiso   1.00
C332   C     0.79440   0.74487   0.09079   0.00000  Uiso   1.00
C333   C     0.81317   0.76818   0.14359   0.00000  Uiso   1.00
C334   C     0.87172   0.79316   0.11968   0.00000  Uiso   1.00
C335   C     0.96231   0.83850   0.10918   0.00000  Uiso   1.00
C336   C     0.80287   0.71847   0.96844   0.00000  Uiso   1.00
C337   C     0.80851   0.64429   0.00320   0.00000  Uiso   1.00
C338   C     0.84667   0.58330   0.96785   0.00000  Uiso   1.00
C339   C     0.84514   0.52059   0.00923   0.00000  Uiso   1.00
C340   C     0.71900   0.76264   0.97883   0.00000  Uiso   1.00
C341   C     0.68191   0.80118   0.92298   0.00000  Uiso   1.00
C342   C     0.60503   0.83811   0.94383   0.00000  Uiso   1.00
C343   C     0.83274   0.74647   0.01672   0.00000  Uiso   1.00
C344   C     0.89126   0.77143   0.99272   0.00000  Uiso   1.00
C345   C     0.91012   0.79476   0.04548   0.00000  Uiso   1.00
H346   H     0.70244   0.71428   0.16246   0.00000  Uiso   1.00
H347   H     0.73890   0.57883   0.17602   0.00000  Uiso   1.00
H348   H     0.57417   0.79668   0.13116   0.00000  Uiso   1.00
H349   H     0.78349   0.76693   0.20090   0.00000  Uiso   1.00
H350   H     0.79621   0.42937   0.15839   0.00000  Uiso   1.00
H351   H     0.44887   0.88873   0.06380   0.00000  Uiso   1.00
H352   H     0.89026   0.82600   0.21085   0.00000  Uiso   1.00
H353   H     0.83272   0.71972   0.91078   0.00000  Uiso   1.00
H354   H     0.87633   0.58456   0.91053   0.00000  Uiso   1.00
H355   H     0.71160   0.80241   0.86567   0.00000  Uiso   1.00
H356   H     0.92092   0.77266   0.93540   0.00000  Uiso   1.00
H357   H     0.90775   0.43402   0.94291   0.00000  Uiso   1.00
H358   H     0.56041   0.89339   0.84832   0.00000  Uiso   1.00
H359   H     0.00180   0.83065   0.99537   0.00000  Uiso   1.00
O360   O     0.87829   0.34268   0.05502   0.00000  Uiso   1.00
O361   O     0.42261   0.94537   0.93092   0.00000  Uiso   1.00
O362   O     0.00170   0.86306   0.12385   0.00000  Uiso   1.00
N363   N     0.81649   0.44901   0.10772   0.00000  Uiso   1.00
N364   N     0.49175   0.87848   0.01928   0.00000  Uiso   1.00
N365   N     0.90439   0.81985   0.15676   0.00000  Uiso   1.00
N366   N     0.87651   0.45151   0.99177   0.00000  Uiso   1.00
N367   N     0.55176   0.88098   0.90333   0.00000  Uiso   1.00
N368   N     0.96441   0.82235   0.04081   0.00000  Uiso   1.00
C369   C     0.11685   0.70655   0.72940   0.00000  Uiso   1.00
C370   C     0.12333   0.72723   0.64663   0.00000  Uiso   1.00
C371   C     0.18977   0.71977   0.59416   0.00000  Uiso   1.00
C372   C     0.18378   0.74182   0.52126   0.00000  Uiso   1.00
C373   C     0.20448   0.76956   0.39572   0.00000  Uiso   1.00
C374   C     0.07528   0.65545   0.75044   0.00000  Uiso   1.00
C375   C     0.10132   0.58763   0.78526   0.00000  Uiso   1.00
C376   C     0.05488   0.54926   0.79976   0.00000  Uiso   1.00
C377   C     0.00096   0.46558   0.83543   0.00000  Uiso   1.00
C378   C     0.06370   0.77291   0.76635   0.00000  Uiso   1.00
C379   C     0.08000   0.80385   0.81458   0.00000  Uiso   1.00
C380   C     0.02381   0.86437   0.84249   0.00000  Uiso   1.00
C381   C     0.95191   0.96307   0.90287   0.00000  Uiso   1.00
C382   C     0.98808   0.75899   0.69323   0.00000  Uiso   1.00
C383   C     0.05338   0.75571   0.62698   0.00000  Uiso   1.00
C384   C     0.04729   0.77779   0.55414   0.00000  Uiso   1.00
C385   C     0.11371   0.77036   0.50158   0.00000  Uiso   1.00
C386   C     0.00534   0.68393   0.73079   0.00000  Uiso   1.00
C387   C     0.95885   0.64565   0.74524   0.00000  Uiso   1.00
C388   C     0.98481   0.57780   0.78008   0.00000  Uiso   1.00
C389   C     0.99376   0.80140   0.74670   0.00000  Uiso   1.00
C390   C     0.93753   0.86188   0.77455   0.00000  Uiso   1.00
C391   C     0.95374   0.89291   0.82281   0.00000  Uiso   1.00
H392   H     0.17131   0.68437   0.74470   0.00000  Uiso   1.00
H393   H     0.24389   0.69771   0.60939   0.00000  Uiso   1.00
H394   H     0.15545   0.56560   0.80047   0.00000  Uiso   1.00
H395   H     0.13413   0.78179   0.82977   0.00000  Uiso   1.00
H396   H     0.29351   0.72504   0.45071   0.00000  Uiso   1.00
H397   H     0.10703   0.44649   0.85362   0.00000  Uiso   1.00
H398   H     0.06208   0.90237   0.91542   0.00000  Uiso   1.00
H399   H     0.93362   0.78117   0.67793   0.00000  Uiso   1.00
H400   H     0.99316   0.79983   0.53896   0.00000  Uiso   1.00
H401   H     0.90472   0.66772   0.73003   0.00000  Uiso   1.00
H402   H     0.88340   0.88391   0.75934   0.00000  Uiso   1.00
H403   H     0.09001   0.80792   0.39354   0.00000  Uiso   1.00
H404   H     0.90352   0.52937   0.79646   0.00000  Uiso   1.00
H405   H     0.85857   0.98525   0.85825   0.00000  Uiso   1.00
O406   O     0.23522   0.77699   0.33190   0.00000  Uiso   1.00
O407   O     0.99055   0.41155   0.86053   0.00000  Uiso   1.00
O408   O     0.93158   0.00964   0.94160   0.00000  Uiso   1.00
N409   N     0.23745   0.74200   0.45633   0.00000  Uiso   1.00
N410   N     0.06310   0.48157   0.83302   0.00000  Uiso   1.00
N411   N     0.02107   0.90776   0.89081   0.00000  Uiso   1.00
N412   N     0.12794   0.78660   0.42556   0.00000  Uiso   1.00
N413   N     0.95360   0.52617   0.80226   0.00000  Uiso   1.00
N414   N     0.91156   0.95236   0.86005   0.00000  Uiso   1.00
C415   C     0.28279   0.21399   0.61621   0.00000  Uiso   1.00
C416   C     0.20421   0.22001   0.61454   0.00000  Uiso   1.00
C417   C     0.15743   0.19299   0.67004   0.00000  Uiso   1.00
C418   C     0.08767   0.20405   0.65796   0.00000  Uiso   1.00
C419   C     0.96903   0.20777   0.66528   0.00000  Uiso   1.00
C420   C     0.33517   0.17914   0.54761   0.00000  Uiso   1.00
C421   C     0.39851   0.11776   0.54684   0.00000  Uiso   1.00
C422   C     0.43899   0.09443   0.47841   0.00000  Uiso   1.00
C423   C     0.52371   0.03472   0.38181   0.00000  Uiso   1.00
C424   C     0.28109   0.28923   0.60415   0.00000  Uiso   1.00
C425   C     0.29897   0.32040   0.65090   0.00000  Uiso   1.00
C426   C     0.29394   0.38976   0.63006   0.00000  Uiso   1.00
C427   C     0.29468   0.50098   0.62125   0.00000  Uiso   1.00
C428   C     0.24207   0.28171   0.49607   0.00000  Uiso   1.00
C429   C     0.18210   0.25679   0.54928   0.00000  Uiso   1.00
C430   C     0.11238   0.26790   0.53712   0.00000  Uiso   1.00
C431   C     0.06551   0.24090   0.59259   0.00000  Uiso   1.00
C432   C     0.31306   0.21591   0.48236   0.00000  Uiso   1.00
C433   C     0.35346   0.19267   0.41392   0.00000  Uiso   1.00
C434   C     0.41684   0.13127   0.41304   0.00000  Uiso   1.00
C435   C     0.25897   0.32601   0.53889   0.00000  Uiso   1.00
C436   C     0.25392   0.39532   0.51798   0.00000  Uiso   1.00
C437   C     0.27178   0.42660   0.56469   0.00000  Uiso   1.00
H438   H     0.30001   0.18536   0.66701   0.00000  Uiso   1.00
H439   H     0.17457   0.16452   0.72053   0.00000  Uiso   1.00
H440   H     0.41561   0.08931   0.59734   0.00000  Uiso   1.00
H441   H     0.31608   0.29193   0.70139   0.00000  Uiso   1.00
H442   H     0.02575   0.15762   0.75107   0.00000  Uiso   1.00
H443   H     0.53402   0.99904   0.49133   0.00000  Uiso   1.00
H444   H     0.32415   0.42630   0.71073   0.00000  Uiso   1.00
H445   H     0.22485   0.31034   0.44526   0.00000  Uiso   1.00
H446   H     0.09528   0.29637   0.48662   0.00000  Uiso   1.00
H447   H     0.33633   0.22115   0.36343   0.00000  Uiso   1.00
H448   H     0.23680   0.42377   0.46748   0.00000  Uiso   1.00
H449   H     0.96140   0.26463   0.56122   0.00000  Uiso   1.00
H450   H     0.46967   0.10605   0.30147   0.00000  Uiso   1.00
H451   H     0.25980   0.53331   0.52087   0.00000  Uiso   1.00
O452   O     0.90971   0.19965   0.68734   0.00000  Uiso   1.00
O453   O     0.57654   0.99162   0.34656   0.00000  Uiso   1.00
O454   O     0.30119   0.55217   0.63441   0.00000  Uiso   1.00
N455   N     0.02838   0.18473   0.70072   0.00000  Uiso   1.00
N456   N     0.50358   0.03647   0.45788   0.00000  Uiso   1.00
N457   N     0.30738   0.43591   0.66299   0.00000  Uiso   1.00
N458   N     0.99376   0.24231   0.59857   0.00000  Uiso   1.00
N459   N     0.46895   0.09405   0.35572   0.00000  Uiso   1.00
N460   N     0.27275   0.49349   0.56083   0.00000  Uiso   1.00
C461   C     0.29010   0.61376   0.23938   0.00000  Uiso   1.00
C462   C     0.27499   0.65418   0.16533   0.00000  Uiso   1.00
C463   C     0.22045   0.72049   0.15540   0.00000  Uiso   1.00
C464   C     0.21556   0.74845   0.08325   0.00000  Uiso   1.00
C465   C     0.18478   0.81683   0.97739   0.00000  Uiso   1.00
C466   C     0.28289   0.54319   0.24134   0.00000  Uiso   1.00
C467   C     0.23499   0.51619   0.29532   0.00000  Uiso   1.00
C468   C     0.23677   0.45071   0.28716   0.00000  Uiso   1.00
C469   C     0.21829   0.34676   0.29935   0.00000  Uiso   1.00
C470   C     0.37293   0.59713   0.23577   0.00000  Uiso   1.00
C471   C     0.40075   0.61546   0.28507   0.00000  Uiso   1.00
C472   C     0.47833   0.59538   0.27222   0.00000  Uiso   1.00
C473   C     0.59966   0.57518   0.27575   0.00000  Uiso   1.00
C474   C     0.37841   0.54549   0.12891   0.00000  Uiso   1.00
C475   C     0.32296   0.61709   0.10533   0.00000  Uiso   1.00
C476   C     0.31816   0.64496   0.03317   0.00000  Uiso   1.00
C477   C     0.26362   0.71130   0.02313   0.00000  Uiso   1.00
C478   C     0.33085   0.50611   0.18134   0.00000  Uiso   1.00
C479   C     0.33270   0.44066   0.17310   0.00000  Uiso   1.00
C480   C     0.28482   0.41356   0.22705   0.00000  Uiso   1.00
C481   C     0.42090   0.56005   0.17576   0.00000  Uiso   1.00
C482   C     0.49845   0.53993   0.16284   0.00000  Uiso   1.00
C483   C     0.52639   0.55823   0.21211   0.00000  Uiso   1.00
H484   H     0.25275   0.64262   0.28610   0.00000  Uiso   1.00
H485   H     0.18333   0.74916   0.20185   0.00000  Uiso   1.00
H486   H     0.19789   0.54489   0.34176   0.00000  Uiso   1.00
H487   H     0.36361   0.64415   0.33150   0.00000  Uiso   1.00
H488   H     0.12751   0.85092   0.08198   0.00000  Uiso   1.00
H489   H     0.15821   0.42019   0.37700   0.00000  Uiso   1.00
H490   H     0.50767   0.62950   0.35537   0.00000  Uiso   1.00
H491   H     0.41575   0.51662   0.08219   0.00000  Uiso   1.00
H492   H     0.35528   0.61625   0.98675   0.00000  Uiso   1.00
H493   H     0.36983   0.41198   0.12666   0.00000  Uiso   1.00
H494   H     0.53556   0.51124   0.11640   0.00000  Uiso   1.00
H495   H     0.26707   0.74304   0.90740   0.00000  Uiso   1.00
H496   H     0.29777   0.31231   0.20242   0.00000  Uiso   1.00
H497   H     0.64723   0.52162   0.18079   0.00000  Uiso   1.00
O498   O     0.15455   0.86478   0.93558   0.00000  Uiso   1.00
O499   O     0.19483   0.29967   0.32265   0.00000  Uiso   1.00
O500   O     0.65332   0.57429   0.29427   0.00000  Uiso   1.00
N501   N     0.16866   0.81187   0.05399   0.00000  Uiso   1.00
N502   N     0.19735   0.40916   0.32981   0.00000  Uiso   1.00
N503   N     0.52408   0.60483   0.30960   0.00000  Uiso   1.00
N504   N     0.24376   0.75382   0.96005   0.00000  Uiso   1.00
N505   N     0.27245   0.35111   0.23587   0.00000  Uiso   1.00
N506   N     0.59917   0.54678   0.21566   0.00000  Uiso   1.00
C507   C     0.66886   0.29656   0.20484   0.00000  Uiso   1.00
C508   C     0.68996   0.21700   0.22132   0.00000  Uiso   1.00
C509   C     0.76237   0.16754   0.21847   0.00000  Uiso   1.00
C510   C     0.76989   0.09729   0.23546   0.00000  Uiso   1.00
C511   C     0.81219   0.97679   0.25810   0.00000  Uiso   1.00
C512   C     0.62500   0.31914   0.14396   0.00000  Uiso   1.00
C513   C     0.64279   0.35557   0.07607   0.00000  Uiso   1.00
C514   C     0.59563   0.37130   0.02794   0.00000  Uiso   1.00
C515   C     0.53706   0.40942   0.93050   0.00000  Uiso   1.00
C516   C     0.61252   0.32832   0.27339   0.00000  Uiso   1.00
C517   C     0.61980   0.37249   0.31432   0.00000  Uiso   1.00
C518   C     0.56212   0.39597   0.37516   0.00000  Uiso   1.00
C519   C     0.48417   0.44835   0.47868   0.00000  Uiso   1.00
C520   C     0.55345   0.25976   0.24009   0.00000  Uiso   1.00
C521   C     0.62728   0.19701   0.24046   0.00000  Uiso   1.00
C522   C     0.63469   0.12682   0.25747   0.00000  Uiso   1.00
C523   C     0.70709   0.07726   0.25464   0.00000  Uiso   1.00
C524   C     0.56232   0.29915   0.16310   0.00000  Uiso   1.00
C525   C     0.51512   0.31484   0.11507   0.00000  Uiso   1.00
C526   C     0.53283   0.35128   0.04712   0.00000  Uiso   1.00
C527   C     0.54984   0.30833   0.29254   0.00000  Uiso   1.00
C528   C     0.49213   0.33176   0.35332   0.00000  Uiso   1.00
C529   C     0.49932   0.37594   0.39434   0.00000  Uiso   1.00
H530   H     0.71766   0.31213   0.18993   0.00000  Uiso   1.00
H531   H     0.81086   0.18303   0.20364   0.00000  Uiso   1.00
H532   H     0.69130   0.37104   0.06127   0.00000  Uiso   1.00
H533   H     0.66832   0.38795   0.29949   0.00000  Uiso   1.00
H534   H     0.88656   0.03109   0.22726   0.00000  Uiso   1.00
H535   H     0.63444   0.42752   0.92707   0.00000  Uiso   1.00
H536   H     0.58598   0.46318   0.42940   0.00000  Uiso   1.00
H537   H     0.50465   0.24419   0.25499   0.00000  Uiso   1.00
H538   H     0.58617   0.11136   0.27228   0.00000  Uiso   1.00
H539   H     0.46661   0.29937   0.12990   0.00000  Uiso   1.00
H540   H     0.44363   0.31628   0.36812   0.00000  Uiso   1.00
H541   H     0.70419   0.97292   0.28296   0.00000  Uiso   1.00
H542   H     0.45208   0.36936   0.98277   0.00000  Uiso   1.00
H543   H     0.40361   0.40501   0.48510   0.00000  Uiso   1.00
O544   O     0.85284   0.91585   0.26529   0.00000  Uiso   1.00
O545   O     0.52208   0.43597   0.87146   0.00000  Uiso   1.00
O546   O     0.45849   0.48275   0.53050   0.00000  Uiso   1.00
N547   N     0.83245   0.03563   0.23801   0.00000  Uiso   1.00
N548   N     0.59674   0.40626   0.95735   0.00000  Uiso   1.00
N549   N     0.55142   0.43962   0.42697   0.00000  Uiso   1.00
N550   N     0.73432   0.00432   0.26799   0.00000  Uiso   1.00
N551   N     0.49861   0.37496   0.98732   0.00000  Uiso   1.00
N552   N     0.45329   0.40832   0.45695   0.00000  Uiso   1.00
