data_job_03762
_audit_creation_date              2018-12-19
_audit_creation_method            'Materials Studio'
_symmetry_space_group_name_H-M    'P1'
_symmetry_Int_Tables_number       1
_symmetry_cell_setting            triclinic
loop_
_symmetry_equiv_pos_as_xyz
  x,y,z
_cell_length_a                    11.1353
_cell_length_b                    19.3926
_cell_length_c                    24.6498
_cell_angle_alpha                 90.0000
_cell_angle_beta                  105.4560
_cell_angle_gamma                 90.0000
loop_
_atom_site_label
_atom_site_type_symbol
_atom_site_fract_x
_atom_site_fract_y
_atom_site_fract_z
_atom_site_U_iso_or_equiv
_atom_site_adp_type
_atom_site_occupancy
C1     C     0.64676   0.33793   0.53302   0.00000  Uiso   1.00
C2     C     0.67727   0.36847   0.59213   0.00000  Uiso   1.00
C3     C     0.59540   0.40495   0.61507   0.00000  Uiso   1.00
C4     C     0.64124   0.42866   0.66984   0.00000  Uiso   1.00
C5     C     0.66987   0.47800   0.75695   0.00000  Uiso   1.00
C6     C     0.74151   0.36844   0.50507   0.00000  Uiso   1.00
C7     C     0.71364   0.40488   0.45480   0.00000  Uiso   1.00
C8     C     0.81356   0.42855   0.43629   0.00000  Uiso   1.00
C9     C     0.94192   0.47780   0.38820   0.00000  Uiso   1.00
C10    C     0.67708   0.26127   0.54058   0.00000  Uiso   1.00
C11    C     0.59506   0.20759   0.52015   0.00000  Uiso   1.00
C12    C     0.64076   0.14102   0.53152   0.00000  Uiso   1.00
C13    C     0.66909   0.02387   0.53857   0.00000  Uiso   1.00
C14    C     0.87377   0.31516   0.58952   0.00000  Uiso   1.00
C15    C     0.80057   0.35611   0.62281   0.00000  Uiso   1.00
C16    C     0.84655   0.37976   0.67757   0.00000  Uiso   1.00
C17    C     0.76476   0.41626   0.70059   0.00000  Uiso   1.00
C18    C     0.86480   0.35607   0.53575   0.00000  Uiso   1.00
C19    C     0.96479   0.37969   0.51730   0.00000  Uiso   1.00
C20    C     0.93709   0.41616   0.46702   0.00000  Uiso   1.00
C21    C     0.80038   0.24890   0.57127   0.00000  Uiso   1.00
C22    C     0.84622   0.18240   0.58266   0.00000  Uiso   1.00
C23    C     0.76428   0.12863   0.56226   0.00000  Uiso   1.00
H24    H     0.55077   0.34756   0.50913   0.00000  Uiso   1.00
H25    H     0.49999   0.41452   0.59131   0.00000  Uiso   1.00
H26    H     0.61821   0.41444   0.43106   0.00000  Uiso   1.00
H27    H     0.49965   0.21718   0.49641   0.00000  Uiso   1.00
H28    H     0.49807   0.48332   0.69594   0.00000  Uiso   1.00
H29    H     0.74735   0.48314   0.35805   0.00000  Uiso   1.00
H30    H     0.49735   0.06718   0.49584   0.00000  Uiso   1.00
H31    H     0.96977   0.30553   0.61340   0.00000  Uiso   1.00
H32    H     0.94198   0.37018   0.70131   0.00000  Uiso   1.00
H33    H     0.06020   0.37011   0.54106   0.00000  Uiso   1.00
H34    H     0.94164   0.17285   0.60641   0.00000  Uiso   1.00
H35    H     0.85681   0.44734   0.78522   0.00000  Uiso   1.00
H36    H     0.10609   0.44716   0.44732   0.00000  Uiso   1.00
H37    H     0.85608   0.03120   0.58512   0.00000  Uiso   1.00
O38    O     0.65161   0.50864   0.79651   0.00000  Uiso   1.00
O39    O     0.97865   0.50839   0.35320   0.00000  Uiso   1.00
O40    O     0.65065   0.96266   0.53399   0.00000  Uiso   1.00
N41    N     0.58631   0.46597   0.70489   0.00000  Uiso   1.00
N42    N     0.81937   0.46581   0.38898   0.00000  Uiso   1.00
N43    N     0.58565   0.07692   0.51780   0.00000  Uiso   1.00
N44    N     0.77934   0.44661   0.75293   0.00000  Uiso   1.00
N45    N     0.01240   0.44645   0.43703   0.00000  Uiso   1.00
N46    N     0.77868   0.05756   0.56584   0.00000  Uiso   1.00
C47    C     0.35324   0.33793   0.96698   0.00000  Uiso   1.00
C48    C     0.32273   0.36847   0.90787   0.00000  Uiso   1.00
C49    C     0.40460   0.40495   0.88493   0.00000  Uiso   1.00
C50    C     0.35876   0.42866   0.83016   0.00000  Uiso   1.00
C51    C     0.33013   0.47800   0.74305   0.00000  Uiso   1.00
C52    C     0.25849   0.36844   0.99493   0.00000  Uiso   1.00
C53    C     0.28636   0.40488   0.04520   0.00000  Uiso   1.00
C54    C     0.18644   0.42855   0.06371   0.00000  Uiso   1.00
C55    C     0.05808   0.47780   0.11180   0.00000  Uiso   1.00
C56    C     0.32292   0.26127   0.95942   0.00000  Uiso   1.00
C57    C     0.40494   0.20759   0.97985   0.00000  Uiso   1.00
C58    C     0.35924   0.14102   0.96848   0.00000  Uiso   1.00
C59    C     0.33091   0.02387   0.96143   0.00000  Uiso   1.00
C60    C     0.12623   0.31516   0.91048   0.00000  Uiso   1.00
C61    C     0.19943   0.35611   0.87719   0.00000  Uiso   1.00
C62    C     0.15345   0.37976   0.82243   0.00000  Uiso   1.00
C63    C     0.23524   0.41626   0.79941   0.00000  Uiso   1.00
C64    C     0.13520   0.35607   0.96425   0.00000  Uiso   1.00
C65    C     0.03521   0.37969   0.98270   0.00000  Uiso   1.00
C66    C     0.06291   0.41616   0.03298   0.00000  Uiso   1.00
C67    C     0.19962   0.24890   0.92873   0.00000  Uiso   1.00
C68    C     0.15378   0.18240   0.91734   0.00000  Uiso   1.00
C69    C     0.23572   0.12863   0.93774   0.00000  Uiso   1.00
H70    H     0.44923   0.34756   0.99087   0.00000  Uiso   1.00
H71    H     0.50001   0.41452   0.90869   0.00000  Uiso   1.00
H72    H     0.38179   0.41444   0.06894   0.00000  Uiso   1.00
H73    H     0.50035   0.21718   0.00359   0.00000  Uiso   1.00
H74    H     0.50193   0.48332   0.80406   0.00000  Uiso   1.00
H75    H     0.25265   0.48314   0.14195   0.00000  Uiso   1.00
H76    H     0.50265   0.06718   0.00416   0.00000  Uiso   1.00
H77    H     0.03023   0.30553   0.88660   0.00000  Uiso   1.00
H78    H     0.05802   0.37018   0.79869   0.00000  Uiso   1.00
H79    H     0.93980   0.37011   0.95894   0.00000  Uiso   1.00
H80    H     0.05836   0.17285   0.89359   0.00000  Uiso   1.00
H81    H     0.14319   0.44734   0.71478   0.00000  Uiso   1.00
H82    H     0.89391   0.44716   0.05268   0.00000  Uiso   1.00
H83    H     0.14392   0.03120   0.91488   0.00000  Uiso   1.00
O84    O     0.34839   0.50864   0.70349   0.00000  Uiso   1.00
O85    O     0.02135   0.50839   0.14680   0.00000  Uiso   1.00
O86    O     0.34935   0.96266   0.96601   0.00000  Uiso   1.00
N87    N     0.41369   0.46597   0.79511   0.00000  Uiso   1.00
N88    N     0.18063   0.46581   0.11102   0.00000  Uiso   1.00
N89    N     0.41435   0.07692   0.98220   0.00000  Uiso   1.00
N90    N     0.22066   0.44661   0.74707   0.00000  Uiso   1.00
N91    N     0.98760   0.44645   0.06297   0.00000  Uiso   1.00
N92    N     0.22132   0.05756   0.93416   0.00000  Uiso   1.00
C93    C     0.35324   0.66207   0.46698   0.00000  Uiso   1.00
C94    C     0.32273   0.63153   0.40787   0.00000  Uiso   1.00
C95    C     0.40460   0.59505   0.38493   0.00000  Uiso   1.00
C96    C     0.35876   0.57134   0.33016   0.00000  Uiso   1.00
C97    C     0.33013   0.52200   0.24305   0.00000  Uiso   1.00
C98    C     0.25849   0.63156   0.49493   0.00000  Uiso   1.00
C99    C     0.28636   0.59512   0.54520   0.00000  Uiso   1.00
C100   C     0.18644   0.57145   0.56371   0.00000  Uiso   1.00
C101   C     0.05808   0.52220   0.61180   0.00000  Uiso   1.00
C102   C     0.32292   0.73873   0.45942   0.00000  Uiso   1.00
C103   C     0.40494   0.79241   0.47985   0.00000  Uiso   1.00
C104   C     0.35924   0.85898   0.46848   0.00000  Uiso   1.00
C105   C     0.33091   0.97613   0.46143   0.00000  Uiso   1.00
C106   C     0.12623   0.68484   0.41048   0.00000  Uiso   1.00
C107   C     0.19943   0.64389   0.37719   0.00000  Uiso   1.00
C108   C     0.15345   0.62024   0.32243   0.00000  Uiso   1.00
C109   C     0.23524   0.58374   0.29941   0.00000  Uiso   1.00
C110   C     0.13520   0.64393   0.46425   0.00000  Uiso   1.00
C111   C     0.03521   0.62031   0.48270   0.00000  Uiso   1.00
C112   C     0.06291   0.58384   0.53298   0.00000  Uiso   1.00
C113   C     0.19962   0.75110   0.42873   0.00000  Uiso   1.00
C114   C     0.15378   0.81760   0.41734   0.00000  Uiso   1.00
C115   C     0.23572   0.87137   0.43774   0.00000  Uiso   1.00
H116   H     0.44923   0.65244   0.49087   0.00000  Uiso   1.00
H117   H     0.50001   0.58548   0.40869   0.00000  Uiso   1.00
H118   H     0.38179   0.58556   0.56894   0.00000  Uiso   1.00
H119   H     0.50035   0.78282   0.50359   0.00000  Uiso   1.00
H120   H     0.50193   0.51668   0.30406   0.00000  Uiso   1.00
H121   H     0.25265   0.51686   0.64195   0.00000  Uiso   1.00
H122   H     0.50265   0.93282   0.50416   0.00000  Uiso   1.00
H123   H     0.03023   0.69447   0.38660   0.00000  Uiso   1.00
H124   H     0.05802   0.62982   0.29869   0.00000  Uiso   1.00
H125   H     0.93980   0.62989   0.45894   0.00000  Uiso   1.00
H126   H     0.05836   0.82715   0.39359   0.00000  Uiso   1.00
H127   H     0.14319   0.55266   0.21478   0.00000  Uiso   1.00
H128   H     0.89391   0.55284   0.55268   0.00000  Uiso   1.00
H129   H     0.14392   0.96880   0.41488   0.00000  Uiso   1.00
O130   O     0.34839   0.49136   0.20349   0.00000  Uiso   1.00
O131   O     0.02135   0.49161   0.64680   0.00000  Uiso   1.00
O132   O     0.34935   0.03734   0.46601   0.00000  Uiso   1.00
N133   N     0.41369   0.53403   0.29511   0.00000  Uiso   1.00
N134   N     0.18063   0.53419   0.61102   0.00000  Uiso   1.00
N135   N     0.41435   0.92308   0.48220   0.00000  Uiso   1.00
N136   N     0.22066   0.55339   0.24707   0.00000  Uiso   1.00
N137   N     0.98760   0.55355   0.56297   0.00000  Uiso   1.00
N138   N     0.22132   0.94244   0.43416   0.00000  Uiso   1.00
C139   C     0.64676   0.66207   0.03302   0.00000  Uiso   1.00
C140   C     0.67727   0.63153   0.09213   0.00000  Uiso   1.00
C141   C     0.59540   0.59505   0.11507   0.00000  Uiso   1.00
C142   C     0.64124   0.57134   0.16984   0.00000  Uiso   1.00
C143   C     0.66987   0.52200   0.25695   0.00000  Uiso   1.00
C144   C     0.74151   0.63156   0.00507   0.00000  Uiso   1.00
C145   C     0.71364   0.59512   0.95480   0.00000  Uiso   1.00
C146   C     0.81356   0.57145   0.93629   0.00000  Uiso   1.00
C147   C     0.94192   0.52220   0.88820   0.00000  Uiso   1.00
C148   C     0.67708   0.73873   0.04058   0.00000  Uiso   1.00
C149   C     0.59506   0.79241   0.02015   0.00000  Uiso   1.00
C150   C     0.64076   0.85898   0.03152   0.00000  Uiso   1.00
C151   C     0.66909   0.97613   0.03857   0.00000  Uiso   1.00
C152   C     0.87377   0.68484   0.08952   0.00000  Uiso   1.00
C153   C     0.80057   0.64389   0.12281   0.00000  Uiso   1.00
C154   C     0.84655   0.62024   0.17757   0.00000  Uiso   1.00
C155   C     0.76476   0.58374   0.20059   0.00000  Uiso   1.00
C156   C     0.86480   0.64393   0.03575   0.00000  Uiso   1.00
C157   C     0.96479   0.62031   0.01730   0.00000  Uiso   1.00
C158   C     0.93709   0.58384   0.96702   0.00000  Uiso   1.00
C159   C     0.80038   0.75110   0.07127   0.00000  Uiso   1.00
C160   C     0.84622   0.81760   0.08266   0.00000  Uiso   1.00
C161   C     0.76428   0.87137   0.06226   0.00000  Uiso   1.00
H162   H     0.55077   0.65244   0.00913   0.00000  Uiso   1.00
H163   H     0.49999   0.58548   0.09131   0.00000  Uiso   1.00
H164   H     0.61821   0.58556   0.93106   0.00000  Uiso   1.00
H165   H     0.49965   0.78282   0.99641   0.00000  Uiso   1.00
H166   H     0.49807   0.51668   0.19594   0.00000  Uiso   1.00
H167   H     0.74735   0.51686   0.85805   0.00000  Uiso   1.00
H168   H     0.49735   0.93282   0.99584   0.00000  Uiso   1.00
H169   H     0.96977   0.69447   0.11340   0.00000  Uiso   1.00
H170   H     0.94198   0.62982   0.20131   0.00000  Uiso   1.00
H171   H     0.06020   0.62989   0.04106   0.00000  Uiso   1.00
H172   H     0.94164   0.82715   0.10641   0.00000  Uiso   1.00
H173   H     0.85681   0.55266   0.28522   0.00000  Uiso   1.00
H174   H     0.10609   0.55284   0.94732   0.00000  Uiso   1.00
H175   H     0.85608   0.96880   0.08512   0.00000  Uiso   1.00
O176   O     0.65161   0.49136   0.29651   0.00000  Uiso   1.00
O177   O     0.97865   0.49161   0.85320   0.00000  Uiso   1.00
O178   O     0.65065   0.03734   0.03399   0.00000  Uiso   1.00
N179   N     0.58631   0.53403   0.20489   0.00000  Uiso   1.00
N180   N     0.81937   0.53419   0.88898   0.00000  Uiso   1.00
N181   N     0.58565   0.92308   0.01780   0.00000  Uiso   1.00
N182   N     0.77934   0.55339   0.25293   0.00000  Uiso   1.00
N183   N     0.01240   0.55355   0.93703   0.00000  Uiso   1.00
N184   N     0.77868   0.94244   0.06584   0.00000  Uiso   1.00
