data_job_05135
_audit_creation_date              2018-12-19
_audit_creation_method            'Materials Studio'
_symmetry_space_group_name_H-M    'P1'
_symmetry_Int_Tables_number       1
_symmetry_cell_setting            triclinic
loop_
_symmetry_equiv_pos_as_xyz
  x,y,z
_cell_length_a                    12.3032
_cell_length_b                    29.2893
_cell_length_c                    13.0444
_cell_angle_alpha                 90.0000
_cell_angle_beta                  90.0000
_cell_angle_gamma                 90.0000
loop_
_atom_site_label
_atom_site_type_symbol
_atom_site_fract_x
_atom_site_fract_y
_atom_site_fract_z
_atom_site_U_iso_or_equiv
_atom_site_adp_type
_atom_site_occupancy
C1     C     0.14859   0.62691   0.11680   0.00000  Uiso   1.00
C2     C     0.07055   0.60714   0.03756   0.00000  Uiso   1.00
C3     C     0.97635   0.58288   0.05895   0.00000  Uiso   1.00
C4     C     0.91602   0.56765   0.97574   0.00000  Uiso   1.00
C5     C     0.78989   0.53560   0.86807   0.00000  Uiso   1.00
C6     C     0.25992   0.60682   0.09216   0.00000  Uiso   1.00
C7     C     0.32494   0.58231   0.15947   0.00000  Uiso   1.00
C8     C     0.42402   0.56683   0.12223   0.00000  Uiso   1.00
C9     C     0.59192   0.53432   0.09935   0.00000  Uiso   1.00
C10    C     0.15668   0.67780   0.09334   0.00000  Uiso   1.00
C11    C     0.13492   0.71296   0.16163   0.00000  Uiso   1.00
C12    C     0.14712   0.75724   0.12539   0.00000  Uiso   1.00
C13    C     0.15472   0.83493   0.10433   0.00000  Uiso   1.00
C14    C     0.20897   0.64301   0.93101   0.00000  Uiso   1.00
C15    C     0.10335   0.61588   0.93665   0.00000  Uiso   1.00
C16    C     0.04315   0.60069   0.85339   0.00000  Uiso   1.00
C17    C     0.94887   0.57642   0.87465   0.00000  Uiso   1.00
C18    C     0.29271   0.61557   0.99126   0.00000  Uiso   1.00
C19    C     0.39173   0.60013   0.95391   0.00000  Uiso   1.00
C20    C     0.45688   0.57559   0.02113   0.00000  Uiso   1.00
C21    C     0.18947   0.68655   0.99243   0.00000  Uiso   1.00
C22    C     0.20171   0.73078   0.95607   0.00000  Uiso   1.00
C23    C     0.17997   0.76600   0.02430   0.00000  Uiso   1.00
H24    H     0.12306   0.62010   0.19536   0.00000  Uiso   1.00
H25    H     0.95100   0.57611   0.13705   0.00000  Uiso   1.00
H26    H     0.29954   0.57555   0.23756   0.00000  Uiso   1.00
H27    H     0.10954   0.70618   0.23972   0.00000  Uiso   1.00
H28    H     0.77472   0.53119   0.02790   0.00000  Uiso   1.00
H29    H     0.50965   0.53001   0.23983   0.00000  Uiso   1.00
H30    H     0.10901   0.80548   0.24440   0.00000  Uiso   1.00
H31    H     0.23450   0.64982   0.85244   0.00000  Uiso   1.00
H32    H     0.06855   0.60747   0.77531   0.00000  Uiso   1.00
H33    H     0.41709   0.60690   0.87582   0.00000  Uiso   1.00
H34    H     0.22709   0.73754   0.87798   0.00000  Uiso   1.00
H35    H     0.87013   0.55664   0.73430   0.00000  Uiso   1.00
H36    H     0.60506   0.55546   0.94623   0.00000  Uiso   1.00
H37    H     0.20442   0.83093   0.95079   0.00000  Uiso   1.00
O38    O     0.71126   0.51550   0.83655   0.00000  Uiso   1.00
O39    O     0.67547   0.51397   0.11460   0.00000  Uiso   1.00
O40    O     0.14984   0.87537   0.12059   0.00000  Uiso   1.00
N41    N     0.81994   0.54300   0.96939   0.00000  Uiso   1.00
N42    N     0.50705   0.54189   0.16753   0.00000  Uiso   1.00
N43    N     0.13251   0.79943   0.17180   0.00000  Uiso   1.00
N44    N     0.87127   0.55669   0.81140   0.00000  Uiso   1.00
N45    N     0.55838   0.55559   0.00954   0.00000  Uiso   1.00
N46    N     0.18385   0.81312   0.01382   0.00000  Uiso   1.00
C47    C     0.35141   0.37309   0.61680   0.00000  Uiso   1.00
C48    C     0.42945   0.39286   0.53756   0.00000  Uiso   1.00
C49    C     0.52365   0.41712   0.55895   0.00000  Uiso   1.00
C50    C     0.58398   0.43235   0.47574   0.00000  Uiso   1.00
C51    C     0.71011   0.46440   0.36807   0.00000  Uiso   1.00
C52    C     0.24008   0.39318   0.59216   0.00000  Uiso   1.00
C53    C     0.17506   0.41769   0.65947   0.00000  Uiso   1.00
C54    C     0.07598   0.43317   0.62223   0.00000  Uiso   1.00
C55    C     0.90808   0.46568   0.59935   0.00000  Uiso   1.00
C56    C     0.34332   0.32220   0.59334   0.00000  Uiso   1.00
C57    C     0.36508   0.28704   0.66163   0.00000  Uiso   1.00
C58    C     0.35288   0.24276   0.62539   0.00000  Uiso   1.00
C59    C     0.34528   0.16507   0.60433   0.00000  Uiso   1.00
C60    C     0.29103   0.35699   0.43101   0.00000  Uiso   1.00
C61    C     0.39665   0.38412   0.43665   0.00000  Uiso   1.00
C62    C     0.45685   0.39931   0.35339   0.00000  Uiso   1.00
C63    C     0.55113   0.42358   0.37465   0.00000  Uiso   1.00
C64    C     0.20729   0.38443   0.49126   0.00000  Uiso   1.00
C65    C     0.10827   0.39987   0.45391   0.00000  Uiso   1.00
C66    C     0.04312   0.42441   0.52113   0.00000  Uiso   1.00
C67    C     0.31053   0.31345   0.49243   0.00000  Uiso   1.00
C68    C     0.29829   0.26922   0.45607   0.00000  Uiso   1.00
C69    C     0.32003   0.23400   0.52430   0.00000  Uiso   1.00
H70    H     0.37694   0.37990   0.69536   0.00000  Uiso   1.00
H71    H     0.54900   0.42389   0.63705   0.00000  Uiso   1.00
H72    H     0.20046   0.42445   0.73756   0.00000  Uiso   1.00
H73    H     0.39046   0.29382   0.73972   0.00000  Uiso   1.00
H74    H     0.72528   0.46881   0.52790   0.00000  Uiso   1.00
H75    H     0.99035   0.46999   0.73983   0.00000  Uiso   1.00
H76    H     0.39099   0.19452   0.74440   0.00000  Uiso   1.00
H77    H     0.26550   0.35018   0.35244   0.00000  Uiso   1.00
H78    H     0.43145   0.39253   0.27531   0.00000  Uiso   1.00
H79    H     0.08291   0.39310   0.37582   0.00000  Uiso   1.00
H80    H     0.27291   0.26246   0.37798   0.00000  Uiso   1.00
H81    H     0.62987   0.44336   0.23430   0.00000  Uiso   1.00
H82    H     0.89494   0.44454   0.44623   0.00000  Uiso   1.00
H83    H     0.29558   0.16907   0.45079   0.00000  Uiso   1.00
O84    O     0.78874   0.48450   0.33655   0.00000  Uiso   1.00
O85    O     0.82453   0.48603   0.61460   0.00000  Uiso   1.00
O86    O     0.35016   0.12463   0.62059   0.00000  Uiso   1.00
N87    N     0.68006   0.45700   0.46939   0.00000  Uiso   1.00
N88    N     0.99295   0.45811   0.66753   0.00000  Uiso   1.00
N89    N     0.36749   0.20057   0.67180   0.00000  Uiso   1.00
N90    N     0.62873   0.44331   0.31140   0.00000  Uiso   1.00
N91    N     0.94162   0.44441   0.50954   0.00000  Uiso   1.00
N92    N     0.31615   0.18688   0.51382   0.00000  Uiso   1.00
C93    C     0.85141   0.12691   0.38320   0.00000  Uiso   1.00
C94    C     0.92945   0.10714   0.46244   0.00000  Uiso   1.00
C95    C     0.02365   0.08288   0.44105   0.00000  Uiso   1.00
C96    C     0.08398   0.06765   0.52426   0.00000  Uiso   1.00
C97    C     0.21011   0.03560   0.63193   0.00000  Uiso   1.00
C98    C     0.74008   0.10682   0.40784   0.00000  Uiso   1.00
C99    C     0.67506   0.08231   0.34053   0.00000  Uiso   1.00
C100   C     0.57598   0.06683   0.37777   0.00000  Uiso   1.00
C101   C     0.40808   0.03432   0.40065   0.00000  Uiso   1.00
C102   C     0.84332   0.17780   0.40666   0.00000  Uiso   1.00
C103   C     0.86508   0.21296   0.33837   0.00000  Uiso   1.00
C104   C     0.85288   0.25724   0.37461   0.00000  Uiso   1.00
C105   C     0.84528   0.33493   0.39567   0.00000  Uiso   1.00
C106   C     0.79103   0.14301   0.56899   0.00000  Uiso   1.00
C107   C     0.89665   0.11588   0.56335   0.00000  Uiso   1.00
C108   C     0.95685   0.10069   0.64661   0.00000  Uiso   1.00
C109   C     0.05113   0.07642   0.62535   0.00000  Uiso   1.00
C110   C     0.70729   0.11557   0.50874   0.00000  Uiso   1.00
C111   C     0.60827   0.10013   0.54609   0.00000  Uiso   1.00
C112   C     0.54312   0.07559   0.47887   0.00000  Uiso   1.00
C113   C     0.81053   0.18655   0.50757   0.00000  Uiso   1.00
C114   C     0.79829   0.23078   0.54393   0.00000  Uiso   1.00
C115   C     0.82003   0.26600   0.47570   0.00000  Uiso   1.00
H116   H     0.87694   0.12010   0.30464   0.00000  Uiso   1.00
H117   H     0.04900   0.07611   0.36295   0.00000  Uiso   1.00
H118   H     0.70046   0.07555   0.26244   0.00000  Uiso   1.00
H119   H     0.89046   0.20618   0.26028   0.00000  Uiso   1.00
H120   H     0.22528   0.03119   0.47210   0.00000  Uiso   1.00
H121   H     0.49035   0.03001   0.26017   0.00000  Uiso   1.00
H122   H     0.89099   0.30548   0.25560   0.00000  Uiso   1.00
H123   H     0.76550   0.14982   0.64756   0.00000  Uiso   1.00
H124   H     0.93145   0.10747   0.72469   0.00000  Uiso   1.00
H125   H     0.58291   0.10690   0.62418   0.00000  Uiso   1.00
H126   H     0.77291   0.23754   0.62202   0.00000  Uiso   1.00
H127   H     0.12987   0.05664   0.76570   0.00000  Uiso   1.00
H128   H     0.39494   0.05546   0.55377   0.00000  Uiso   1.00
H129   H     0.79558   0.33093   0.54921   0.00000  Uiso   1.00
O130   O     0.28874   0.01550   0.66345   0.00000  Uiso   1.00
O131   O     0.32453   0.01397   0.38540   0.00000  Uiso   1.00
O132   O     0.85016   0.37537   0.37941   0.00000  Uiso   1.00
N133   N     0.18006   0.04300   0.53061   0.00000  Uiso   1.00
N134   N     0.49295   0.04189   0.33247   0.00000  Uiso   1.00
N135   N     0.86749   0.29943   0.32820   0.00000  Uiso   1.00
N136   N     0.12873   0.05669   0.68860   0.00000  Uiso   1.00
N137   N     0.44162   0.05559   0.49046   0.00000  Uiso   1.00
N138   N     0.81615   0.31312   0.48618   0.00000  Uiso   1.00
C139   C     0.64859   0.87309   0.88320   0.00000  Uiso   1.00
C140   C     0.57055   0.89286   0.96244   0.00000  Uiso   1.00
C141   C     0.47635   0.91712   0.94105   0.00000  Uiso   1.00
C142   C     0.41602   0.93235   0.02426   0.00000  Uiso   1.00
C143   C     0.28989   0.96440   0.13193   0.00000  Uiso   1.00
C144   C     0.75992   0.89318   0.90784   0.00000  Uiso   1.00
C145   C     0.82494   0.91769   0.84053   0.00000  Uiso   1.00
C146   C     0.92402   0.93317   0.87777   0.00000  Uiso   1.00
C147   C     0.09192   0.96568   0.90065   0.00000  Uiso   1.00
C148   C     0.65668   0.82220   0.90666   0.00000  Uiso   1.00
C149   C     0.63492   0.78704   0.83837   0.00000  Uiso   1.00
C150   C     0.64712   0.74276   0.87461   0.00000  Uiso   1.00
C151   C     0.65472   0.66507   0.89567   0.00000  Uiso   1.00
C152   C     0.70897   0.85699   0.06899   0.00000  Uiso   1.00
C153   C     0.60335   0.88412   0.06335   0.00000  Uiso   1.00
C154   C     0.54315   0.89931   0.14661   0.00000  Uiso   1.00
C155   C     0.44887   0.92358   0.12535   0.00000  Uiso   1.00
C156   C     0.79271   0.88443   0.00874   0.00000  Uiso   1.00
C157   C     0.89173   0.89987   0.04609   0.00000  Uiso   1.00
C158   C     0.95688   0.92441   0.97887   0.00000  Uiso   1.00
C159   C     0.68947   0.81345   0.00757   0.00000  Uiso   1.00
C160   C     0.70171   0.76922   0.04393   0.00000  Uiso   1.00
C161   C     0.67997   0.73400   0.97570   0.00000  Uiso   1.00
H162   H     0.62306   0.87990   0.80464   0.00000  Uiso   1.00
H163   H     0.45100   0.92389   0.86295   0.00000  Uiso   1.00
H164   H     0.79954   0.92445   0.76244   0.00000  Uiso   1.00
H165   H     0.60954   0.79382   0.76028   0.00000  Uiso   1.00
H166   H     0.27472   0.96881   0.97210   0.00000  Uiso   1.00
H167   H     0.00965   0.96999   0.76017   0.00000  Uiso   1.00
H168   H     0.60901   0.69452   0.75560   0.00000  Uiso   1.00
H169   H     0.73450   0.85018   0.14756   0.00000  Uiso   1.00
H170   H     0.56855   0.89253   0.22469   0.00000  Uiso   1.00
H171   H     0.91709   0.89310   0.12418   0.00000  Uiso   1.00
H172   H     0.72709   0.76246   0.12202   0.00000  Uiso   1.00
H173   H     0.37013   0.94336   0.26570   0.00000  Uiso   1.00
H174   H     0.10506   0.94454   0.05377   0.00000  Uiso   1.00
H175   H     0.70442   0.66907   0.04921   0.00000  Uiso   1.00
O176   O     0.21126   0.98450   0.16345   0.00000  Uiso   1.00
O177   O     0.17547   0.98603   0.88540   0.00000  Uiso   1.00
O178   O     0.64984   0.62463   0.87941   0.00000  Uiso   1.00
N179   N     0.31994   0.95700   0.03061   0.00000  Uiso   1.00
N180   N     0.00705   0.95811   0.83247   0.00000  Uiso   1.00
N181   N     0.63251   0.70057   0.82820   0.00000  Uiso   1.00
N182   N     0.37127   0.94331   0.18860   0.00000  Uiso   1.00
N183   N     0.05838   0.94441   0.99046   0.00000  Uiso   1.00
N184   N     0.68385   0.68688   0.98618   0.00000  Uiso   1.00
C185   C     0.85141   0.37309   0.88320   0.00000  Uiso   1.00
C186   C     0.92945   0.39286   0.96244   0.00000  Uiso   1.00
C187   C     0.02365   0.41712   0.94105   0.00000  Uiso   1.00
C188   C     0.08398   0.43235   0.02426   0.00000  Uiso   1.00
C189   C     0.21011   0.46440   0.13193   0.00000  Uiso   1.00
C190   C     0.74008   0.39318   0.90784   0.00000  Uiso   1.00
C191   C     0.67506   0.41769   0.84053   0.00000  Uiso   1.00
C192   C     0.57598   0.43317   0.87777   0.00000  Uiso   1.00
C193   C     0.40808   0.46568   0.90065   0.00000  Uiso   1.00
C194   C     0.84332   0.32220   0.90666   0.00000  Uiso   1.00
C195   C     0.86508   0.28704   0.83837   0.00000  Uiso   1.00
C196   C     0.85288   0.24276   0.87461   0.00000  Uiso   1.00
C197   C     0.84528   0.16507   0.89567   0.00000  Uiso   1.00
C198   C     0.79103   0.35699   0.06899   0.00000  Uiso   1.00
C199   C     0.89665   0.38412   0.06335   0.00000  Uiso   1.00
C200   C     0.95685   0.39931   0.14661   0.00000  Uiso   1.00
C201   C     0.05113   0.42358   0.12535   0.00000  Uiso   1.00
C202   C     0.70729   0.38443   0.00874   0.00000  Uiso   1.00
C203   C     0.60827   0.39987   0.04609   0.00000  Uiso   1.00
C204   C     0.54312   0.42441   0.97887   0.00000  Uiso   1.00
C205   C     0.81053   0.31345   0.00757   0.00000  Uiso   1.00
C206   C     0.79829   0.26922   0.04393   0.00000  Uiso   1.00
C207   C     0.82003   0.23400   0.97570   0.00000  Uiso   1.00
H208   H     0.87694   0.37990   0.80464   0.00000  Uiso   1.00
H209   H     0.04900   0.42389   0.86295   0.00000  Uiso   1.00
H210   H     0.70046   0.42445   0.76244   0.00000  Uiso   1.00
H211   H     0.89046   0.29382   0.76028   0.00000  Uiso   1.00
H212   H     0.22528   0.46881   0.97210   0.00000  Uiso   1.00
H213   H     0.49035   0.46999   0.76017   0.00000  Uiso   1.00
H214   H     0.89099   0.19452   0.75560   0.00000  Uiso   1.00
H215   H     0.76550   0.35018   0.14756   0.00000  Uiso   1.00
H216   H     0.93145   0.39253   0.22469   0.00000  Uiso   1.00
H217   H     0.58291   0.39310   0.12418   0.00000  Uiso   1.00
H218   H     0.77291   0.26246   0.12202   0.00000  Uiso   1.00
H219   H     0.12987   0.44336   0.26570   0.00000  Uiso   1.00
H220   H     0.39494   0.44454   0.05377   0.00000  Uiso   1.00
H221   H     0.79558   0.16907   0.04921   0.00000  Uiso   1.00
O222   O     0.28874   0.48450   0.16345   0.00000  Uiso   1.00
O223   O     0.32453   0.48603   0.88540   0.00000  Uiso   1.00
O224   O     0.85016   0.12463   0.87941   0.00000  Uiso   1.00
N225   N     0.18006   0.45700   0.03061   0.00000  Uiso   1.00
N226   N     0.49295   0.45811   0.83247   0.00000  Uiso   1.00
N227   N     0.86749   0.20057   0.82820   0.00000  Uiso   1.00
N228   N     0.12873   0.44331   0.18860   0.00000  Uiso   1.00
N229   N     0.44162   0.44441   0.99046   0.00000  Uiso   1.00
N230   N     0.81615   0.18688   0.98618   0.00000  Uiso   1.00
C231   C     0.64859   0.62691   0.38320   0.00000  Uiso   1.00
C232   C     0.57055   0.60714   0.46244   0.00000  Uiso   1.00
C233   C     0.47635   0.58288   0.44105   0.00000  Uiso   1.00
C234   C     0.41602   0.56765   0.52426   0.00000  Uiso   1.00
C235   C     0.28989   0.53560   0.63193   0.00000  Uiso   1.00
C236   C     0.75992   0.60682   0.40784   0.00000  Uiso   1.00
C237   C     0.82494   0.58231   0.34053   0.00000  Uiso   1.00
C238   C     0.92402   0.56683   0.37777   0.00000  Uiso   1.00
C239   C     0.09192   0.53432   0.40065   0.00000  Uiso   1.00
C240   C     0.65668   0.67780   0.40666   0.00000  Uiso   1.00
C241   C     0.63492   0.71296   0.33837   0.00000  Uiso   1.00
C242   C     0.64712   0.75724   0.37461   0.00000  Uiso   1.00
C243   C     0.65472   0.83493   0.39567   0.00000  Uiso   1.00
C244   C     0.70897   0.64301   0.56899   0.00000  Uiso   1.00
C245   C     0.60335   0.61588   0.56335   0.00000  Uiso   1.00
C246   C     0.54315   0.60069   0.64661   0.00000  Uiso   1.00
C247   C     0.44887   0.57642   0.62535   0.00000  Uiso   1.00
C248   C     0.79271   0.61557   0.50874   0.00000  Uiso   1.00
C249   C     0.89173   0.60013   0.54609   0.00000  Uiso   1.00
C250   C     0.95688   0.57559   0.47887   0.00000  Uiso   1.00
C251   C     0.68947   0.68655   0.50757   0.00000  Uiso   1.00
C252   C     0.70171   0.73078   0.54393   0.00000  Uiso   1.00
C253   C     0.67997   0.76600   0.47570   0.00000  Uiso   1.00
H254   H     0.62306   0.62010   0.30464   0.00000  Uiso   1.00
H255   H     0.45100   0.57611   0.36295   0.00000  Uiso   1.00
H256   H     0.79954   0.57555   0.26244   0.00000  Uiso   1.00
H257   H     0.60954   0.70618   0.26028   0.00000  Uiso   1.00
H258   H     0.27472   0.53119   0.47210   0.00000  Uiso   1.00
H259   H     0.00965   0.53001   0.26017   0.00000  Uiso   1.00
H260   H     0.60901   0.80548   0.25560   0.00000  Uiso   1.00
H261   H     0.73450   0.64982   0.64756   0.00000  Uiso   1.00
H262   H     0.56855   0.60747   0.72469   0.00000  Uiso   1.00
H263   H     0.91709   0.60690   0.62418   0.00000  Uiso   1.00
H264   H     0.72709   0.73754   0.62202   0.00000  Uiso   1.00
H265   H     0.37013   0.55664   0.76570   0.00000  Uiso   1.00
H266   H     0.10506   0.55546   0.55377   0.00000  Uiso   1.00
H267   H     0.70442   0.83093   0.54921   0.00000  Uiso   1.00
O268   O     0.21126   0.51550   0.66345   0.00000  Uiso   1.00
O269   O     0.17547   0.51397   0.38540   0.00000  Uiso   1.00
O270   O     0.64984   0.87537   0.37941   0.00000  Uiso   1.00
N271   N     0.31994   0.54300   0.53061   0.00000  Uiso   1.00
N272   N     0.00705   0.54189   0.33247   0.00000  Uiso   1.00
N273   N     0.63251   0.79943   0.32820   0.00000  Uiso   1.00
N274   N     0.37127   0.55669   0.68860   0.00000  Uiso   1.00
N275   N     0.05838   0.55559   0.49046   0.00000  Uiso   1.00
N276   N     0.68385   0.81312   0.48618   0.00000  Uiso   1.00
C277   C     0.14859   0.87309   0.61680   0.00000  Uiso   1.00
C278   C     0.07055   0.89286   0.53756   0.00000  Uiso   1.00
C279   C     0.97635   0.91712   0.55895   0.00000  Uiso   1.00
C280   C     0.91602   0.93235   0.47574   0.00000  Uiso   1.00
C281   C     0.78989   0.96440   0.36807   0.00000  Uiso   1.00
C282   C     0.25992   0.89318   0.59216   0.00000  Uiso   1.00
C283   C     0.32494   0.91769   0.65947   0.00000  Uiso   1.00
C284   C     0.42402   0.93317   0.62223   0.00000  Uiso   1.00
C285   C     0.59192   0.96568   0.59935   0.00000  Uiso   1.00
C286   C     0.15668   0.82220   0.59334   0.00000  Uiso   1.00
C287   C     0.13492   0.78704   0.66163   0.00000  Uiso   1.00
C288   C     0.14712   0.74276   0.62539   0.00000  Uiso   1.00
C289   C     0.15472   0.66507   0.60433   0.00000  Uiso   1.00
C290   C     0.20897   0.85699   0.43101   0.00000  Uiso   1.00
C291   C     0.10335   0.88412   0.43665   0.00000  Uiso   1.00
C292   C     0.04315   0.89931   0.35339   0.00000  Uiso   1.00
C293   C     0.94887   0.92358   0.37465   0.00000  Uiso   1.00
C294   C     0.29271   0.88443   0.49126   0.00000  Uiso   1.00
C295   C     0.39173   0.89987   0.45391   0.00000  Uiso   1.00
C296   C     0.45688   0.92441   0.52113   0.00000  Uiso   1.00
C297   C     0.18947   0.81345   0.49243   0.00000  Uiso   1.00
C298   C     0.20171   0.76922   0.45607   0.00000  Uiso   1.00
C299   C     0.17997   0.73400   0.52430   0.00000  Uiso   1.00
H300   H     0.12306   0.87990   0.69536   0.00000  Uiso   1.00
H301   H     0.95100   0.92389   0.63705   0.00000  Uiso   1.00
H302   H     0.29954   0.92445   0.73756   0.00000  Uiso   1.00
H303   H     0.10954   0.79382   0.73972   0.00000  Uiso   1.00
H304   H     0.77472   0.96881   0.52790   0.00000  Uiso   1.00
H305   H     0.50965   0.96999   0.73983   0.00000  Uiso   1.00
H306   H     0.10901   0.69452   0.74440   0.00000  Uiso   1.00
H307   H     0.23450   0.85018   0.35244   0.00000  Uiso   1.00
H308   H     0.06855   0.89253   0.27531   0.00000  Uiso   1.00
H309   H     0.41709   0.89310   0.37582   0.00000  Uiso   1.00
H310   H     0.22709   0.76246   0.37798   0.00000  Uiso   1.00
H311   H     0.87013   0.94336   0.23430   0.00000  Uiso   1.00
H312   H     0.60506   0.94454   0.44623   0.00000  Uiso   1.00
H313   H     0.20442   0.66907   0.45079   0.00000  Uiso   1.00
O314   O     0.71126   0.98450   0.33655   0.00000  Uiso   1.00
O315   O     0.67547   0.98603   0.61460   0.00000  Uiso   1.00
O316   O     0.14984   0.62463   0.62059   0.00000  Uiso   1.00
N317   N     0.81994   0.95700   0.46939   0.00000  Uiso   1.00
N318   N     0.50705   0.95811   0.66753   0.00000  Uiso   1.00
N319   N     0.13251   0.70057   0.67180   0.00000  Uiso   1.00
N320   N     0.87127   0.94331   0.31140   0.00000  Uiso   1.00
N321   N     0.55838   0.94441   0.50954   0.00000  Uiso   1.00
N322   N     0.18385   0.68688   0.51382   0.00000  Uiso   1.00
C323   C     0.35141   0.12691   0.11680   0.00000  Uiso   1.00
C324   C     0.42945   0.10714   0.03756   0.00000  Uiso   1.00
C325   C     0.52365   0.08288   0.05895   0.00000  Uiso   1.00
C326   C     0.58398   0.06765   0.97574   0.00000  Uiso   1.00
C327   C     0.71011   0.03560   0.86807   0.00000  Uiso   1.00
C328   C     0.24008   0.10682   0.09216   0.00000  Uiso   1.00
C329   C     0.17506   0.08231   0.15947   0.00000  Uiso   1.00
C330   C     0.07598   0.06683   0.12223   0.00000  Uiso   1.00
C331   C     0.90808   0.03432   0.09935   0.00000  Uiso   1.00
C332   C     0.34332   0.17780   0.09334   0.00000  Uiso   1.00
C333   C     0.36508   0.21296   0.16163   0.00000  Uiso   1.00
C334   C     0.35288   0.25724   0.12539   0.00000  Uiso   1.00
C335   C     0.34528   0.33493   0.10433   0.00000  Uiso   1.00
C336   C     0.29103   0.14301   0.93101   0.00000  Uiso   1.00
C337   C     0.39665   0.11588   0.93665   0.00000  Uiso   1.00
C338   C     0.45685   0.10069   0.85339   0.00000  Uiso   1.00
C339   C     0.55113   0.07642   0.87465   0.00000  Uiso   1.00
C340   C     0.20729   0.11557   0.99126   0.00000  Uiso   1.00
C341   C     0.10827   0.10013   0.95391   0.00000  Uiso   1.00
C342   C     0.04312   0.07559   0.02113   0.00000  Uiso   1.00
C343   C     0.31053   0.18655   0.99243   0.00000  Uiso   1.00
C344   C     0.29829   0.23078   0.95607   0.00000  Uiso   1.00
C345   C     0.32003   0.26600   0.02430   0.00000  Uiso   1.00
H346   H     0.37694   0.12010   0.19536   0.00000  Uiso   1.00
H347   H     0.54900   0.07611   0.13705   0.00000  Uiso   1.00
H348   H     0.20046   0.07555   0.23756   0.00000  Uiso   1.00
H349   H     0.39046   0.20618   0.23972   0.00000  Uiso   1.00
H350   H     0.72528   0.03119   0.02790   0.00000  Uiso   1.00
H351   H     0.99035   0.03001   0.23983   0.00000  Uiso   1.00
H352   H     0.39099   0.30548   0.24440   0.00000  Uiso   1.00
H353   H     0.26550   0.14982   0.85244   0.00000  Uiso   1.00
H354   H     0.43145   0.10747   0.77531   0.00000  Uiso   1.00
H355   H     0.08291   0.10690   0.87582   0.00000  Uiso   1.00
H356   H     0.27291   0.23754   0.87798   0.00000  Uiso   1.00
H357   H     0.62987   0.05664   0.73430   0.00000  Uiso   1.00
H358   H     0.89494   0.05546   0.94623   0.00000  Uiso   1.00
H359   H     0.29558   0.33093   0.95079   0.00000  Uiso   1.00
O360   O     0.78874   0.01550   0.83655   0.00000  Uiso   1.00
O361   O     0.82453   0.01397   0.11460   0.00000  Uiso   1.00
O362   O     0.35016   0.37537   0.12059   0.00000  Uiso   1.00
N363   N     0.68006   0.04300   0.96939   0.00000  Uiso   1.00
N364   N     0.99295   0.04189   0.16753   0.00000  Uiso   1.00
N365   N     0.36749   0.29943   0.17180   0.00000  Uiso   1.00
N366   N     0.62873   0.05669   0.81140   0.00000  Uiso   1.00
N367   N     0.94162   0.05559   0.00954   0.00000  Uiso   1.00
N368   N     0.31615   0.31312   0.01382   0.00000  Uiso   1.00
