data_job_03720
_audit_creation_date              2018-12-19
_audit_creation_method            'Materials Studio'
_symmetry_space_group_name_H-M    'P1'
_symmetry_Int_Tables_number       1
_symmetry_cell_setting            triclinic
loop_
_symmetry_equiv_pos_as_xyz
  x,y,z
_cell_length_a                    20.7912
_cell_length_b                    20.7912
_cell_length_c                    13.3973
_cell_angle_alpha                 90.0000
_cell_angle_beta                  90.0000
_cell_angle_gamma                 90.0000
loop_
_atom_site_label
_atom_site_type_symbol
_atom_site_fract_x
_atom_site_fract_y
_atom_site_fract_z
_atom_site_U_iso_or_equiv
_atom_site_adp_type
_atom_site_occupancy
C1     C     0.07325   0.79362   0.06537   0.00000  Uiso   1.00
C2     C     0.04252   0.73767   0.12142   0.00000  Uiso   1.00
C3     C     0.01534   0.74079   0.21590   0.00000  Uiso   1.00
C4     C     0.98974   0.68428   0.25422   0.00000  Uiso   1.00
C5     C     0.94182   0.60614   0.34954   0.00000  Uiso   1.00
C6     C     0.14148   0.77221   0.04011   0.00000  Uiso   1.00
C7     C     0.19750   0.80438   0.06622   0.00000  Uiso   1.00
C8     C     0.25520   0.77694   0.03608   0.00000  Uiso   1.00
C9     C     0.36092   0.75245   0.00510   0.00000  Uiso   1.00
C10    C     0.03771   0.79840   0.96608   0.00000  Uiso   1.00
C11    C     0.00649   0.85260   0.92991   0.00000  Uiso   1.00
C12    C     0.97684   0.84722   0.83743   0.00000  Uiso   1.00
C13    C     0.92144   0.86340   0.69150   0.00000  Uiso   1.00
C14    C     0.07612   0.68769   0.96541   0.00000  Uiso   1.00
C15    C     0.04409   0.68013   0.06713   0.00000  Uiso   1.00
C16    C     0.01852   0.62359   0.10531   0.00000  Uiso   1.00
C17    C     0.99130   0.62664   0.19983   0.00000  Uiso   1.00
C18    C     0.14304   0.71467   0.98582   0.00000  Uiso   1.00
C19    C     0.20068   0.68718   0.95563   0.00000  Uiso   1.00
C20    C     0.25676   0.71930   0.98169   0.00000  Uiso   1.00
C21    C     0.03927   0.74086   0.91178   0.00000  Uiso   1.00
C22    C     0.00967   0.73540   0.81933   0.00000  Uiso   1.00
C23    C     0.97841   0.78958   0.78304   0.00000  Uiso   1.00
H24    H     0.07203   0.83842   0.10764   0.00000  Uiso   1.00
H25    H     0.01414   0.78533   0.25790   0.00000  Uiso   1.00
H26    H     0.19627   0.84891   0.10823   0.00000  Uiso   1.00
H27    H     0.00529   0.89712   0.97195   0.00000  Uiso   1.00
H28    H     0.95067   0.70109   0.40056   0.00000  Uiso   1.00
H29    H     0.33470   0.83516   0.08495   0.00000  Uiso   1.00
H30    H     0.93198   0.93683   0.79757   0.00000  Uiso   1.00
H31    H     0.07734   0.64289   0.92314   0.00000  Uiso   1.00
H32    H     0.01973   0.57907   0.06328   0.00000  Uiso   1.00
H33    H     0.20187   0.64265   0.91361   0.00000  Uiso   1.00
H34    H     0.01089   0.69086   0.77733   0.00000  Uiso   1.00
H35    H     0.95521   0.53369   0.24261   0.00000  Uiso   1.00
H36    H     0.33924   0.66776   0.92699   0.00000  Uiso   1.00
H37    H     0.93652   0.76942   0.63962   0.00000  Uiso   1.00
O38    O     0.91497   0.57893   0.41711   0.00000  Uiso   1.00
O39    O     0.41880   0.75483   0.00302   0.00000  Uiso   1.00
O40    O     0.89044   0.88821   0.62600   0.00000  Uiso   1.00
N41    N     0.95963   0.67046   0.34415   0.00000  Uiso   1.00
N42    N     0.31868   0.79580   0.04908   0.00000  Uiso   1.00
N43    N     0.94219   0.89085   0.78040   0.00000  Uiso   1.00
N44    N     0.96207   0.58038   0.25915   0.00000  Uiso   1.00
N45    N     0.32112   0.70572   0.96408   0.00000  Uiso   1.00
N46    N     0.94463   0.80077   0.69540   0.00000  Uiso   1.00
C47    C     0.92675   0.20638   0.06537   0.00000  Uiso   1.00
C48    C     0.95748   0.26233   0.12142   0.00000  Uiso   1.00
C49    C     0.98466   0.25921   0.21590   0.00000  Uiso   1.00
C50    C     0.01026   0.31572   0.25422   0.00000  Uiso   1.00
C51    C     0.05818   0.39386   0.34954   0.00000  Uiso   1.00
C52    C     0.85852   0.22779   0.04011   0.00000  Uiso   1.00
C53    C     0.80250   0.19562   0.06622   0.00000  Uiso   1.00
C54    C     0.74480   0.22306   0.03608   0.00000  Uiso   1.00
C55    C     0.63908   0.24755   0.00510   0.00000  Uiso   1.00
C56    C     0.96229   0.20160   0.96608   0.00000  Uiso   1.00
C57    C     0.99351   0.14740   0.92991   0.00000  Uiso   1.00
C58    C     0.02316   0.15278   0.83743   0.00000  Uiso   1.00
C59    C     0.07856   0.13660   0.69150   0.00000  Uiso   1.00
C60    C     0.92388   0.31231   0.96541   0.00000  Uiso   1.00
C61    C     0.95591   0.31987   0.06713   0.00000  Uiso   1.00
C62    C     0.98148   0.37641   0.10531   0.00000  Uiso   1.00
C63    C     0.00870   0.37336   0.19983   0.00000  Uiso   1.00
C64    C     0.85696   0.28533   0.98582   0.00000  Uiso   1.00
C65    C     0.79932   0.31282   0.95563   0.00000  Uiso   1.00
C66    C     0.74324   0.28070   0.98169   0.00000  Uiso   1.00
C67    C     0.96073   0.25914   0.91178   0.00000  Uiso   1.00
C68    C     0.99033   0.26460   0.81933   0.00000  Uiso   1.00
C69    C     0.02159   0.21042   0.78304   0.00000  Uiso   1.00
H70    H     0.92797   0.16158   0.10764   0.00000  Uiso   1.00
H71    H     0.98586   0.21467   0.25790   0.00000  Uiso   1.00
H72    H     0.80373   0.15109   0.10823   0.00000  Uiso   1.00
H73    H     0.99471   0.10288   0.97195   0.00000  Uiso   1.00
H74    H     0.04933   0.29891   0.40056   0.00000  Uiso   1.00
H75    H     0.66530   0.16484   0.08495   0.00000  Uiso   1.00
H76    H     0.06802   0.06317   0.79757   0.00000  Uiso   1.00
H77    H     0.92266   0.35711   0.92314   0.00000  Uiso   1.00
H78    H     0.98027   0.42093   0.06328   0.00000  Uiso   1.00
H79    H     0.79813   0.35735   0.91361   0.00000  Uiso   1.00
H80    H     0.98911   0.30914   0.77733   0.00000  Uiso   1.00
H81    H     0.04479   0.46631   0.24261   0.00000  Uiso   1.00
H82    H     0.66076   0.33224   0.92699   0.00000  Uiso   1.00
H83    H     0.06348   0.23058   0.63962   0.00000  Uiso   1.00
O84    O     0.08503   0.42107   0.41711   0.00000  Uiso   1.00
O85    O     0.58120   0.24517   0.00302   0.00000  Uiso   1.00
O86    O     0.10956   0.11179   0.62600   0.00000  Uiso   1.00
N87    N     0.04037   0.32954   0.34415   0.00000  Uiso   1.00
N88    N     0.68132   0.20420   0.04908   0.00000  Uiso   1.00
N89    N     0.05781   0.10915   0.78040   0.00000  Uiso   1.00
N90    N     0.03793   0.41962   0.25915   0.00000  Uiso   1.00
N91    N     0.67888   0.29428   0.96408   0.00000  Uiso   1.00
N92    N     0.05537   0.19923   0.69540   0.00000  Uiso   1.00
C93    C     0.79362   0.92675   0.93463   0.00000  Uiso   1.00
C94    C     0.73767   0.95748   0.87858   0.00000  Uiso   1.00
C95    C     0.74079   0.98466   0.78410   0.00000  Uiso   1.00
C96    C     0.68428   0.01026   0.74578   0.00000  Uiso   1.00
C97    C     0.60614   0.05818   0.65046   0.00000  Uiso   1.00
C98    C     0.77221   0.85852   0.95989   0.00000  Uiso   1.00
C99    C     0.80438   0.80250   0.93378   0.00000  Uiso   1.00
C100   C     0.77694   0.74480   0.96392   0.00000  Uiso   1.00
C101   C     0.75245   0.63908   0.99490   0.00000  Uiso   1.00
C102   C     0.79840   0.96229   0.03392   0.00000  Uiso   1.00
C103   C     0.85260   0.99351   0.07009   0.00000  Uiso   1.00
C104   C     0.84722   0.02316   0.16257   0.00000  Uiso   1.00
C105   C     0.86340   0.07856   0.30850   0.00000  Uiso   1.00
C106   C     0.68769   0.92388   0.03459   0.00000  Uiso   1.00
C107   C     0.68013   0.95591   0.93287   0.00000  Uiso   1.00
C108   C     0.62359   0.98148   0.89469   0.00000  Uiso   1.00
C109   C     0.62664   0.00870   0.80017   0.00000  Uiso   1.00
C110   C     0.71467   0.85696   0.01418   0.00000  Uiso   1.00
C111   C     0.68718   0.79932   0.04437   0.00000  Uiso   1.00
C112   C     0.71930   0.74324   0.01831   0.00000  Uiso   1.00
C113   C     0.74086   0.96073   0.08822   0.00000  Uiso   1.00
C114   C     0.73540   0.99033   0.18067   0.00000  Uiso   1.00
C115   C     0.78958   0.02159   0.21696   0.00000  Uiso   1.00
H116   H     0.83842   0.92797   0.89236   0.00000  Uiso   1.00
H117   H     0.78533   0.98586   0.74210   0.00000  Uiso   1.00
H118   H     0.84891   0.80373   0.89177   0.00000  Uiso   1.00
H119   H     0.89712   0.99471   0.02805   0.00000  Uiso   1.00
H120   H     0.70109   0.04933   0.59944   0.00000  Uiso   1.00
H121   H     0.83516   0.66530   0.91505   0.00000  Uiso   1.00
H122   H     0.93683   0.06802   0.20243   0.00000  Uiso   1.00
H123   H     0.64289   0.92266   0.07686   0.00000  Uiso   1.00
H124   H     0.57907   0.98027   0.93672   0.00000  Uiso   1.00
H125   H     0.64265   0.79813   0.08639   0.00000  Uiso   1.00
H126   H     0.69086   0.98911   0.22267   0.00000  Uiso   1.00
H127   H     0.53369   0.04479   0.75739   0.00000  Uiso   1.00
H128   H     0.66776   0.66076   0.07301   0.00000  Uiso   1.00
H129   H     0.76942   0.06348   0.36038   0.00000  Uiso   1.00
O130   O     0.57893   0.08503   0.58289   0.00000  Uiso   1.00
O131   O     0.75483   0.58120   0.99698   0.00000  Uiso   1.00
O132   O     0.88821   0.10956   0.37400   0.00000  Uiso   1.00
N133   N     0.67046   0.04037   0.65585   0.00000  Uiso   1.00
N134   N     0.79580   0.68132   0.95092   0.00000  Uiso   1.00
N135   N     0.89085   0.05781   0.21960   0.00000  Uiso   1.00
N136   N     0.58038   0.03793   0.74085   0.00000  Uiso   1.00
N137   N     0.70572   0.67888   0.03592   0.00000  Uiso   1.00
N138   N     0.80077   0.05537   0.30460   0.00000  Uiso   1.00
C139   C     0.20638   0.07325   0.93463   0.00000  Uiso   1.00
C140   C     0.26233   0.04252   0.87858   0.00000  Uiso   1.00
C141   C     0.25921   0.01534   0.78410   0.00000  Uiso   1.00
C142   C     0.31572   0.98974   0.74578   0.00000  Uiso   1.00
C143   C     0.39386   0.94182   0.65046   0.00000  Uiso   1.00
C144   C     0.22779   0.14148   0.95989   0.00000  Uiso   1.00
C145   C     0.19562   0.19750   0.93378   0.00000  Uiso   1.00
C146   C     0.22306   0.25520   0.96392   0.00000  Uiso   1.00
C147   C     0.24755   0.36092   0.99490   0.00000  Uiso   1.00
C148   C     0.20160   0.03771   0.03392   0.00000  Uiso   1.00
C149   C     0.14740   0.00649   0.07009   0.00000  Uiso   1.00
C150   C     0.15278   0.97684   0.16257   0.00000  Uiso   1.00
C151   C     0.13660   0.92144   0.30850   0.00000  Uiso   1.00
C152   C     0.31231   0.07612   0.03459   0.00000  Uiso   1.00
C153   C     0.31987   0.04409   0.93287   0.00000  Uiso   1.00
C154   C     0.37641   0.01852   0.89469   0.00000  Uiso   1.00
C155   C     0.37336   0.99130   0.80017   0.00000  Uiso   1.00
C156   C     0.28533   0.14304   0.01418   0.00000  Uiso   1.00
C157   C     0.31282   0.20068   0.04437   0.00000  Uiso   1.00
C158   C     0.28070   0.25676   0.01831   0.00000  Uiso   1.00
C159   C     0.25914   0.03927   0.08822   0.00000  Uiso   1.00
C160   C     0.26460   0.00967   0.18067   0.00000  Uiso   1.00
C161   C     0.21042   0.97841   0.21696   0.00000  Uiso   1.00
H162   H     0.16158   0.07203   0.89236   0.00000  Uiso   1.00
H163   H     0.21467   0.01414   0.74210   0.00000  Uiso   1.00
H164   H     0.15109   0.19627   0.89177   0.00000  Uiso   1.00
H165   H     0.10288   0.00529   0.02805   0.00000  Uiso   1.00
H166   H     0.29891   0.95067   0.59944   0.00000  Uiso   1.00
H167   H     0.16484   0.33470   0.91505   0.00000  Uiso   1.00
H168   H     0.06317   0.93198   0.20243   0.00000  Uiso   1.00
H169   H     0.35711   0.07734   0.07686   0.00000  Uiso   1.00
H170   H     0.42093   0.01973   0.93672   0.00000  Uiso   1.00
H171   H     0.35735   0.20187   0.08639   0.00000  Uiso   1.00
H172   H     0.30914   0.01089   0.22267   0.00000  Uiso   1.00
H173   H     0.46631   0.95521   0.75739   0.00000  Uiso   1.00
H174   H     0.33224   0.33924   0.07301   0.00000  Uiso   1.00
H175   H     0.23058   0.93652   0.36038   0.00000  Uiso   1.00
O176   O     0.42107   0.91497   0.58289   0.00000  Uiso   1.00
O177   O     0.24517   0.41880   0.99698   0.00000  Uiso   1.00
O178   O     0.11179   0.89044   0.37400   0.00000  Uiso   1.00
N179   N     0.32954   0.95963   0.65585   0.00000  Uiso   1.00
N180   N     0.20420   0.31868   0.95092   0.00000  Uiso   1.00
N181   N     0.10915   0.94219   0.21960   0.00000  Uiso   1.00
N182   N     0.41962   0.96207   0.74085   0.00000  Uiso   1.00
N183   N     0.29428   0.32112   0.03592   0.00000  Uiso   1.00
N184   N     0.19923   0.94463   0.30460   0.00000  Uiso   1.00
C185   C     0.42675   0.29362   0.43463   0.00000  Uiso   1.00
C186   C     0.45748   0.23767   0.37858   0.00000  Uiso   1.00
C187   C     0.48466   0.24079   0.28410   0.00000  Uiso   1.00
C188   C     0.51026   0.18428   0.24578   0.00000  Uiso   1.00
C189   C     0.55818   0.10614   0.15046   0.00000  Uiso   1.00
C190   C     0.35852   0.27221   0.45989   0.00000  Uiso   1.00
C191   C     0.30250   0.30438   0.43378   0.00000  Uiso   1.00
C192   C     0.24480   0.27694   0.46392   0.00000  Uiso   1.00
C193   C     0.13908   0.25245   0.49490   0.00000  Uiso   1.00
C194   C     0.46229   0.29840   0.53392   0.00000  Uiso   1.00
C195   C     0.49351   0.35260   0.57009   0.00000  Uiso   1.00
C196   C     0.52316   0.34722   0.66257   0.00000  Uiso   1.00
C197   C     0.57856   0.36340   0.80850   0.00000  Uiso   1.00
C198   C     0.42388   0.18769   0.53459   0.00000  Uiso   1.00
C199   C     0.45591   0.18013   0.43287   0.00000  Uiso   1.00
C200   C     0.48148   0.12359   0.39469   0.00000  Uiso   1.00
C201   C     0.50870   0.12664   0.30017   0.00000  Uiso   1.00
C202   C     0.35696   0.21467   0.51418   0.00000  Uiso   1.00
C203   C     0.29932   0.18718   0.54437   0.00000  Uiso   1.00
C204   C     0.24324   0.21930   0.51831   0.00000  Uiso   1.00
C205   C     0.46073   0.24086   0.58822   0.00000  Uiso   1.00
C206   C     0.49033   0.23540   0.68067   0.00000  Uiso   1.00
C207   C     0.52159   0.28958   0.71696   0.00000  Uiso   1.00
H208   H     0.42797   0.33842   0.39236   0.00000  Uiso   1.00
H209   H     0.48586   0.28533   0.24210   0.00000  Uiso   1.00
H210   H     0.30373   0.34891   0.39177   0.00000  Uiso   1.00
H211   H     0.49471   0.39712   0.52805   0.00000  Uiso   1.00
H212   H     0.54933   0.20109   0.09944   0.00000  Uiso   1.00
H213   H     0.16530   0.33516   0.41505   0.00000  Uiso   1.00
H214   H     0.56802   0.43683   0.70243   0.00000  Uiso   1.00
H215   H     0.42266   0.14289   0.57686   0.00000  Uiso   1.00
H216   H     0.48027   0.07907   0.43672   0.00000  Uiso   1.00
H217   H     0.29813   0.14265   0.58639   0.00000  Uiso   1.00
H218   H     0.48911   0.19086   0.72267   0.00000  Uiso   1.00
H219   H     0.54479   0.03369   0.25739   0.00000  Uiso   1.00
H220   H     0.16076   0.16776   0.57301   0.00000  Uiso   1.00
H221   H     0.56348   0.26942   0.86038   0.00000  Uiso   1.00
O222   O     0.58503   0.07893   0.08289   0.00000  Uiso   1.00
O223   O     0.08120   0.25483   0.49698   0.00000  Uiso   1.00
O224   O     0.60956   0.38821   0.87400   0.00000  Uiso   1.00
N225   N     0.54037   0.17046   0.15585   0.00000  Uiso   1.00
N226   N     0.18132   0.29580   0.45092   0.00000  Uiso   1.00
N227   N     0.55781   0.39085   0.71960   0.00000  Uiso   1.00
N228   N     0.53793   0.08038   0.24085   0.00000  Uiso   1.00
N229   N     0.17888   0.20572   0.53592   0.00000  Uiso   1.00
N230   N     0.55537   0.30077   0.80460   0.00000  Uiso   1.00
C231   C     0.57325   0.70638   0.43463   0.00000  Uiso   1.00
C232   C     0.54252   0.76233   0.37858   0.00000  Uiso   1.00
C233   C     0.51534   0.75921   0.28410   0.00000  Uiso   1.00
C234   C     0.48974   0.81572   0.24578   0.00000  Uiso   1.00
C235   C     0.44182   0.89386   0.15046   0.00000  Uiso   1.00
C236   C     0.64148   0.72779   0.45989   0.00000  Uiso   1.00
C237   C     0.69750   0.69562   0.43378   0.00000  Uiso   1.00
C238   C     0.75520   0.72306   0.46392   0.00000  Uiso   1.00
C239   C     0.86092   0.74755   0.49490   0.00000  Uiso   1.00
C240   C     0.53771   0.70160   0.53392   0.00000  Uiso   1.00
C241   C     0.50649   0.64740   0.57009   0.00000  Uiso   1.00
C242   C     0.47684   0.65278   0.66257   0.00000  Uiso   1.00
C243   C     0.42144   0.63660   0.80850   0.00000  Uiso   1.00
C244   C     0.57612   0.81231   0.53459   0.00000  Uiso   1.00
C245   C     0.54409   0.81987   0.43287   0.00000  Uiso   1.00
C246   C     0.51852   0.87641   0.39469   0.00000  Uiso   1.00
C247   C     0.49130   0.87336   0.30017   0.00000  Uiso   1.00
C248   C     0.64304   0.78533   0.51418   0.00000  Uiso   1.00
C249   C     0.70068   0.81282   0.54437   0.00000  Uiso   1.00
C250   C     0.75676   0.78070   0.51831   0.00000  Uiso   1.00
C251   C     0.53927   0.75914   0.58822   0.00000  Uiso   1.00
C252   C     0.50967   0.76460   0.68067   0.00000  Uiso   1.00
C253   C     0.47841   0.71042   0.71696   0.00000  Uiso   1.00
H254   H     0.57203   0.66158   0.39236   0.00000  Uiso   1.00
H255   H     0.51414   0.71467   0.24210   0.00000  Uiso   1.00
H256   H     0.69627   0.65109   0.39177   0.00000  Uiso   1.00
H257   H     0.50529   0.60288   0.52805   0.00000  Uiso   1.00
H258   H     0.45067   0.79891   0.09944   0.00000  Uiso   1.00
H259   H     0.83470   0.66484   0.41505   0.00000  Uiso   1.00
H260   H     0.43198   0.56317   0.70243   0.00000  Uiso   1.00
H261   H     0.57734   0.85711   0.57686   0.00000  Uiso   1.00
H262   H     0.51973   0.92093   0.43672   0.00000  Uiso   1.00
H263   H     0.70187   0.85735   0.58639   0.00000  Uiso   1.00
H264   H     0.51089   0.80914   0.72267   0.00000  Uiso   1.00
H265   H     0.45521   0.96631   0.25739   0.00000  Uiso   1.00
H266   H     0.83924   0.83224   0.57301   0.00000  Uiso   1.00
H267   H     0.43652   0.73058   0.86038   0.00000  Uiso   1.00
O268   O     0.41497   0.92107   0.08289   0.00000  Uiso   1.00
O269   O     0.91880   0.74517   0.49698   0.00000  Uiso   1.00
O270   O     0.39044   0.61179   0.87400   0.00000  Uiso   1.00
N271   N     0.45963   0.82954   0.15585   0.00000  Uiso   1.00
N272   N     0.81868   0.70420   0.45092   0.00000  Uiso   1.00
N273   N     0.44219   0.60915   0.71960   0.00000  Uiso   1.00
N274   N     0.46207   0.91962   0.24085   0.00000  Uiso   1.00
N275   N     0.82112   0.79428   0.53592   0.00000  Uiso   1.00
N276   N     0.44463   0.69923   0.80460   0.00000  Uiso   1.00
C277   C     0.70638   0.42675   0.56537   0.00000  Uiso   1.00
C278   C     0.76233   0.45748   0.62142   0.00000  Uiso   1.00
C279   C     0.75921   0.48466   0.71590   0.00000  Uiso   1.00
C280   C     0.81572   0.51026   0.75422   0.00000  Uiso   1.00
C281   C     0.89386   0.55818   0.84954   0.00000  Uiso   1.00
C282   C     0.72779   0.35852   0.54011   0.00000  Uiso   1.00
C283   C     0.69562   0.30250   0.56622   0.00000  Uiso   1.00
C284   C     0.72306   0.24480   0.53608   0.00000  Uiso   1.00
C285   C     0.74755   0.13908   0.50510   0.00000  Uiso   1.00
C286   C     0.70160   0.46229   0.46608   0.00000  Uiso   1.00
C287   C     0.64740   0.49351   0.42991   0.00000  Uiso   1.00
C288   C     0.65278   0.52316   0.33743   0.00000  Uiso   1.00
C289   C     0.63660   0.57856   0.19150   0.00000  Uiso   1.00
C290   C     0.81231   0.42388   0.46541   0.00000  Uiso   1.00
C291   C     0.81987   0.45591   0.56713   0.00000  Uiso   1.00
C292   C     0.87641   0.48148   0.60531   0.00000  Uiso   1.00
C293   C     0.87336   0.50870   0.69983   0.00000  Uiso   1.00
C294   C     0.78533   0.35696   0.48582   0.00000  Uiso   1.00
C295   C     0.81282   0.29932   0.45563   0.00000  Uiso   1.00
C296   C     0.78070   0.24324   0.48169   0.00000  Uiso   1.00
C297   C     0.75914   0.46073   0.41178   0.00000  Uiso   1.00
C298   C     0.76460   0.49033   0.31933   0.00000  Uiso   1.00
C299   C     0.71042   0.52159   0.28304   0.00000  Uiso   1.00
H300   H     0.66158   0.42797   0.60764   0.00000  Uiso   1.00
H301   H     0.71467   0.48586   0.75790   0.00000  Uiso   1.00
H302   H     0.65109   0.30373   0.60823   0.00000  Uiso   1.00
H303   H     0.60288   0.49471   0.47195   0.00000  Uiso   1.00
H304   H     0.79891   0.54933   0.90056   0.00000  Uiso   1.00
H305   H     0.66484   0.16530   0.58495   0.00000  Uiso   1.00
H306   H     0.56317   0.56802   0.29757   0.00000  Uiso   1.00
H307   H     0.85711   0.42266   0.42314   0.00000  Uiso   1.00
H308   H     0.92093   0.48027   0.56328   0.00000  Uiso   1.00
H309   H     0.85735   0.29813   0.41361   0.00000  Uiso   1.00
H310   H     0.80914   0.48911   0.27733   0.00000  Uiso   1.00
H311   H     0.96631   0.54479   0.74261   0.00000  Uiso   1.00
H312   H     0.83224   0.16076   0.42699   0.00000  Uiso   1.00
H313   H     0.73058   0.56348   0.13962   0.00000  Uiso   1.00
O314   O     0.92107   0.58503   0.91711   0.00000  Uiso   1.00
O315   O     0.74517   0.08120   0.50302   0.00000  Uiso   1.00
O316   O     0.61179   0.60956   0.12600   0.00000  Uiso   1.00
N317   N     0.82954   0.54037   0.84415   0.00000  Uiso   1.00
N318   N     0.70420   0.18132   0.54908   0.00000  Uiso   1.00
N319   N     0.60915   0.55781   0.28040   0.00000  Uiso   1.00
N320   N     0.91962   0.53793   0.75915   0.00000  Uiso   1.00
N321   N     0.79428   0.17888   0.46408   0.00000  Uiso   1.00
N322   N     0.69923   0.55537   0.19540   0.00000  Uiso   1.00
C323   C     0.29362   0.57325   0.56537   0.00000  Uiso   1.00
C324   C     0.23767   0.54252   0.62142   0.00000  Uiso   1.00
C325   C     0.24079   0.51534   0.71590   0.00000  Uiso   1.00
C326   C     0.18428   0.48974   0.75422   0.00000  Uiso   1.00
C327   C     0.10614   0.44182   0.84954   0.00000  Uiso   1.00
C328   C     0.27221   0.64148   0.54011   0.00000  Uiso   1.00
C329   C     0.30438   0.69750   0.56622   0.00000  Uiso   1.00
C330   C     0.27694   0.75520   0.53608   0.00000  Uiso   1.00
C331   C     0.25245   0.86092   0.50510   0.00000  Uiso   1.00
C332   C     0.29840   0.53771   0.46608   0.00000  Uiso   1.00
C333   C     0.35260   0.50649   0.42991   0.00000  Uiso   1.00
C334   C     0.34722   0.47684   0.33743   0.00000  Uiso   1.00
C335   C     0.36340   0.42144   0.19150   0.00000  Uiso   1.00
C336   C     0.18769   0.57612   0.46541   0.00000  Uiso   1.00
C337   C     0.18013   0.54409   0.56713   0.00000  Uiso   1.00
C338   C     0.12359   0.51852   0.60531   0.00000  Uiso   1.00
C339   C     0.12664   0.49130   0.69983   0.00000  Uiso   1.00
C340   C     0.21467   0.64304   0.48582   0.00000  Uiso   1.00
C341   C     0.18718   0.70068   0.45563   0.00000  Uiso   1.00
C342   C     0.21930   0.75676   0.48169   0.00000  Uiso   1.00
C343   C     0.24086   0.53927   0.41178   0.00000  Uiso   1.00
C344   C     0.23540   0.50967   0.31933   0.00000  Uiso   1.00
C345   C     0.28958   0.47841   0.28304   0.00000  Uiso   1.00
H346   H     0.33842   0.57203   0.60764   0.00000  Uiso   1.00
H347   H     0.28533   0.51414   0.75790   0.00000  Uiso   1.00
H348   H     0.34891   0.69627   0.60823   0.00000  Uiso   1.00
H349   H     0.39712   0.50529   0.47195   0.00000  Uiso   1.00
H350   H     0.20109   0.45067   0.90056   0.00000  Uiso   1.00
H351   H     0.33516   0.83470   0.58495   0.00000  Uiso   1.00
H352   H     0.43683   0.43198   0.29757   0.00000  Uiso   1.00
H353   H     0.14289   0.57734   0.42314   0.00000  Uiso   1.00
H354   H     0.07907   0.51973   0.56328   0.00000  Uiso   1.00
H355   H     0.14265   0.70187   0.41361   0.00000  Uiso   1.00
H356   H     0.19086   0.51089   0.27733   0.00000  Uiso   1.00
H357   H     0.03369   0.45521   0.74261   0.00000  Uiso   1.00
H358   H     0.16776   0.83924   0.42699   0.00000  Uiso   1.00
H359   H     0.26942   0.43652   0.13962   0.00000  Uiso   1.00
O360   O     0.07893   0.41497   0.91711   0.00000  Uiso   1.00
O361   O     0.25483   0.91880   0.50302   0.00000  Uiso   1.00
O362   O     0.38821   0.39044   0.12600   0.00000  Uiso   1.00
N363   N     0.17046   0.45963   0.84415   0.00000  Uiso   1.00
N364   N     0.29580   0.81868   0.54908   0.00000  Uiso   1.00
N365   N     0.39085   0.44219   0.28040   0.00000  Uiso   1.00
N366   N     0.08038   0.46207   0.75915   0.00000  Uiso   1.00
N367   N     0.20572   0.82112   0.46408   0.00000  Uiso   1.00
N368   N     0.30077   0.44463   0.19540   0.00000  Uiso   1.00
