data_job_03363
_audit_creation_date              2018-12-19
_audit_creation_method            'Materials Studio'
_symmetry_space_group_name_H-M    'P1'
_symmetry_Int_Tables_number       1
_symmetry_cell_setting            triclinic
loop_
_symmetry_equiv_pos_as_xyz
  x,y,z
_cell_length_a                    21.3862
_cell_length_b                    25.4467
_cell_length_c                    13.8187
_cell_angle_alpha                 90.0000
_cell_angle_beta                  146.5877
_cell_angle_gamma                 90.0000
loop_
_atom_site_label
_atom_site_type_symbol
_atom_site_fract_x
_atom_site_fract_y
_atom_site_fract_z
_atom_site_U_iso_or_equiv
_atom_site_adp_type
_atom_site_occupancy
C1     C     0.35560   0.12173   0.82023   0.00000  Uiso   1.00
C2     C     0.24435   0.10390   0.63058   0.00000  Uiso   1.00
C3     C     0.15491   0.07985   0.56313   0.00000  Uiso   1.00
C4     C     0.06049   0.06652   0.38622   0.00000  Uiso   1.00
C5     C     0.88848   0.03722   0.10781   0.00000  Uiso   1.00
C6     C     0.44982   0.09430   0.88557   0.00000  Uiso   1.00
C7     C     0.53314   0.06218   0.03253   0.00000  Uiso   1.00
C8     C     0.61169   0.04077   0.07028   0.00000  Uiso   1.00
C9     C     0.75872   0.99660   0.18781   0.00000  Uiso   1.00
C10    C     0.36673   0.18010   0.81145   0.00000  Uiso   1.00
C11    C     0.38022   0.22012   0.89612   0.00000  Uiso   1.00
C12    C     0.38884   0.27096   0.87151   0.00000  Uiso   1.00
C13    C     0.40687   0.36000   0.87396   0.00000  Uiso   1.00
C14    C     0.34697   0.14084   0.62599   0.00000  Uiso   1.00
C15    C     0.23966   0.11428   0.52508   0.00000  Uiso   1.00
C16    C     0.14535   0.10099   0.34823   0.00000  Uiso   1.00
C17    C     0.05578   0.07692   0.28053   0.00000  Uiso   1.00
C18    C     0.44513   0.10468   0.78007   0.00000  Uiso   1.00
C19    C     0.52358   0.08332   0.81762   0.00000  Uiso   1.00
C20    C     0.60699   0.05117   0.96459   0.00000  Uiso   1.00
C21    C     0.36204   0.19048   0.70594   0.00000  Uiso   1.00
C22    C     0.37065   0.24126   0.68121   0.00000  Uiso   1.00
C23    C     0.38415   0.28135   0.76582   0.00000  Uiso   1.00
H24    H     0.35926   0.11365   0.90238   0.00000  Uiso   1.00
H25    H     0.15858   0.07181   0.64483   0.00000  Uiso   1.00
H26    H     0.53675   0.05416   0.11415   0.00000  Uiso   1.00
H27    H     0.38385   0.21207   0.97776   0.00000  Uiso   1.00
H28    H     0.93403   0.02999   0.31277   0.00000  Uiso   1.00
H29    H     0.73145   0.99277   0.30241   0.00000  Uiso   1.00
H30    H     0.40903   0.32577   0.01480   0.00000  Uiso   1.00
H31    H     0.34332   0.14893   0.54385   0.00000  Uiso   1.00
H32    H     0.14175   0.10902   0.26661   0.00000  Uiso   1.00
H33    H     0.51993   0.09136   0.73595   0.00000  Uiso   1.00
H34    H     0.36702   0.24928   0.59955   0.00000  Uiso   1.00
H35    H     0.92037   0.06019   0.00580   0.00000  Uiso   1.00
H36    H     0.71780   0.02297   0.99545   0.00000  Uiso   1.00
H37    H     0.39537   0.35597   0.70783   0.00000  Uiso   1.00
O38    O     0.79490   0.01819   0.98339   0.00000  Uiso   1.00
O39    O     0.84111   0.96936   0.28178   0.00000  Uiso   1.00
O40    O     0.41809   0.40625   0.90443   0.00000  Uiso   1.00
N41    N     0.95846   0.04258   0.27856   0.00000  Uiso   1.00
N42    N     0.70400   0.00777   0.20380   0.00000  Uiso   1.00
N43    N     0.40259   0.31910   0.93495   0.00000  Uiso   1.00
N44    N     0.95111   0.05883   0.11338   0.00000  Uiso   1.00
N45    N     0.69665   0.02402   0.03862   0.00000  Uiso   1.00
N46    N     0.39524   0.33535   0.76977   0.00000  Uiso   1.00
C47    C     0.85560   0.62173   0.82023   0.00000  Uiso   1.00
C48    C     0.74435   0.60390   0.63058   0.00000  Uiso   1.00
C49    C     0.65491   0.57985   0.56313   0.00000  Uiso   1.00
C50    C     0.56049   0.56652   0.38622   0.00000  Uiso   1.00
C51    C     0.38848   0.53722   0.10781   0.00000  Uiso   1.00
C52    C     0.94982   0.59430   0.88557   0.00000  Uiso   1.00
C53    C     0.03314   0.56218   0.03253   0.00000  Uiso   1.00
C54    C     0.11169   0.54077   0.07028   0.00000  Uiso   1.00
C55    C     0.25872   0.49660   0.18781   0.00000  Uiso   1.00
C56    C     0.86673   0.68010   0.81145   0.00000  Uiso   1.00
C57    C     0.88022   0.72012   0.89612   0.00000  Uiso   1.00
C58    C     0.88884   0.77096   0.87151   0.00000  Uiso   1.00
C59    C     0.90687   0.86000   0.87396   0.00000  Uiso   1.00
C60    C     0.84697   0.64084   0.62599   0.00000  Uiso   1.00
C61    C     0.73966   0.61428   0.52508   0.00000  Uiso   1.00
C62    C     0.64535   0.60099   0.34823   0.00000  Uiso   1.00
C63    C     0.55578   0.57692   0.28053   0.00000  Uiso   1.00
C64    C     0.94513   0.60468   0.78007   0.00000  Uiso   1.00
C65    C     0.02358   0.58332   0.81762   0.00000  Uiso   1.00
C66    C     0.10699   0.55117   0.96459   0.00000  Uiso   1.00
C67    C     0.86204   0.69048   0.70594   0.00000  Uiso   1.00
C68    C     0.87065   0.74126   0.68121   0.00000  Uiso   1.00
C69    C     0.88415   0.78135   0.76582   0.00000  Uiso   1.00
H70    H     0.85926   0.61365   0.90238   0.00000  Uiso   1.00
H71    H     0.65858   0.57181   0.64483   0.00000  Uiso   1.00
H72    H     0.03675   0.55416   0.11415   0.00000  Uiso   1.00
H73    H     0.88385   0.71207   0.97776   0.00000  Uiso   1.00
H74    H     0.43403   0.52999   0.31277   0.00000  Uiso   1.00
H75    H     0.23145   0.49277   0.30241   0.00000  Uiso   1.00
H76    H     0.90903   0.82577   0.01480   0.00000  Uiso   1.00
H77    H     0.84332   0.64893   0.54385   0.00000  Uiso   1.00
H78    H     0.64175   0.60902   0.26661   0.00000  Uiso   1.00
H79    H     0.01993   0.59136   0.73595   0.00000  Uiso   1.00
H80    H     0.86702   0.74928   0.59955   0.00000  Uiso   1.00
H81    H     0.42037   0.56019   0.00580   0.00000  Uiso   1.00
H82    H     0.21780   0.52297   0.99545   0.00000  Uiso   1.00
H83    H     0.89537   0.85597   0.70783   0.00000  Uiso   1.00
O84    O     0.29490   0.51819   0.98339   0.00000  Uiso   1.00
O85    O     0.34111   0.46936   0.28178   0.00000  Uiso   1.00
O86    O     0.91809   0.90625   0.90443   0.00000  Uiso   1.00
N87    N     0.45846   0.54258   0.27856   0.00000  Uiso   1.00
N88    N     0.20400   0.50777   0.20380   0.00000  Uiso   1.00
N89    N     0.90259   0.81910   0.93495   0.00000  Uiso   1.00
N90    N     0.45111   0.55883   0.11338   0.00000  Uiso   1.00
N91    N     0.19665   0.52402   0.03862   0.00000  Uiso   1.00
N92    N     0.89524   0.83535   0.76977   0.00000  Uiso   1.00
C93    C     0.35560   0.87827   0.32023   0.00000  Uiso   1.00
C94    C     0.24435   0.89610   0.13058   0.00000  Uiso   1.00
C95    C     0.15491   0.92015   0.06313   0.00000  Uiso   1.00
C96    C     0.06049   0.93348   0.88622   0.00000  Uiso   1.00
C97    C     0.88848   0.96278   0.60781   0.00000  Uiso   1.00
C98    C     0.44982   0.90570   0.38557   0.00000  Uiso   1.00
C99    C     0.53314   0.93782   0.53253   0.00000  Uiso   1.00
C100   C     0.61169   0.95923   0.57028   0.00000  Uiso   1.00
C101   C     0.75872   0.00340   0.68781   0.00000  Uiso   1.00
C102   C     0.36673   0.81990   0.31145   0.00000  Uiso   1.00
C103   C     0.38022   0.77988   0.39612   0.00000  Uiso   1.00
C104   C     0.38884   0.72904   0.37151   0.00000  Uiso   1.00
C105   C     0.40687   0.64000   0.37396   0.00000  Uiso   1.00
C106   C     0.34697   0.85916   0.12599   0.00000  Uiso   1.00
C107   C     0.23966   0.88572   0.02508   0.00000  Uiso   1.00
C108   C     0.14535   0.89901   0.84823   0.00000  Uiso   1.00
C109   C     0.05578   0.92308   0.78053   0.00000  Uiso   1.00
C110   C     0.44513   0.89532   0.28007   0.00000  Uiso   1.00
C111   C     0.52358   0.91668   0.31762   0.00000  Uiso   1.00
C112   C     0.60699   0.94883   0.46459   0.00000  Uiso   1.00
C113   C     0.36204   0.80952   0.20594   0.00000  Uiso   1.00
C114   C     0.37065   0.75874   0.18121   0.00000  Uiso   1.00
C115   C     0.38415   0.71865   0.26582   0.00000  Uiso   1.00
H116   H     0.35926   0.88635   0.40238   0.00000  Uiso   1.00
H117   H     0.15858   0.92819   0.14483   0.00000  Uiso   1.00
H118   H     0.53675   0.94584   0.61415   0.00000  Uiso   1.00
H119   H     0.38385   0.78793   0.47776   0.00000  Uiso   1.00
H120   H     0.93403   0.97001   0.81277   0.00000  Uiso   1.00
H121   H     0.73145   0.00723   0.80241   0.00000  Uiso   1.00
H122   H     0.40903   0.67423   0.51480   0.00000  Uiso   1.00
H123   H     0.34332   0.85107   0.04385   0.00000  Uiso   1.00
H124   H     0.14175   0.89098   0.76661   0.00000  Uiso   1.00
H125   H     0.51993   0.90864   0.23595   0.00000  Uiso   1.00
H126   H     0.36702   0.75072   0.09955   0.00000  Uiso   1.00
H127   H     0.92037   0.93981   0.50580   0.00000  Uiso   1.00
H128   H     0.71780   0.97703   0.49545   0.00000  Uiso   1.00
H129   H     0.39537   0.64403   0.20783   0.00000  Uiso   1.00
O130   O     0.79490   0.98181   0.48339   0.00000  Uiso   1.00
O131   O     0.84111   0.03064   0.78178   0.00000  Uiso   1.00
O132   O     0.41809   0.59375   0.40443   0.00000  Uiso   1.00
N133   N     0.95846   0.95742   0.77856   0.00000  Uiso   1.00
N134   N     0.70400   0.99223   0.70380   0.00000  Uiso   1.00
N135   N     0.40259   0.68090   0.43495   0.00000  Uiso   1.00
N136   N     0.95111   0.94117   0.61338   0.00000  Uiso   1.00
N137   N     0.69665   0.97598   0.53862   0.00000  Uiso   1.00
N138   N     0.39524   0.66465   0.26977   0.00000  Uiso   1.00
C139   C     0.85560   0.37827   0.32023   0.00000  Uiso   1.00
C140   C     0.74435   0.39610   0.13058   0.00000  Uiso   1.00
C141   C     0.65491   0.42015   0.06313   0.00000  Uiso   1.00
C142   C     0.56049   0.43348   0.88622   0.00000  Uiso   1.00
C143   C     0.38848   0.46278   0.60781   0.00000  Uiso   1.00
C144   C     0.94982   0.40570   0.38557   0.00000  Uiso   1.00
C145   C     0.03314   0.43782   0.53253   0.00000  Uiso   1.00
C146   C     0.11169   0.45923   0.57028   0.00000  Uiso   1.00
C147   C     0.25872   0.50340   0.68781   0.00000  Uiso   1.00
C148   C     0.86673   0.31990   0.31145   0.00000  Uiso   1.00
C149   C     0.88022   0.27988   0.39612   0.00000  Uiso   1.00
C150   C     0.88884   0.22904   0.37151   0.00000  Uiso   1.00
C151   C     0.90687   0.14000   0.37396   0.00000  Uiso   1.00
C152   C     0.84697   0.35916   0.12599   0.00000  Uiso   1.00
C153   C     0.73966   0.38572   0.02508   0.00000  Uiso   1.00
C154   C     0.64535   0.39901   0.84823   0.00000  Uiso   1.00
C155   C     0.55578   0.42308   0.78053   0.00000  Uiso   1.00
C156   C     0.94513   0.39532   0.28007   0.00000  Uiso   1.00
C157   C     0.02358   0.41668   0.31762   0.00000  Uiso   1.00
C158   C     0.10699   0.44883   0.46459   0.00000  Uiso   1.00
C159   C     0.86204   0.30952   0.20594   0.00000  Uiso   1.00
C160   C     0.87065   0.25874   0.18121   0.00000  Uiso   1.00
C161   C     0.88415   0.21865   0.26582   0.00000  Uiso   1.00
H162   H     0.85926   0.38635   0.40238   0.00000  Uiso   1.00
H163   H     0.65858   0.42819   0.14483   0.00000  Uiso   1.00
H164   H     0.03675   0.44584   0.61415   0.00000  Uiso   1.00
H165   H     0.88385   0.28793   0.47776   0.00000  Uiso   1.00
H166   H     0.43403   0.47001   0.81277   0.00000  Uiso   1.00
H167   H     0.23145   0.50723   0.80241   0.00000  Uiso   1.00
H168   H     0.90903   0.17423   0.51480   0.00000  Uiso   1.00
H169   H     0.84332   0.35107   0.04385   0.00000  Uiso   1.00
H170   H     0.64175   0.39098   0.76661   0.00000  Uiso   1.00
H171   H     0.01993   0.40864   0.23595   0.00000  Uiso   1.00
H172   H     0.86702   0.25072   0.09955   0.00000  Uiso   1.00
H173   H     0.42037   0.43981   0.50580   0.00000  Uiso   1.00
H174   H     0.21780   0.47703   0.49545   0.00000  Uiso   1.00
H175   H     0.89537   0.14403   0.20783   0.00000  Uiso   1.00
O176   O     0.29490   0.48181   0.48339   0.00000  Uiso   1.00
O177   O     0.34111   0.53064   0.78178   0.00000  Uiso   1.00
O178   O     0.91809   0.09375   0.40443   0.00000  Uiso   1.00
N179   N     0.45846   0.45742   0.77856   0.00000  Uiso   1.00
N180   N     0.20400   0.49223   0.70380   0.00000  Uiso   1.00
N181   N     0.90259   0.18090   0.43495   0.00000  Uiso   1.00
N182   N     0.45111   0.44117   0.61338   0.00000  Uiso   1.00
N183   N     0.19665   0.47598   0.53862   0.00000  Uiso   1.00
N184   N     0.89524   0.16465   0.26977   0.00000  Uiso   1.00
