data_job_04709
_audit_creation_date              2018-12-19
_audit_creation_method            'Materials Studio'
_symmetry_space_group_name_H-M    'P1'
_symmetry_Int_Tables_number       1
_symmetry_cell_setting            triclinic
loop_
_symmetry_equiv_pos_as_xyz
  x,y,z
_cell_length_a                    18.6549
_cell_length_b                    12.3028
_cell_length_c                    28.7631
_cell_angle_alpha                 90.0000
_cell_angle_beta                  56.1655
_cell_angle_gamma                 90.0000
loop_
_atom_site_label
_atom_site_type_symbol
_atom_site_fract_x
_atom_site_fract_y
_atom_site_fract_z
_atom_site_U_iso_or_equiv
_atom_site_adp_type
_atom_site_occupancy
C1     C     0.66179   0.88660   0.15852   0.00000  Uiso   1.00
C2     C     0.67063   0.89201   0.20808   0.00000  Uiso   1.00
C3     C     0.60627   0.86774   0.26322   0.00000  Uiso   1.00
C4     C     0.62715   0.87771   0.30242   0.00000  Uiso   1.00
C5     C     0.62834   0.88113   0.38174   0.00000  Uiso   1.00
C6     C     0.68576   0.99922   0.13187   0.00000  Uiso   1.00
C7     C     0.63412   0.06508   0.12293   0.00000  Uiso   1.00
C8     C     0.66775   0.16530   0.09797   0.00000  Uiso   1.00
C9     C     0.69245   0.33513   0.05892   0.00000  Uiso   1.00
C10    C     0.73285   0.81032   0.11611   0.00000  Uiso   1.00
C11    C     0.72081   0.71735   0.09391   0.00000  Uiso   1.00
C12    C     0.79410   0.65853   0.05567   0.00000  Uiso   1.00
C13    C     0.89191   0.53505   0.99216   0.00000  Uiso   1.00
C14    C     0.81334   0.94749   0.13007   0.00000  Uiso   1.00
C15    C     0.75294   0.92509   0.19263   0.00000  Uiso   1.00
C16    C     0.77394   0.93510   0.23175   0.00000  Uiso   1.00
C17    C     0.70962   0.91084   0.28695   0.00000  Uiso   1.00
C18    C     0.76807   0.03230   0.11642   0.00000  Uiso   1.00
C19    C     0.80179   0.13244   0.09146   0.00000  Uiso   1.00
C20    C     0.75022   0.19843   0.08249   0.00000  Uiso   1.00
C21    C     0.81516   0.84338   0.10066   0.00000  Uiso   1.00
C22    C     0.88848   0.78471   0.06244   0.00000  Uiso   1.00
C23    C     0.87656   0.69166   0.04019   0.00000  Uiso   1.00
H24    H     0.59770   0.86086   0.17054   0.00000  Uiso   1.00
H25    H     0.54257   0.84216   0.27516   0.00000  Uiso   1.00
H26    H     0.57042   0.03946   0.13488   0.00000  Uiso   1.00
H27    H     0.65710   0.69178   0.10587   0.00000  Uiso   1.00
H28    H     0.51773   0.83604   0.38434   0.00000  Uiso   1.00
H29    H     0.57647   0.25204   0.08855   0.00000  Uiso   1.00
H30    H     0.75925   0.51890   0.02737   0.00000  Uiso   1.00
H31    H     0.87743   0.97324   0.11804   0.00000  Uiso   1.00
H32    H     0.83765   0.96069   0.21978   0.00000  Uiso   1.00
H33    H     0.86550   0.15800   0.07951   0.00000  Uiso   1.00
H34    H     0.95218   0.81032   0.05050   0.00000  Uiso   1.00
H35    H     0.75722   0.93225   0.33940   0.00000  Uiso   1.00
H36    H     0.81597   0.34826   0.04360   0.00000  Uiso   1.00
H37    H     0.99875   0.61511   0.98242   0.00000  Uiso   1.00
O38    O     0.60625   0.87390   0.42975   0.00000  Uiso   1.00
O39    O     0.68332   0.41967   0.04166   0.00000  Uiso   1.00
O40    O     0.92312   0.45780   0.96141   0.00000  Uiso   1.00
N41    N     0.57956   0.86038   0.35980   0.00000  Uiso   1.00
N42    N     0.63448   0.24933   0.08325   0.00000  Uiso   1.00
N43    N     0.80536   0.56392   0.02605   0.00000  Uiso   1.00
N44    N     0.70843   0.91215   0.33562   0.00000  Uiso   1.00
N45    N     0.76335   0.30110   0.05907   0.00000  Uiso   1.00
N46    N     0.93423   0.61569   0.00186   0.00000  Uiso   1.00
C47    C     0.16179   0.38660   0.15852   0.00000  Uiso   1.00
C48    C     0.17063   0.39201   0.20808   0.00000  Uiso   1.00
C49    C     0.10627   0.36774   0.26322   0.00000  Uiso   1.00
C50    C     0.12715   0.37771   0.30242   0.00000  Uiso   1.00
C51    C     0.12834   0.38113   0.38174   0.00000  Uiso   1.00
C52    C     0.18576   0.49922   0.13187   0.00000  Uiso   1.00
C53    C     0.13412   0.56508   0.12293   0.00000  Uiso   1.00
C54    C     0.16775   0.66530   0.09797   0.00000  Uiso   1.00
C55    C     0.19245   0.83513   0.05892   0.00000  Uiso   1.00
C56    C     0.23285   0.31032   0.11611   0.00000  Uiso   1.00
C57    C     0.22081   0.21735   0.09391   0.00000  Uiso   1.00
C58    C     0.29410   0.15853   0.05567   0.00000  Uiso   1.00
C59    C     0.39191   0.03505   0.99216   0.00000  Uiso   1.00
C60    C     0.31334   0.44749   0.13007   0.00000  Uiso   1.00
C61    C     0.25294   0.42509   0.19263   0.00000  Uiso   1.00
C62    C     0.27394   0.43510   0.23175   0.00000  Uiso   1.00
C63    C     0.20962   0.41084   0.28695   0.00000  Uiso   1.00
C64    C     0.26807   0.53230   0.11642   0.00000  Uiso   1.00
C65    C     0.30179   0.63244   0.09146   0.00000  Uiso   1.00
C66    C     0.25022   0.69843   0.08249   0.00000  Uiso   1.00
C67    C     0.31516   0.34338   0.10066   0.00000  Uiso   1.00
C68    C     0.38848   0.28471   0.06244   0.00000  Uiso   1.00
C69    C     0.37656   0.19166   0.04019   0.00000  Uiso   1.00
H70    H     0.09770   0.36086   0.17054   0.00000  Uiso   1.00
H71    H     0.04257   0.34216   0.27516   0.00000  Uiso   1.00
H72    H     0.07042   0.53946   0.13488   0.00000  Uiso   1.00
H73    H     0.15710   0.19178   0.10587   0.00000  Uiso   1.00
H74    H     0.01773   0.33604   0.38434   0.00000  Uiso   1.00
H75    H     0.07647   0.75204   0.08855   0.00000  Uiso   1.00
H76    H     0.25925   0.01890   0.02737   0.00000  Uiso   1.00
H77    H     0.37743   0.47324   0.11804   0.00000  Uiso   1.00
H78    H     0.33765   0.46069   0.21978   0.00000  Uiso   1.00
H79    H     0.36550   0.65800   0.07951   0.00000  Uiso   1.00
H80    H     0.45218   0.31032   0.05050   0.00000  Uiso   1.00
H81    H     0.25722   0.43225   0.33940   0.00000  Uiso   1.00
H82    H     0.31597   0.84826   0.04360   0.00000  Uiso   1.00
H83    H     0.49875   0.11511   0.98242   0.00000  Uiso   1.00
O84    O     0.10625   0.37390   0.42975   0.00000  Uiso   1.00
O85    O     0.18332   0.91967   0.04166   0.00000  Uiso   1.00
O86    O     0.42312   0.95780   0.96141   0.00000  Uiso   1.00
N87    N     0.07956   0.36038   0.35980   0.00000  Uiso   1.00
N88    N     0.13448   0.74933   0.08325   0.00000  Uiso   1.00
N89    N     0.30536   0.06392   0.02605   0.00000  Uiso   1.00
N90    N     0.20843   0.41215   0.33562   0.00000  Uiso   1.00
N91    N     0.26335   0.80110   0.05907   0.00000  Uiso   1.00
N92    N     0.43423   0.11569   0.00186   0.00000  Uiso   1.00
C93    C     0.33821   0.88660   0.34148   0.00000  Uiso   1.00
C94    C     0.32937   0.89201   0.29192   0.00000  Uiso   1.00
C95    C     0.39373   0.86774   0.23678   0.00000  Uiso   1.00
C96    C     0.37285   0.87771   0.19758   0.00000  Uiso   1.00
C97    C     0.37166   0.88113   0.11826   0.00000  Uiso   1.00
C98    C     0.31424   0.99922   0.36813   0.00000  Uiso   1.00
C99    C     0.36588   0.06508   0.37707   0.00000  Uiso   1.00
C100   C     0.33225   0.16530   0.40203   0.00000  Uiso   1.00
C101   C     0.30755   0.33513   0.44108   0.00000  Uiso   1.00
C102   C     0.26715   0.81032   0.38389   0.00000  Uiso   1.00
C103   C     0.27919   0.71735   0.40609   0.00000  Uiso   1.00
C104   C     0.20590   0.65853   0.44433   0.00000  Uiso   1.00
C105   C     0.10809   0.53505   0.50784   0.00000  Uiso   1.00
C106   C     0.18666   0.94749   0.36993   0.00000  Uiso   1.00
C107   C     0.24706   0.92509   0.30737   0.00000  Uiso   1.00
C108   C     0.22606   0.93510   0.26825   0.00000  Uiso   1.00
C109   C     0.29038   0.91084   0.21305   0.00000  Uiso   1.00
C110   C     0.23193   0.03230   0.38358   0.00000  Uiso   1.00
C111   C     0.19821   0.13244   0.40854   0.00000  Uiso   1.00
C112   C     0.24978   0.19843   0.41751   0.00000  Uiso   1.00
C113   C     0.18484   0.84338   0.39934   0.00000  Uiso   1.00
C114   C     0.11152   0.78471   0.43756   0.00000  Uiso   1.00
C115   C     0.12344   0.69166   0.45981   0.00000  Uiso   1.00
H116   H     0.40230   0.86086   0.32946   0.00000  Uiso   1.00
H117   H     0.45743   0.84216   0.22484   0.00000  Uiso   1.00
H118   H     0.42958   0.03946   0.36512   0.00000  Uiso   1.00
H119   H     0.34290   0.69178   0.39413   0.00000  Uiso   1.00
H120   H     0.48227   0.83604   0.11566   0.00000  Uiso   1.00
H121   H     0.42353   0.25204   0.41145   0.00000  Uiso   1.00
H122   H     0.24075   0.51890   0.47263   0.00000  Uiso   1.00
H123   H     0.12257   0.97324   0.38196   0.00000  Uiso   1.00
H124   H     0.16235   0.96069   0.28022   0.00000  Uiso   1.00
H125   H     0.13450   0.15800   0.42049   0.00000  Uiso   1.00
H126   H     0.04782   0.81032   0.44950   0.00000  Uiso   1.00
H127   H     0.24278   0.93225   0.16060   0.00000  Uiso   1.00
H128   H     0.18403   0.34826   0.45640   0.00000  Uiso   1.00
H129   H     0.00125   0.61511   0.51758   0.00000  Uiso   1.00
O130   O     0.39375   0.87390   0.07025   0.00000  Uiso   1.00
O131   O     0.31668   0.41967   0.45834   0.00000  Uiso   1.00
O132   O     0.07688   0.45780   0.53859   0.00000  Uiso   1.00
N133   N     0.42044   0.86038   0.14020   0.00000  Uiso   1.00
N134   N     0.36552   0.24933   0.41675   0.00000  Uiso   1.00
N135   N     0.19464   0.56392   0.47395   0.00000  Uiso   1.00
N136   N     0.29157   0.91215   0.16438   0.00000  Uiso   1.00
N137   N     0.23665   0.30110   0.44093   0.00000  Uiso   1.00
N138   N     0.06577   0.61569   0.49814   0.00000  Uiso   1.00
C139   C     0.83821   0.38660   0.34148   0.00000  Uiso   1.00
C140   C     0.82937   0.39201   0.29192   0.00000  Uiso   1.00
C141   C     0.89373   0.36774   0.23678   0.00000  Uiso   1.00
C142   C     0.87285   0.37771   0.19758   0.00000  Uiso   1.00
C143   C     0.87166   0.38113   0.11826   0.00000  Uiso   1.00
C144   C     0.81424   0.49922   0.36813   0.00000  Uiso   1.00
C145   C     0.86588   0.56508   0.37707   0.00000  Uiso   1.00
C146   C     0.83225   0.66530   0.40203   0.00000  Uiso   1.00
C147   C     0.80755   0.83513   0.44108   0.00000  Uiso   1.00
C148   C     0.76715   0.31032   0.38389   0.00000  Uiso   1.00
C149   C     0.77919   0.21735   0.40609   0.00000  Uiso   1.00
C150   C     0.70590   0.15853   0.44433   0.00000  Uiso   1.00
C151   C     0.60809   0.03505   0.50784   0.00000  Uiso   1.00
C152   C     0.68666   0.44749   0.36993   0.00000  Uiso   1.00
C153   C     0.74706   0.42509   0.30737   0.00000  Uiso   1.00
C154   C     0.72606   0.43510   0.26825   0.00000  Uiso   1.00
C155   C     0.79038   0.41084   0.21305   0.00000  Uiso   1.00
C156   C     0.73193   0.53230   0.38358   0.00000  Uiso   1.00
C157   C     0.69821   0.63244   0.40854   0.00000  Uiso   1.00
C158   C     0.74978   0.69843   0.41751   0.00000  Uiso   1.00
C159   C     0.68484   0.34338   0.39934   0.00000  Uiso   1.00
C160   C     0.61152   0.28471   0.43756   0.00000  Uiso   1.00
C161   C     0.62344   0.19166   0.45981   0.00000  Uiso   1.00
H162   H     0.90230   0.36086   0.32946   0.00000  Uiso   1.00
H163   H     0.95743   0.34216   0.22484   0.00000  Uiso   1.00
H164   H     0.92958   0.53946   0.36512   0.00000  Uiso   1.00
H165   H     0.84290   0.19178   0.39413   0.00000  Uiso   1.00
H166   H     0.98227   0.33604   0.11566   0.00000  Uiso   1.00
H167   H     0.92353   0.75204   0.41145   0.00000  Uiso   1.00
H168   H     0.74075   0.01890   0.47263   0.00000  Uiso   1.00
H169   H     0.62257   0.47324   0.38196   0.00000  Uiso   1.00
H170   H     0.66235   0.46069   0.28022   0.00000  Uiso   1.00
H171   H     0.63450   0.65800   0.42049   0.00000  Uiso   1.00
H172   H     0.54782   0.31032   0.44950   0.00000  Uiso   1.00
H173   H     0.74278   0.43225   0.16060   0.00000  Uiso   1.00
H174   H     0.68403   0.84826   0.45640   0.00000  Uiso   1.00
H175   H     0.50125   0.11511   0.51758   0.00000  Uiso   1.00
O176   O     0.89375   0.37390   0.07025   0.00000  Uiso   1.00
O177   O     0.81668   0.91967   0.45834   0.00000  Uiso   1.00
O178   O     0.57688   0.95780   0.53859   0.00000  Uiso   1.00
N179   N     0.92044   0.36038   0.14020   0.00000  Uiso   1.00
N180   N     0.86552   0.74933   0.41675   0.00000  Uiso   1.00
N181   N     0.69464   0.06392   0.47395   0.00000  Uiso   1.00
N182   N     0.79157   0.41215   0.16438   0.00000  Uiso   1.00
N183   N     0.73665   0.80110   0.44093   0.00000  Uiso   1.00
N184   N     0.56577   0.11569   0.49814   0.00000  Uiso   1.00
C185   C     0.33821   0.11340   0.84148   0.00000  Uiso   1.00
C186   C     0.32937   0.10799   0.79192   0.00000  Uiso   1.00
C187   C     0.39373   0.13226   0.73678   0.00000  Uiso   1.00
C188   C     0.37285   0.12229   0.69758   0.00000  Uiso   1.00
C189   C     0.37166   0.11887   0.61826   0.00000  Uiso   1.00
C190   C     0.31424   0.00078   0.86813   0.00000  Uiso   1.00
C191   C     0.36588   0.93492   0.87707   0.00000  Uiso   1.00
C192   C     0.33225   0.83470   0.90203   0.00000  Uiso   1.00
C193   C     0.30755   0.66487   0.94108   0.00000  Uiso   1.00
C194   C     0.26715   0.18968   0.88389   0.00000  Uiso   1.00
C195   C     0.27919   0.28265   0.90609   0.00000  Uiso   1.00
C196   C     0.20590   0.34147   0.94433   0.00000  Uiso   1.00
C197   C     0.10809   0.46495   0.00784   0.00000  Uiso   1.00
C198   C     0.18666   0.05251   0.86993   0.00000  Uiso   1.00
C199   C     0.24706   0.07491   0.80737   0.00000  Uiso   1.00
C200   C     0.22606   0.06490   0.76825   0.00000  Uiso   1.00
C201   C     0.29038   0.08916   0.71305   0.00000  Uiso   1.00
C202   C     0.23193   0.96770   0.88358   0.00000  Uiso   1.00
C203   C     0.19821   0.86756   0.90854   0.00000  Uiso   1.00
C204   C     0.24978   0.80157   0.91751   0.00000  Uiso   1.00
C205   C     0.18484   0.15662   0.89934   0.00000  Uiso   1.00
C206   C     0.11152   0.21529   0.93756   0.00000  Uiso   1.00
C207   C     0.12344   0.30834   0.95981   0.00000  Uiso   1.00
H208   H     0.40230   0.13914   0.82946   0.00000  Uiso   1.00
H209   H     0.45743   0.15784   0.72484   0.00000  Uiso   1.00
H210   H     0.42958   0.96054   0.86512   0.00000  Uiso   1.00
H211   H     0.34290   0.30822   0.89413   0.00000  Uiso   1.00
H212   H     0.48227   0.16396   0.61566   0.00000  Uiso   1.00
H213   H     0.42353   0.74796   0.91145   0.00000  Uiso   1.00
H214   H     0.24075   0.48110   0.97263   0.00000  Uiso   1.00
H215   H     0.12257   0.02676   0.88196   0.00000  Uiso   1.00
H216   H     0.16235   0.03931   0.78022   0.00000  Uiso   1.00
H217   H     0.13450   0.84200   0.92049   0.00000  Uiso   1.00
H218   H     0.04782   0.18968   0.94950   0.00000  Uiso   1.00
H219   H     0.24278   0.06775   0.66060   0.00000  Uiso   1.00
H220   H     0.18403   0.65174   0.95640   0.00000  Uiso   1.00
H221   H     0.00125   0.38489   0.01758   0.00000  Uiso   1.00
O222   O     0.39375   0.12610   0.57025   0.00000  Uiso   1.00
O223   O     0.31668   0.58033   0.95834   0.00000  Uiso   1.00
O224   O     0.07688   0.54220   0.03859   0.00000  Uiso   1.00
N225   N     0.42044   0.13962   0.64020   0.00000  Uiso   1.00
N226   N     0.36552   0.75067   0.91675   0.00000  Uiso   1.00
N227   N     0.19464   0.43608   0.97395   0.00000  Uiso   1.00
N228   N     0.29157   0.08785   0.66438   0.00000  Uiso   1.00
N229   N     0.23665   0.69890   0.94093   0.00000  Uiso   1.00
N230   N     0.06577   0.38431   0.99814   0.00000  Uiso   1.00
C231   C     0.83821   0.61340   0.84148   0.00000  Uiso   1.00
C232   C     0.82937   0.60799   0.79192   0.00000  Uiso   1.00
C233   C     0.89373   0.63226   0.73678   0.00000  Uiso   1.00
C234   C     0.87285   0.62229   0.69758   0.00000  Uiso   1.00
C235   C     0.87166   0.61887   0.61826   0.00000  Uiso   1.00
C236   C     0.81424   0.50078   0.86813   0.00000  Uiso   1.00
C237   C     0.86588   0.43492   0.87707   0.00000  Uiso   1.00
C238   C     0.83225   0.33470   0.90203   0.00000  Uiso   1.00
C239   C     0.80755   0.16487   0.94108   0.00000  Uiso   1.00
C240   C     0.76715   0.68968   0.88389   0.00000  Uiso   1.00
C241   C     0.77919   0.78265   0.90609   0.00000  Uiso   1.00
C242   C     0.70590   0.84147   0.94433   0.00000  Uiso   1.00
C243   C     0.60809   0.96495   0.00784   0.00000  Uiso   1.00
C244   C     0.68666   0.55251   0.86993   0.00000  Uiso   1.00
C245   C     0.74706   0.57491   0.80737   0.00000  Uiso   1.00
C246   C     0.72606   0.56490   0.76825   0.00000  Uiso   1.00
C247   C     0.79038   0.58916   0.71305   0.00000  Uiso   1.00
C248   C     0.73193   0.46770   0.88358   0.00000  Uiso   1.00
C249   C     0.69821   0.36756   0.90854   0.00000  Uiso   1.00
C250   C     0.74978   0.30157   0.91751   0.00000  Uiso   1.00
C251   C     0.68484   0.65662   0.89934   0.00000  Uiso   1.00
C252   C     0.61152   0.71529   0.93756   0.00000  Uiso   1.00
C253   C     0.62344   0.80834   0.95981   0.00000  Uiso   1.00
H254   H     0.90230   0.63914   0.82946   0.00000  Uiso   1.00
H255   H     0.95743   0.65784   0.72484   0.00000  Uiso   1.00
H256   H     0.92958   0.46054   0.86512   0.00000  Uiso   1.00
H257   H     0.84290   0.80822   0.89413   0.00000  Uiso   1.00
H258   H     0.98227   0.66396   0.61566   0.00000  Uiso   1.00
H259   H     0.92353   0.24796   0.91145   0.00000  Uiso   1.00
H260   H     0.74075   0.98110   0.97263   0.00000  Uiso   1.00
H261   H     0.62257   0.52676   0.88196   0.00000  Uiso   1.00
H262   H     0.66235   0.53931   0.78022   0.00000  Uiso   1.00
H263   H     0.63450   0.34200   0.92049   0.00000  Uiso   1.00
H264   H     0.54782   0.68968   0.94950   0.00000  Uiso   1.00
H265   H     0.74278   0.56775   0.66060   0.00000  Uiso   1.00
H266   H     0.68403   0.15174   0.95640   0.00000  Uiso   1.00
H267   H     0.50125   0.88489   0.01758   0.00000  Uiso   1.00
O268   O     0.89375   0.62610   0.57025   0.00000  Uiso   1.00
O269   O     0.81668   0.08033   0.95834   0.00000  Uiso   1.00
O270   O     0.57688   0.04220   0.03859   0.00000  Uiso   1.00
N271   N     0.92044   0.63962   0.64020   0.00000  Uiso   1.00
N272   N     0.86552   0.25067   0.91675   0.00000  Uiso   1.00
N273   N     0.69464   0.93608   0.97395   0.00000  Uiso   1.00
N274   N     0.79157   0.58785   0.66438   0.00000  Uiso   1.00
N275   N     0.73665   0.19890   0.94093   0.00000  Uiso   1.00
N276   N     0.56577   0.88431   0.99814   0.00000  Uiso   1.00
C277   C     0.66179   0.11340   0.65852   0.00000  Uiso   1.00
C278   C     0.67063   0.10799   0.70808   0.00000  Uiso   1.00
C279   C     0.60627   0.13226   0.76322   0.00000  Uiso   1.00
C280   C     0.62715   0.12229   0.80242   0.00000  Uiso   1.00
C281   C     0.62834   0.11887   0.88174   0.00000  Uiso   1.00
C282   C     0.68576   0.00078   0.63187   0.00000  Uiso   1.00
C283   C     0.63412   0.93492   0.62293   0.00000  Uiso   1.00
C284   C     0.66775   0.83470   0.59797   0.00000  Uiso   1.00
C285   C     0.69245   0.66487   0.55892   0.00000  Uiso   1.00
C286   C     0.73285   0.18968   0.61611   0.00000  Uiso   1.00
C287   C     0.72081   0.28265   0.59391   0.00000  Uiso   1.00
C288   C     0.79410   0.34147   0.55567   0.00000  Uiso   1.00
C289   C     0.89191   0.46495   0.49216   0.00000  Uiso   1.00
C290   C     0.81334   0.05251   0.63007   0.00000  Uiso   1.00
C291   C     0.75294   0.07491   0.69263   0.00000  Uiso   1.00
C292   C     0.77394   0.06490   0.73175   0.00000  Uiso   1.00
C293   C     0.70962   0.08916   0.78695   0.00000  Uiso   1.00
C294   C     0.76807   0.96770   0.61642   0.00000  Uiso   1.00
C295   C     0.80179   0.86756   0.59146   0.00000  Uiso   1.00
C296   C     0.75022   0.80157   0.58249   0.00000  Uiso   1.00
C297   C     0.81516   0.15662   0.60066   0.00000  Uiso   1.00
C298   C     0.88848   0.21529   0.56244   0.00000  Uiso   1.00
C299   C     0.87656   0.30834   0.54019   0.00000  Uiso   1.00
H300   H     0.59770   0.13914   0.67054   0.00000  Uiso   1.00
H301   H     0.54257   0.15784   0.77516   0.00000  Uiso   1.00
H302   H     0.57042   0.96054   0.63488   0.00000  Uiso   1.00
H303   H     0.65710   0.30822   0.60587   0.00000  Uiso   1.00
H304   H     0.51773   0.16396   0.88434   0.00000  Uiso   1.00
H305   H     0.57647   0.74796   0.58855   0.00000  Uiso   1.00
H306   H     0.75925   0.48110   0.52737   0.00000  Uiso   1.00
H307   H     0.87743   0.02676   0.61804   0.00000  Uiso   1.00
H308   H     0.83765   0.03931   0.71978   0.00000  Uiso   1.00
H309   H     0.86550   0.84200   0.57951   0.00000  Uiso   1.00
H310   H     0.95218   0.18968   0.55050   0.00000  Uiso   1.00
H311   H     0.75722   0.06775   0.83940   0.00000  Uiso   1.00
H312   H     0.81597   0.65174   0.54360   0.00000  Uiso   1.00
H313   H     0.99875   0.38489   0.48242   0.00000  Uiso   1.00
O314   O     0.60625   0.12610   0.92975   0.00000  Uiso   1.00
O315   O     0.68332   0.58033   0.54166   0.00000  Uiso   1.00
O316   O     0.92312   0.54220   0.46141   0.00000  Uiso   1.00
N317   N     0.57956   0.13962   0.85980   0.00000  Uiso   1.00
N318   N     0.63448   0.75067   0.58325   0.00000  Uiso   1.00
N319   N     0.80536   0.43608   0.52605   0.00000  Uiso   1.00
N320   N     0.70843   0.08785   0.83562   0.00000  Uiso   1.00
N321   N     0.76335   0.69890   0.55907   0.00000  Uiso   1.00
N322   N     0.93423   0.38431   0.50186   0.00000  Uiso   1.00
C323   C     0.16179   0.61340   0.65852   0.00000  Uiso   1.00
C324   C     0.17063   0.60799   0.70808   0.00000  Uiso   1.00
C325   C     0.10627   0.63226   0.76322   0.00000  Uiso   1.00
C326   C     0.12715   0.62229   0.80242   0.00000  Uiso   1.00
C327   C     0.12834   0.61887   0.88174   0.00000  Uiso   1.00
C328   C     0.18576   0.50078   0.63187   0.00000  Uiso   1.00
C329   C     0.13412   0.43492   0.62293   0.00000  Uiso   1.00
C330   C     0.16775   0.33470   0.59797   0.00000  Uiso   1.00
C331   C     0.19245   0.16487   0.55892   0.00000  Uiso   1.00
C332   C     0.23285   0.68968   0.61611   0.00000  Uiso   1.00
C333   C     0.22081   0.78265   0.59391   0.00000  Uiso   1.00
C334   C     0.29410   0.84147   0.55567   0.00000  Uiso   1.00
C335   C     0.39191   0.96495   0.49216   0.00000  Uiso   1.00
C336   C     0.31334   0.55251   0.63007   0.00000  Uiso   1.00
C337   C     0.25294   0.57491   0.69263   0.00000  Uiso   1.00
C338   C     0.27394   0.56490   0.73175   0.00000  Uiso   1.00
C339   C     0.20962   0.58916   0.78695   0.00000  Uiso   1.00
C340   C     0.26807   0.46770   0.61642   0.00000  Uiso   1.00
C341   C     0.30179   0.36756   0.59146   0.00000  Uiso   1.00
C342   C     0.25022   0.30157   0.58249   0.00000  Uiso   1.00
C343   C     0.31516   0.65662   0.60066   0.00000  Uiso   1.00
C344   C     0.38848   0.71529   0.56244   0.00000  Uiso   1.00
C345   C     0.37656   0.80834   0.54019   0.00000  Uiso   1.00
H346   H     0.09770   0.63914   0.67054   0.00000  Uiso   1.00
H347   H     0.04257   0.65784   0.77516   0.00000  Uiso   1.00
H348   H     0.07042   0.46054   0.63488   0.00000  Uiso   1.00
H349   H     0.15710   0.80822   0.60587   0.00000  Uiso   1.00
H350   H     0.01773   0.66396   0.88434   0.00000  Uiso   1.00
H351   H     0.07647   0.24796   0.58855   0.00000  Uiso   1.00
H352   H     0.25925   0.98110   0.52737   0.00000  Uiso   1.00
H353   H     0.37743   0.52676   0.61804   0.00000  Uiso   1.00
H354   H     0.33765   0.53931   0.71978   0.00000  Uiso   1.00
H355   H     0.36550   0.34200   0.57951   0.00000  Uiso   1.00
H356   H     0.45218   0.68968   0.55050   0.00000  Uiso   1.00
H357   H     0.25722   0.56775   0.83940   0.00000  Uiso   1.00
H358   H     0.31597   0.15174   0.54360   0.00000  Uiso   1.00
H359   H     0.49875   0.88489   0.48242   0.00000  Uiso   1.00
O360   O     0.10625   0.62610   0.92975   0.00000  Uiso   1.00
O361   O     0.18332   0.08033   0.54166   0.00000  Uiso   1.00
O362   O     0.42312   0.04220   0.46141   0.00000  Uiso   1.00
N363   N     0.07956   0.63962   0.85980   0.00000  Uiso   1.00
N364   N     0.13448   0.25067   0.58325   0.00000  Uiso   1.00
N365   N     0.30536   0.93608   0.52605   0.00000  Uiso   1.00
N366   N     0.20843   0.58785   0.83562   0.00000  Uiso   1.00
N367   N     0.26335   0.19890   0.55907   0.00000  Uiso   1.00
N368   N     0.43423   0.88431   0.50186   0.00000  Uiso   1.00
