data_job_02428
_audit_creation_date              2018-12-19
_audit_creation_method            'Materials Studio'
_symmetry_space_group_name_H-M    'P1'
_symmetry_Int_Tables_number       1
_symmetry_cell_setting            triclinic
loop_
_symmetry_equiv_pos_as_xyz
  x,y,z
_cell_length_a                    28.9652
_cell_length_b                    11.0419
_cell_length_c                    23.2354
_cell_angle_alpha                 90.0000
_cell_angle_beta                  133.4532
_cell_angle_gamma                 90.0000
loop_
_atom_site_label
_atom_site_type_symbol
_atom_site_fract_x
_atom_site_fract_y
_atom_site_fract_z
_atom_site_U_iso_or_equiv
_atom_site_adp_type
_atom_site_occupancy
C1     C     0.94812   0.37318   0.16425   0.00000  Uiso   1.00
C2     C     0.00618   0.31367   0.18670   0.00000  Uiso   1.00
C3     C     0.02183   0.31664   0.14210   0.00000  Uiso   1.00
C4     C     0.07692   0.25659   0.17289   0.00000  Uiso   1.00
C5     C     0.16127   0.17339   0.19666   0.00000  Uiso   1.00
C6     C     0.91252   0.27232   0.16489   0.00000  Uiso   1.00
C7     C     0.84941   0.24054   0.10197   0.00000  Uiso   1.00
C8     C     0.82565   0.14569   0.11442   0.00000  Uiso   1.00
C9     C     0.76457   0.99835   0.10436   0.00000  Uiso   1.00
C10    C     0.97365   0.45683   0.23296   0.00000  Uiso   1.00
C11    C     0.96192   0.58017   0.22727   0.00000  Uiso   1.00
C12    C     0.98962   0.64066   0.29702   0.00000  Uiso   1.00
C13    C     0.02346   0.77979   0.39264   0.00000  Uiso   1.00
C14    C     0.01815   0.26126   0.29823   0.00000  Uiso   1.00
C15    C     0.04422   0.25288   0.25947   0.00000  Uiso   1.00
C16    C     0.09930   0.19281   0.29034   0.00000  Uiso   1.00
C17    C     0.11503   0.19569   0.24580   0.00000  Uiso   1.00
C18    C     0.95055   0.21153   0.23767   0.00000  Uiso   1.00
C19    C     0.92688   0.11671   0.25021   0.00000  Uiso   1.00
C20    C     0.86375   0.08478   0.18733   0.00000  Uiso   1.00
C21    C     0.01168   0.39604   0.30574   0.00000  Uiso   1.00
C22    C     0.03940   0.45634   0.37551   0.00000  Uiso   1.00
C23    C     0.02772   0.57976   0.36993   0.00000  Uiso   1.00
H24    H     0.91851   0.42050   0.10759   0.00000  Uiso   1.00
H25    H     0.99238   0.36369   0.08578   0.00000  Uiso   1.00
H26    H     0.81998   0.28760   0.04566   0.00000  Uiso   1.00
H27    H     0.93249   0.62718   0.17094   0.00000  Uiso   1.00
H28    H     0.09104   0.27385   0.09369   0.00000  Uiso   1.00
H29    H     0.72753   0.11345   0.00911   0.00000  Uiso   1.00
H30    H     0.96476   0.82953   0.27328   0.00000  Uiso   1.00
H31    H     0.04776   0.21393   0.35489   0.00000  Uiso   1.00
H32    H     0.12873   0.14578   0.34666   0.00000  Uiso   1.00
H33    H     0.95633   0.06969   0.30654   0.00000  Uiso   1.00
H34    H     0.06883   0.40927   0.43182   0.00000  Uiso   1.00
H35    H     0.20170   0.09698   0.30543   0.00000  Uiso   1.00
H36    H     0.83819   0.93659   0.22084   0.00000  Uiso   1.00
H37    H     0.07542   0.65266   0.48502   0.00000  Uiso   1.00
O38    O     0.19729   0.14428   0.18967   0.00000  Uiso   1.00
O39    O     0.72037   0.93387   0.07870   0.00000  Uiso   1.00
O40    O     0.03162   0.87333   0.42529   0.00000  Uiso   1.00
N41    N     0.10598   0.24160   0.14466   0.00000  Uiso   1.00
N42    N     0.76612   0.09162   0.06557   0.00000  Uiso   1.00
N43    N     0.98790   0.76109   0.31255   0.00000  Uiso   1.00
N44    N     0.16553   0.14643   0.25859   0.00000  Uiso   1.00
N45    N     0.82567   0.99645   0.17951   0.00000  Uiso   1.00
N46    N     0.04745   0.66592   0.42648   0.00000  Uiso   1.00
C47    C     0.17973   0.67894   0.16538   0.00000  Uiso   1.00
C48    C     0.14731   0.73601   0.18966   0.00000  Uiso   1.00
C49    C     0.08249   0.73472   0.14533   0.00000  Uiso   1.00
C50    C     0.06224   0.79201   0.17790   0.00000  Uiso   1.00
C51    C     0.00535   0.87207   0.20429   0.00000  Uiso   1.00
C52    C     0.21697   0.78053   0.16831   0.00000  Uiso   1.00
C53    C     0.21072   0.81666   0.10603   0.00000  Uiso   1.00
C54    C     0.24911   0.91143   0.12063   0.00000  Uiso   1.00
C55    C     0.30040   0.06055   0.11388   0.00000  Uiso   1.00
C56    C     0.22925   0.59161   0.23184   0.00000  Uiso   1.00
C57    C     0.23334   0.46889   0.22298   0.00000  Uiso   1.00
C58    C     0.28208   0.40460   0.29107   0.00000  Uiso   1.00
C59    C     0.35243   0.26039   0.38296   0.00000  Uiso   1.00
C60    C     0.25903   0.78298   0.30207   0.00000  Uiso   1.00
C61    C     0.19038   0.79252   0.26390   0.00000  Uiso   1.00
C62    C     0.17023   0.84982   0.29655   0.00000  Uiso   1.00
C63    C     0.10539   0.84862   0.25227   0.00000  Uiso   1.00
C64    C     0.26004   0.83704   0.24255   0.00000  Uiso   1.00
C65    C     0.29845   0.93177   0.25725   0.00000  Uiso   1.00
C66    C     0.29226   0.96804   0.19500   0.00000  Uiso   1.00
C67    C     0.27232   0.64811   0.30608   0.00000  Uiso   1.00
C68    C     0.32107   0.58400   0.37420   0.00000  Uiso   1.00
C69    C     0.32523   0.46122   0.36544   0.00000  Uiso   1.00
H70    H     0.14620   0.63496   0.10758   0.00000  Uiso   1.00
H71    H     0.04918   0.69099   0.08787   0.00000  Uiso   1.00
H72    H     0.17739   0.77291   0.04858   0.00000  Uiso   1.00
H73    H     0.20000   0.42520   0.16552   0.00000  Uiso   1.00
H74    H     0.96060   0.77806   0.09875   0.00000  Uiso   1.00
H75    H     0.23096   0.95077   0.01591   0.00000  Uiso   1.00
H76    H     0.27864   0.21756   0.26248   0.00000  Uiso   1.00
H77    H     0.29256   0.82698   0.35987   0.00000  Uiso   1.00
H78    H     0.20357   0.89355   0.35400   0.00000  Uiso   1.00
H79    H     0.33178   0.97547   0.31471   0.00000  Uiso   1.00
H80    H     0.35439   0.62776   0.43164   0.00000  Uiso   1.00
H81    H     0.08591   0.94248   0.31475   0.00000  Uiso   1.00
H82    H     0.35627   0.11518   0.23191   0.00000  Uiso   1.00
H83    H     0.40395   0.38197   0.47848   0.00000  Uiso   1.00
O84    O     0.96207   0.90063   0.19833   0.00000  Uiso   1.00
O85    O     0.31678   0.12720   0.08965   0.00000  Uiso   1.00
O86    O     0.37933   0.16524   0.41315   0.00000  Uiso   1.00
N87    N     0.00231   0.80760   0.15040   0.00000  Uiso   1.00
N88    N     0.25507   0.96909   0.07294   0.00000  Uiso   1.00
N89    N     0.29966   0.28360   0.30346   0.00000  Uiso   1.00
N90    N     0.06974   0.89607   0.26662   0.00000  Uiso   1.00
N91    N     0.32250   0.05755   0.18917   0.00000  Uiso   1.00
N92    N     0.36708   0.37206   0.41969   0.00000  Uiso   1.00
C93    C     0.44812   0.87318   0.16425   0.00000  Uiso   1.00
C94    C     0.50618   0.81367   0.18670   0.00000  Uiso   1.00
C95    C     0.52183   0.81664   0.14210   0.00000  Uiso   1.00
C96    C     0.57692   0.75659   0.17289   0.00000  Uiso   1.00
C97    C     0.66127   0.67339   0.19666   0.00000  Uiso   1.00
C98    C     0.41252   0.77232   0.16489   0.00000  Uiso   1.00
C99    C     0.34941   0.74054   0.10197   0.00000  Uiso   1.00
C100   C     0.32565   0.64569   0.11442   0.00000  Uiso   1.00
C101   C     0.26457   0.49835   0.10436   0.00000  Uiso   1.00
C102   C     0.47365   0.95683   0.23296   0.00000  Uiso   1.00
C103   C     0.46192   0.08017   0.22727   0.00000  Uiso   1.00
C104   C     0.48962   0.14066   0.29702   0.00000  Uiso   1.00
C105   C     0.52346   0.27979   0.39264   0.00000  Uiso   1.00
C106   C     0.51815   0.76126   0.29823   0.00000  Uiso   1.00
C107   C     0.54422   0.75288   0.25947   0.00000  Uiso   1.00
C108   C     0.59930   0.69281   0.29034   0.00000  Uiso   1.00
C109   C     0.61503   0.69569   0.24580   0.00000  Uiso   1.00
C110   C     0.45055   0.71153   0.23767   0.00000  Uiso   1.00
C111   C     0.42688   0.61671   0.25021   0.00000  Uiso   1.00
C112   C     0.36375   0.58478   0.18733   0.00000  Uiso   1.00
C113   C     0.51168   0.89604   0.30574   0.00000  Uiso   1.00
C114   C     0.53940   0.95634   0.37551   0.00000  Uiso   1.00
C115   C     0.52772   0.07976   0.36993   0.00000  Uiso   1.00
H116   H     0.41851   0.92050   0.10759   0.00000  Uiso   1.00
H117   H     0.49238   0.86369   0.08578   0.00000  Uiso   1.00
H118   H     0.31998   0.78760   0.04566   0.00000  Uiso   1.00
H119   H     0.43249   0.12718   0.17094   0.00000  Uiso   1.00
H120   H     0.59104   0.77385   0.09369   0.00000  Uiso   1.00
H121   H     0.22753   0.61345   0.00911   0.00000  Uiso   1.00
H122   H     0.46476   0.32953   0.27328   0.00000  Uiso   1.00
H123   H     0.54776   0.71393   0.35489   0.00000  Uiso   1.00
H124   H     0.62873   0.64578   0.34666   0.00000  Uiso   1.00
H125   H     0.45633   0.56969   0.30654   0.00000  Uiso   1.00
H126   H     0.56883   0.90927   0.43182   0.00000  Uiso   1.00
H127   H     0.70170   0.59698   0.30543   0.00000  Uiso   1.00
H128   H     0.33819   0.43659   0.22084   0.00000  Uiso   1.00
H129   H     0.57542   0.15266   0.48502   0.00000  Uiso   1.00
O130   O     0.69729   0.64428   0.18967   0.00000  Uiso   1.00
O131   O     0.22037   0.43387   0.07870   0.00000  Uiso   1.00
O132   O     0.53162   0.37333   0.42529   0.00000  Uiso   1.00
N133   N     0.60598   0.74160   0.14466   0.00000  Uiso   1.00
N134   N     0.26612   0.59162   0.06557   0.00000  Uiso   1.00
N135   N     0.48790   0.26109   0.31255   0.00000  Uiso   1.00
N136   N     0.66553   0.64643   0.25859   0.00000  Uiso   1.00
N137   N     0.32567   0.49645   0.17951   0.00000  Uiso   1.00
N138   N     0.54745   0.16592   0.42648   0.00000  Uiso   1.00
C139   C     0.67973   0.17894   0.16538   0.00000  Uiso   1.00
C140   C     0.64731   0.23601   0.18966   0.00000  Uiso   1.00
C141   C     0.58249   0.23472   0.14533   0.00000  Uiso   1.00
C142   C     0.56224   0.29201   0.17790   0.00000  Uiso   1.00
C143   C     0.50535   0.37207   0.20429   0.00000  Uiso   1.00
C144   C     0.71697   0.28053   0.16831   0.00000  Uiso   1.00
C145   C     0.71072   0.31666   0.10603   0.00000  Uiso   1.00
C146   C     0.74911   0.41143   0.12063   0.00000  Uiso   1.00
C147   C     0.80040   0.56055   0.11388   0.00000  Uiso   1.00
C148   C     0.72925   0.09161   0.23184   0.00000  Uiso   1.00
C149   C     0.73334   0.96889   0.22298   0.00000  Uiso   1.00
C150   C     0.78208   0.90460   0.29107   0.00000  Uiso   1.00
C151   C     0.85243   0.76039   0.38296   0.00000  Uiso   1.00
C152   C     0.75903   0.28298   0.30207   0.00000  Uiso   1.00
C153   C     0.69038   0.29252   0.26390   0.00000  Uiso   1.00
C154   C     0.67023   0.34982   0.29655   0.00000  Uiso   1.00
C155   C     0.60539   0.34862   0.25227   0.00000  Uiso   1.00
C156   C     0.76004   0.33704   0.24255   0.00000  Uiso   1.00
C157   C     0.79845   0.43177   0.25725   0.00000  Uiso   1.00
C158   C     0.79226   0.46804   0.19500   0.00000  Uiso   1.00
C159   C     0.77232   0.14811   0.30608   0.00000  Uiso   1.00
C160   C     0.82107   0.08400   0.37420   0.00000  Uiso   1.00
C161   C     0.82523   0.96122   0.36544   0.00000  Uiso   1.00
H162   H     0.64620   0.13496   0.10758   0.00000  Uiso   1.00
H163   H     0.54918   0.19099   0.08787   0.00000  Uiso   1.00
H164   H     0.67739   0.27291   0.04858   0.00000  Uiso   1.00
H165   H     0.70000   0.92520   0.16552   0.00000  Uiso   1.00
H166   H     0.46060   0.27806   0.09875   0.00000  Uiso   1.00
H167   H     0.73096   0.45077   0.01591   0.00000  Uiso   1.00
H168   H     0.77864   0.71756   0.26248   0.00000  Uiso   1.00
H169   H     0.79256   0.32698   0.35987   0.00000  Uiso   1.00
H170   H     0.70357   0.39355   0.35400   0.00000  Uiso   1.00
H171   H     0.83178   0.47547   0.31471   0.00000  Uiso   1.00
H172   H     0.85439   0.12776   0.43164   0.00000  Uiso   1.00
H173   H     0.58591   0.44248   0.31475   0.00000  Uiso   1.00
H174   H     0.85627   0.61518   0.23191   0.00000  Uiso   1.00
H175   H     0.90395   0.88197   0.47848   0.00000  Uiso   1.00
O176   O     0.46207   0.40063   0.19833   0.00000  Uiso   1.00
O177   O     0.81678   0.62720   0.08965   0.00000  Uiso   1.00
O178   O     0.87933   0.66524   0.41315   0.00000  Uiso   1.00
N179   N     0.50231   0.30760   0.15040   0.00000  Uiso   1.00
N180   N     0.75507   0.46909   0.07294   0.00000  Uiso   1.00
N181   N     0.79966   0.78360   0.30346   0.00000  Uiso   1.00
N182   N     0.56974   0.39607   0.26662   0.00000  Uiso   1.00
N183   N     0.82250   0.55755   0.18917   0.00000  Uiso   1.00
N184   N     0.86708   0.87206   0.41969   0.00000  Uiso   1.00
C185   C     0.05188   0.37318   0.83575   0.00000  Uiso   1.00
C186   C     0.99382   0.31367   0.81330   0.00000  Uiso   1.00
C187   C     0.97817   0.31664   0.85790   0.00000  Uiso   1.00
C188   C     0.92308   0.25659   0.82711   0.00000  Uiso   1.00
C189   C     0.83873   0.17339   0.80334   0.00000  Uiso   1.00
C190   C     0.08748   0.27232   0.83511   0.00000  Uiso   1.00
C191   C     0.15059   0.24054   0.89803   0.00000  Uiso   1.00
C192   C     0.17435   0.14569   0.88558   0.00000  Uiso   1.00
C193   C     0.23543   0.99835   0.89564   0.00000  Uiso   1.00
C194   C     0.02635   0.45683   0.76704   0.00000  Uiso   1.00
C195   C     0.03808   0.58017   0.77273   0.00000  Uiso   1.00
C196   C     0.01038   0.64066   0.70298   0.00000  Uiso   1.00
C197   C     0.97654   0.77979   0.60736   0.00000  Uiso   1.00
C198   C     0.98185   0.26126   0.70177   0.00000  Uiso   1.00
C199   C     0.95578   0.25288   0.74053   0.00000  Uiso   1.00
C200   C     0.90070   0.19281   0.70966   0.00000  Uiso   1.00
C201   C     0.88497   0.19569   0.75420   0.00000  Uiso   1.00
C202   C     0.04945   0.21153   0.76233   0.00000  Uiso   1.00
C203   C     0.07312   0.11671   0.74979   0.00000  Uiso   1.00
C204   C     0.13625   0.08478   0.81267   0.00000  Uiso   1.00
C205   C     0.98832   0.39604   0.69426   0.00000  Uiso   1.00
C206   C     0.96060   0.45634   0.62449   0.00000  Uiso   1.00
C207   C     0.97228   0.57976   0.63007   0.00000  Uiso   1.00
H208   H     0.08149   0.42050   0.89241   0.00000  Uiso   1.00
H209   H     0.00762   0.36369   0.91422   0.00000  Uiso   1.00
H210   H     0.18002   0.28760   0.95434   0.00000  Uiso   1.00
H211   H     0.06751   0.62718   0.82906   0.00000  Uiso   1.00
H212   H     0.90896   0.27385   0.90631   0.00000  Uiso   1.00
H213   H     0.27247   0.11345   0.99089   0.00000  Uiso   1.00
H214   H     0.03524   0.82953   0.72672   0.00000  Uiso   1.00
H215   H     0.95224   0.21393   0.64511   0.00000  Uiso   1.00
H216   H     0.87127   0.14578   0.65334   0.00000  Uiso   1.00
H217   H     0.04367   0.06969   0.69346   0.00000  Uiso   1.00
H218   H     0.93117   0.40927   0.56818   0.00000  Uiso   1.00
H219   H     0.79830   0.09698   0.69457   0.00000  Uiso   1.00
H220   H     0.16181   0.93659   0.77916   0.00000  Uiso   1.00
H221   H     0.92458   0.65266   0.51498   0.00000  Uiso   1.00
O222   O     0.80271   0.14428   0.81033   0.00000  Uiso   1.00
O223   O     0.27963   0.93387   0.92130   0.00000  Uiso   1.00
O224   O     0.96838   0.87333   0.57471   0.00000  Uiso   1.00
N225   N     0.89402   0.24160   0.85534   0.00000  Uiso   1.00
N226   N     0.23388   0.09162   0.93443   0.00000  Uiso   1.00
N227   N     0.01210   0.76109   0.68745   0.00000  Uiso   1.00
N228   N     0.83447   0.14643   0.74141   0.00000  Uiso   1.00
N229   N     0.17433   0.99645   0.82049   0.00000  Uiso   1.00
N230   N     0.95255   0.66592   0.57352   0.00000  Uiso   1.00
C231   C     0.82027   0.67894   0.83462   0.00000  Uiso   1.00
C232   C     0.85269   0.73601   0.81034   0.00000  Uiso   1.00
C233   C     0.91751   0.73472   0.85467   0.00000  Uiso   1.00
C234   C     0.93776   0.79201   0.82210   0.00000  Uiso   1.00
C235   C     0.99465   0.87207   0.79571   0.00000  Uiso   1.00
C236   C     0.78303   0.78053   0.83169   0.00000  Uiso   1.00
C237   C     0.78928   0.81666   0.89397   0.00000  Uiso   1.00
C238   C     0.75089   0.91143   0.87937   0.00000  Uiso   1.00
C239   C     0.69960   0.06055   0.88612   0.00000  Uiso   1.00
C240   C     0.77075   0.59161   0.76816   0.00000  Uiso   1.00
C241   C     0.76666   0.46889   0.77702   0.00000  Uiso   1.00
C242   C     0.71792   0.40460   0.70893   0.00000  Uiso   1.00
C243   C     0.64757   0.26039   0.61704   0.00000  Uiso   1.00
C244   C     0.74097   0.78298   0.69793   0.00000  Uiso   1.00
C245   C     0.80962   0.79252   0.73610   0.00000  Uiso   1.00
C246   C     0.82977   0.84982   0.70345   0.00000  Uiso   1.00
C247   C     0.89461   0.84862   0.74773   0.00000  Uiso   1.00
C248   C     0.73996   0.83704   0.75745   0.00000  Uiso   1.00
C249   C     0.70155   0.93177   0.74275   0.00000  Uiso   1.00
C250   C     0.70774   0.96804   0.80500   0.00000  Uiso   1.00
C251   C     0.72768   0.64811   0.69392   0.00000  Uiso   1.00
C252   C     0.67893   0.58400   0.62580   0.00000  Uiso   1.00
C253   C     0.67477   0.46122   0.63456   0.00000  Uiso   1.00
H254   H     0.85380   0.63496   0.89242   0.00000  Uiso   1.00
H255   H     0.95082   0.69099   0.91213   0.00000  Uiso   1.00
H256   H     0.82261   0.77291   0.95142   0.00000  Uiso   1.00
H257   H     0.80000   0.42520   0.83448   0.00000  Uiso   1.00
H258   H     0.03940   0.77806   0.90125   0.00000  Uiso   1.00
H259   H     0.76904   0.95077   0.98409   0.00000  Uiso   1.00
H260   H     0.72136   0.21756   0.73752   0.00000  Uiso   1.00
H261   H     0.70744   0.82698   0.64013   0.00000  Uiso   1.00
H262   H     0.79643   0.89355   0.64600   0.00000  Uiso   1.00
H263   H     0.66822   0.97547   0.68529   0.00000  Uiso   1.00
H264   H     0.64561   0.62776   0.56836   0.00000  Uiso   1.00
H265   H     0.91409   0.94248   0.68525   0.00000  Uiso   1.00
H266   H     0.64373   0.11518   0.76809   0.00000  Uiso   1.00
H267   H     0.59605   0.38197   0.52152   0.00000  Uiso   1.00
O268   O     0.03793   0.90063   0.80167   0.00000  Uiso   1.00
O269   O     0.68322   0.12720   0.91035   0.00000  Uiso   1.00
O270   O     0.62067   0.16524   0.58685   0.00000  Uiso   1.00
N271   N     0.99769   0.80760   0.84960   0.00000  Uiso   1.00
N272   N     0.74493   0.96909   0.92706   0.00000  Uiso   1.00
N273   N     0.70034   0.28360   0.69654   0.00000  Uiso   1.00
N274   N     0.93026   0.89607   0.73338   0.00000  Uiso   1.00
N275   N     0.67750   0.05755   0.81083   0.00000  Uiso   1.00
N276   N     0.63292   0.37206   0.58031   0.00000  Uiso   1.00
C277   C     0.55188   0.87318   0.83575   0.00000  Uiso   1.00
C278   C     0.49382   0.81367   0.81330   0.00000  Uiso   1.00
C279   C     0.47817   0.81664   0.85790   0.00000  Uiso   1.00
C280   C     0.42308   0.75659   0.82711   0.00000  Uiso   1.00
C281   C     0.33873   0.67339   0.80334   0.00000  Uiso   1.00
C282   C     0.58748   0.77232   0.83511   0.00000  Uiso   1.00
C283   C     0.65059   0.74054   0.89803   0.00000  Uiso   1.00
C284   C     0.67435   0.64569   0.88558   0.00000  Uiso   1.00
C285   C     0.73543   0.49835   0.89564   0.00000  Uiso   1.00
C286   C     0.52635   0.95683   0.76704   0.00000  Uiso   1.00
C287   C     0.53808   0.08017   0.77273   0.00000  Uiso   1.00
C288   C     0.51038   0.14066   0.70298   0.00000  Uiso   1.00
C289   C     0.47654   0.27979   0.60736   0.00000  Uiso   1.00
C290   C     0.48185   0.76126   0.70177   0.00000  Uiso   1.00
C291   C     0.45578   0.75288   0.74053   0.00000  Uiso   1.00
C292   C     0.40070   0.69281   0.70966   0.00000  Uiso   1.00
C293   C     0.38497   0.69569   0.75420   0.00000  Uiso   1.00
C294   C     0.54945   0.71153   0.76233   0.00000  Uiso   1.00
C295   C     0.57312   0.61671   0.74979   0.00000  Uiso   1.00
C296   C     0.63625   0.58478   0.81267   0.00000  Uiso   1.00
C297   C     0.48832   0.89604   0.69426   0.00000  Uiso   1.00
C298   C     0.46060   0.95634   0.62449   0.00000  Uiso   1.00
C299   C     0.47228   0.07976   0.63007   0.00000  Uiso   1.00
H300   H     0.58149   0.92050   0.89241   0.00000  Uiso   1.00
H301   H     0.50762   0.86369   0.91422   0.00000  Uiso   1.00
H302   H     0.68002   0.78760   0.95434   0.00000  Uiso   1.00
H303   H     0.56751   0.12718   0.82906   0.00000  Uiso   1.00
H304   H     0.40896   0.77385   0.90631   0.00000  Uiso   1.00
H305   H     0.77247   0.61345   0.99089   0.00000  Uiso   1.00
H306   H     0.53524   0.32953   0.72672   0.00000  Uiso   1.00
H307   H     0.45224   0.71393   0.64511   0.00000  Uiso   1.00
H308   H     0.37127   0.64578   0.65334   0.00000  Uiso   1.00
H309   H     0.54367   0.56969   0.69346   0.00000  Uiso   1.00
H310   H     0.43117   0.90927   0.56818   0.00000  Uiso   1.00
H311   H     0.29830   0.59698   0.69457   0.00000  Uiso   1.00
H312   H     0.66181   0.43659   0.77916   0.00000  Uiso   1.00
H313   H     0.42458   0.15266   0.51498   0.00000  Uiso   1.00
O314   O     0.30271   0.64428   0.81033   0.00000  Uiso   1.00
O315   O     0.77963   0.43387   0.92130   0.00000  Uiso   1.00
O316   O     0.46838   0.37333   0.57471   0.00000  Uiso   1.00
N317   N     0.39402   0.74160   0.85534   0.00000  Uiso   1.00
N318   N     0.73388   0.59162   0.93443   0.00000  Uiso   1.00
N319   N     0.51210   0.26109   0.68745   0.00000  Uiso   1.00
N320   N     0.33447   0.64643   0.74141   0.00000  Uiso   1.00
N321   N     0.67433   0.49645   0.82049   0.00000  Uiso   1.00
N322   N     0.45255   0.16592   0.57352   0.00000  Uiso   1.00
C323   C     0.32027   0.17894   0.83462   0.00000  Uiso   1.00
C324   C     0.35269   0.23601   0.81034   0.00000  Uiso   1.00
C325   C     0.41751   0.23472   0.85467   0.00000  Uiso   1.00
C326   C     0.43776   0.29201   0.82210   0.00000  Uiso   1.00
C327   C     0.49465   0.37207   0.79571   0.00000  Uiso   1.00
C328   C     0.28303   0.28053   0.83169   0.00000  Uiso   1.00
C329   C     0.28928   0.31666   0.89397   0.00000  Uiso   1.00
C330   C     0.25089   0.41143   0.87937   0.00000  Uiso   1.00
C331   C     0.19960   0.56055   0.88612   0.00000  Uiso   1.00
C332   C     0.27075   0.09161   0.76816   0.00000  Uiso   1.00
C333   C     0.26666   0.96889   0.77702   0.00000  Uiso   1.00
C334   C     0.21792   0.90460   0.70893   0.00000  Uiso   1.00
C335   C     0.14757   0.76039   0.61704   0.00000  Uiso   1.00
C336   C     0.24097   0.28298   0.69793   0.00000  Uiso   1.00
C337   C     0.30962   0.29252   0.73610   0.00000  Uiso   1.00
C338   C     0.32977   0.34982   0.70345   0.00000  Uiso   1.00
C339   C     0.39461   0.34862   0.74773   0.00000  Uiso   1.00
C340   C     0.23996   0.33704   0.75745   0.00000  Uiso   1.00
C341   C     0.20155   0.43177   0.74275   0.00000  Uiso   1.00
C342   C     0.20774   0.46804   0.80500   0.00000  Uiso   1.00
C343   C     0.22768   0.14811   0.69392   0.00000  Uiso   1.00
C344   C     0.17893   0.08400   0.62580   0.00000  Uiso   1.00
C345   C     0.17477   0.96122   0.63456   0.00000  Uiso   1.00
H346   H     0.35380   0.13496   0.89242   0.00000  Uiso   1.00
H347   H     0.45082   0.19099   0.91213   0.00000  Uiso   1.00
H348   H     0.32261   0.27291   0.95142   0.00000  Uiso   1.00
H349   H     0.30000   0.92520   0.83448   0.00000  Uiso   1.00
H350   H     0.53940   0.27806   0.90125   0.00000  Uiso   1.00
H351   H     0.26904   0.45077   0.98409   0.00000  Uiso   1.00
H352   H     0.22136   0.71756   0.73752   0.00000  Uiso   1.00
H353   H     0.20744   0.32698   0.64013   0.00000  Uiso   1.00
H354   H     0.29643   0.39355   0.64600   0.00000  Uiso   1.00
H355   H     0.16822   0.47547   0.68529   0.00000  Uiso   1.00
H356   H     0.14561   0.12776   0.56836   0.00000  Uiso   1.00
H357   H     0.41409   0.44248   0.68525   0.00000  Uiso   1.00
H358   H     0.14373   0.61518   0.76809   0.00000  Uiso   1.00
H359   H     0.09605   0.88197   0.52152   0.00000  Uiso   1.00
O360   O     0.53793   0.40063   0.80167   0.00000  Uiso   1.00
O361   O     0.18322   0.62720   0.91035   0.00000  Uiso   1.00
O362   O     0.12067   0.66524   0.58685   0.00000  Uiso   1.00
N363   N     0.49769   0.30760   0.84960   0.00000  Uiso   1.00
N364   N     0.24493   0.46909   0.92706   0.00000  Uiso   1.00
N365   N     0.20034   0.78360   0.69654   0.00000  Uiso   1.00
N366   N     0.43026   0.39607   0.73338   0.00000  Uiso   1.00
N367   N     0.17750   0.55755   0.81083   0.00000  Uiso   1.00
N368   N     0.13292   0.87206   0.58031   0.00000  Uiso   1.00
