data_job_04859
_audit_creation_date              2018-12-19
_audit_creation_method            'Materials Studio'
_symmetry_space_group_name_H-M    'P1'
_symmetry_Int_Tables_number       1
_symmetry_cell_setting            triclinic
loop_
_symmetry_equiv_pos_as_xyz
  x,y,z
_cell_length_a                    14.2894
_cell_length_b                    12.2801
_cell_length_c                    28.4553
_cell_angle_alpha                 90.0000
_cell_angle_beta                  85.5765
_cell_angle_gamma                 90.0000
loop_
_atom_site_label
_atom_site_type_symbol
_atom_site_fract_x
_atom_site_fract_y
_atom_site_fract_z
_atom_site_U_iso_or_equiv
_atom_site_adp_type
_atom_site_occupancy
C1     C     0.27296   0.21150   0.58755   0.00000  Uiso   1.00
C2     C     0.32762   0.12632   0.61321   0.00000  Uiso   1.00
C3     C     0.35781   0.02638   0.59502   0.00000  Uiso   1.00
C4     C     0.40676   0.95996   0.62408   0.00000  Uiso   1.00
C5     C     0.48885   0.82273   0.65700   0.00000  Uiso   1.00
C6     C     0.18352   0.23315   0.61894   0.00000  Uiso   1.00
C7     C     0.09256   0.22304   0.60556   0.00000  Uiso   1.00
C8     C     0.02022   0.24657   0.63944   0.00000  Uiso   1.00
C9     C     0.87860   0.27527   0.68123   0.00000  Uiso   1.00
C10    C     0.33051   0.31600   0.58805   0.00000  Uiso   1.00
C11    C     0.36313   0.37558   0.54869   0.00000  Uiso   1.00
C12    C     0.41453   0.46889   0.55656   0.00000  Uiso   1.00
C13    C     0.50113   0.62623   0.55039   0.00000  Uiso   1.00
C14    C     0.30622   0.27128   0.67151   0.00000  Uiso   1.00
C15    C     0.34568   0.15879   0.65882   0.00000  Uiso   1.00
C16    C     0.39461   0.09252   0.68791   0.00000  Uiso   1.00
C17    C     0.42487   0.99249   0.66977   0.00000  Uiso   1.00
C18    C     0.20158   0.26562   0.66454   0.00000  Uiso   1.00
C19    C     0.12936   0.28918   0.69845   0.00000  Uiso   1.00
C20    C     0.03832   0.27910   0.68512   0.00000  Uiso   1.00
C21    C     0.34858   0.34847   0.63365   0.00000  Uiso   1.00
C22    C     0.39994   0.44171   0.64158   0.00000  Uiso   1.00
C23    C     0.43263   0.50142   0.60225   0.00000  Uiso   1.00
H24    H     0.25888   0.18623   0.55205   0.00000  Uiso   1.00
H25    H     0.34380   0.00127   0.55973   0.00000  Uiso   1.00
H26    H     0.07860   0.19792   0.57026   0.00000  Uiso   1.00
H27    H     0.34913   0.35043   0.51341   0.00000  Uiso   1.00
H28    H     0.44589   0.81052   0.58836   0.00000  Uiso   1.00
H29    H     0.88670   0.22520   0.61057   0.00000  Uiso   1.00
H30    H     0.45716   0.54680   0.49067   0.00000  Uiso   1.00
H31    H     0.32028   0.29657   0.70702   0.00000  Uiso   1.00
H32    H     0.40858   0.11766   0.72320   0.00000  Uiso   1.00
H33    H     0.14337   0.31431   0.73373   0.00000  Uiso   1.00
H34    H     0.41390   0.46682   0.67688   0.00000  Uiso   1.00
H35    H     0.49846   0.90499   0.72104   0.00000  Uiso   1.00
H36    H     0.93926   0.31967   0.74325   0.00000  Uiso   1.00
H37    H     0.50973   0.64126   0.62335   0.00000  Uiso   1.00
O38    O     0.52912   0.73806   0.66256   0.00000  Uiso   1.00
O39    O     0.79549   0.28212   0.69169   0.00000  Uiso   1.00
O40    O     0.54393   0.70404   0.53438   0.00000  Uiso   1.00
N41    N     0.44616   0.85732   0.61736   0.00000  Uiso   1.00
N42    N     0.92335   0.24499   0.63813   0.00000  Uiso   1.00
N43    N     0.45667   0.54568   0.52603   0.00000  Uiso   1.00
N44    N     0.47445   0.90815   0.68876   0.00000  Uiso   1.00
N45    N     0.95164   0.29582   0.70952   0.00000  Uiso   1.00
N46    N     0.48495   0.59651   0.59743   0.00000  Uiso   1.00
C47    C     0.17389   0.27025   0.43585   0.00000  Uiso   1.00
C48    C     0.21637   0.34751   0.39804   0.00000  Uiso   1.00
C49    C     0.26849   0.44013   0.40601   0.00000  Uiso   1.00
C50    C     0.30116   0.50000   0.36672   0.00000  Uiso   1.00
C51    C     0.36994   0.62481   0.31495   0.00000  Uiso   1.00
C52    C     0.06910   0.26569   0.42918   0.00000  Uiso   1.00
C53    C     0.99739   0.28951   0.46333   0.00000  Uiso   1.00
C54    C     0.90609   0.28049   0.45025   0.00000  Uiso   1.00
C55    C     0.74623   0.27820   0.44682   0.00000  Uiso   1.00
C56    C     0.21244   0.15754   0.42282   0.00000  Uiso   1.00
C57    C     0.26125   0.09042   0.45162   0.00000  Uiso   1.00
C58    C     0.29062   0.99032   0.43320   0.00000  Uiso   1.00
C59    C     0.35333   0.82013   0.41990   0.00000  Uiso   1.00
C60    C     0.13923   0.21185   0.35191   0.00000  Uiso   1.00
C61    C     0.19754   0.31579   0.35245   0.00000  Uiso   1.00
C62    C     0.23015   0.37552   0.31314   0.00000  Uiso   1.00
C63    C     0.28231   0.46822   0.32105   0.00000  Uiso   1.00
C64    C     0.05027   0.23397   0.38358   0.00000  Uiso   1.00
C65    C     0.95905   0.22490   0.37045   0.00000  Uiso   1.00
C66    C     0.88723   0.24871   0.40457   0.00000  Uiso   1.00
C67    C     0.19362   0.12582   0.37722   0.00000  Uiso   1.00
C68    C     0.22291   0.02581   0.35875   0.00000  Uiso   1.00
C69    C     0.27176   0.95855   0.38752   0.00000  Uiso   1.00
H70    H     0.18854   0.29495   0.47135   0.00000  Uiso   1.00
H71    H     0.28303   0.46466   0.44130   0.00000  Uiso   1.00
H72    H     0.01198   0.31405   0.49861   0.00000  Uiso   1.00
H73    H     0.27580   0.11499   0.48691   0.00000  Uiso   1.00
H74    H     0.37947   0.63885   0.38788   0.00000  Uiso   1.00
H75    H     0.80794   0.32124   0.50872   0.00000  Uiso   1.00
H76    H     0.36426   0.90149   0.48404   0.00000  Uiso   1.00
H77    H     0.12458   0.18716   0.31641   0.00000  Uiso   1.00
H78    H     0.21557   0.35096   0.27786   0.00000  Uiso   1.00
H79    H     0.94451   0.20035   0.33517   0.00000  Uiso   1.00
H80    H     0.20834   0.00129   0.32346   0.00000  Uiso   1.00
H81    H     0.32471   0.54657   0.25522   0.00000  Uiso   1.00
H82    H     0.75318   0.22896   0.37607   0.00000  Uiso   1.00
H83    H     0.30950   0.80921   0.35139   0.00000  Uiso   1.00
O84    O     0.41307   0.70242   0.29899   0.00000  Uiso   1.00
O85    O     0.66325   0.28572   0.45753   0.00000  Uiso   1.00
O86    O     0.39313   0.73502   0.42515   0.00000  Uiso   1.00
N87    N     0.35411   0.59464   0.36195   0.00000  Uiso   1.00
N88    N     0.81977   0.29771   0.47493   0.00000  Uiso   1.00
N89    N     0.33985   0.90526   0.45186   0.00000  Uiso   1.00
N90    N     0.32465   0.54498   0.29057   0.00000  Uiso   1.00
N91    N     0.79030   0.24806   0.40355   0.00000  Uiso   1.00
N92    N     0.31039   0.85561   0.38048   0.00000  Uiso   1.00
C93    C     0.34666   0.69606   0.92905   0.00000  Uiso   1.00
C94    C     0.32036   0.77206   0.88979   0.00000  Uiso   1.00
C95    C     0.26463   0.86436   0.89561   0.00000  Uiso   1.00
C96    C     0.24881   0.92304   0.85527   0.00000  Uiso   1.00
C97    C     0.20215   0.04604   0.80108   0.00000  Uiso   1.00
C98    C     0.45363   0.69235   0.92579   0.00000  Uiso   1.00
C99    C     0.50995   0.71760   0.96189   0.00000  Uiso   1.00
C100   C     0.60632   0.70916   0.95186   0.00000  Uiso   1.00
C101   C     0.76656   0.70831   0.95357   0.00000  Uiso   1.00
C102   C     0.31465   0.58271   0.91540   0.00000  Uiso   1.00
C103   C     0.25412   0.51576   0.94276   0.00000  Uiso   1.00
C104   C     0.23349   0.41499   0.92399   0.00000  Uiso   1.00
C105   C     0.17794   0.24391   0.90957   0.00000  Uiso   1.00
C106   C     0.41766   0.63613   0.84707   0.00000  Uiso   1.00
C107   C     0.35893   0.73951   0.84526   0.00000  Uiso   1.00
C108   C     0.34319   0.79806   0.80491   0.00000  Uiso   1.00
C109   C     0.28744   0.89043   0.81066   0.00000  Uiso   1.00
C110   C     0.49220   0.65980   0.88127   0.00000  Uiso   1.00
C111   C     0.58851   0.65130   0.87118   0.00000  Uiso   1.00
C112   C     0.64495   0.67655   0.90725   0.00000  Uiso   1.00
C113   C     0.35321   0.55015   0.87087   0.00000  Uiso   1.00
C114   C     0.33268   0.44946   0.85206   0.00000  Uiso   1.00
C115   C     0.27213   0.38238   0.87938   0.00000  Uiso   1.00
H116   H     0.31664   0.72140   0.96372   0.00000  Uiso   1.00
H117   H     0.23481   0.88953   0.93008   0.00000  Uiso   1.00
H118   H     0.48008   0.74278   0.99634   0.00000  Uiso   1.00
H119   H     0.22429   0.54097   0.97722   0.00000  Uiso   1.00
H120   H     0.16112   0.06160   0.87314   0.00000  Uiso   1.00
H121   H     0.67830   0.75214   0.01287   0.00000  Uiso   1.00
H122   H     0.13891   0.32658   0.97254   0.00000  Uiso   1.00
H123   H     0.44769   0.61079   0.81241   0.00000  Uiso   1.00
H124   H     0.37304   0.77285   0.77045   0.00000  Uiso   1.00
H125   H     0.61832   0.62611   0.83672   0.00000  Uiso   1.00
H126   H     0.36253   0.42430   0.81760   0.00000  Uiso   1.00
H127   H     0.27332   0.96691   0.74358   0.00000  Uiso   1.00
H128   H     0.79050   0.65744   0.88332   0.00000  Uiso   1.00
H129   H     0.25111   0.23189   0.84299   0.00000  Uiso   1.00
O130   O     0.16578   0.12288   0.78349   0.00000  Uiso   1.00
O131   O     0.84429   0.71686   0.96682   0.00000  Uiso   1.00
O132   O     0.13663   0.15855   0.91391   0.00000  Uiso   1.00
N133   N     0.19775   0.01706   0.84840   0.00000  Uiso   1.00
N134   N     0.68129   0.72775   0.97904   0.00000  Uiso   1.00
N135   N     0.17703   0.32988   0.94134   0.00000  Uiso   1.00
N136   N     0.25812   0.96611   0.77869   0.00000  Uiso   1.00
N137   N     0.74166   0.67679   0.90933   0.00000  Uiso   1.00
N138   N     0.23740   0.27893   0.87163   0.00000  Uiso   1.00
C139   C     0.19952   0.63433   0.08002   0.00000  Uiso   1.00
C140   C     0.13457   0.54926   0.10414   0.00000  Uiso   1.00
C141   C     0.11098   0.44989   0.08505   0.00000  Uiso   1.00
C142   C     0.05050   0.38349   0.11274   0.00000  Uiso   1.00
C143   C     0.95509   0.24652   0.14333   0.00000  Uiso   1.00
C144   C     0.27649   0.65465   0.11323   0.00000  Uiso   1.00
C145   C     0.37223   0.64390   0.10179   0.00000  Uiso   1.00
C146   C     0.43121   0.66623   0.13713   0.00000  Uiso   1.00
C147   C     0.55614   0.69295   0.18183   0.00000  Uiso   1.00
C148   C     0.14265   0.73935   0.07964   0.00000  Uiso   1.00
C149   C     0.12587   0.79984   0.03996   0.00000  Uiso   1.00
C150   C     0.07218   0.89350   0.04703   0.00000  Uiso   1.00
C151   C     0.98931   0.05174   0.03958   0.00000  Uiso   1.00
C152   C     0.13405   0.69311   0.16313   0.00000  Uiso   1.00
C153   C     0.09901   0.58119   0.14928   0.00000  Uiso   1.00
C154   C     0.03854   0.51492   0.17700   0.00000  Uiso   1.00
C155   C     0.01487   0.41547   0.15796   0.00000  Uiso   1.00
C156   C     0.24093   0.68658   0.15837   0.00000  Uiso   1.00
C157   C     0.29979   0.70893   0.19374   0.00000  Uiso   1.00
C158   C     0.39559   0.69821   0.18236   0.00000  Uiso   1.00
C159   C     0.10709   0.77128   0.12479   0.00000  Uiso   1.00
C160   C     0.05343   0.86487   0.13191   0.00000  Uiso   1.00
C161   C     0.03656   0.92549   0.09225   0.00000  Uiso   1.00
H162   H     0.22721   0.60948   0.04488   0.00000  Uiso   1.00
H163   H     0.13852   0.42521   0.05012   0.00000  Uiso   1.00
H164   H     0.39972   0.61920   0.06685   0.00000  Uiso   1.00
H165   H     0.15340   0.77511   0.00504   0.00000  Uiso   1.00
H166   H     0.02454   0.23498   0.07585   0.00000  Uiso   1.00
H167   H     0.57530   0.64405   0.11113   0.00000  Uiso   1.00
H168   H     0.05588   0.97283   0.98077   0.00000  Uiso   1.00
H169   H     0.10637   0.71797   0.19827   0.00000  Uiso   1.00
H170   H     0.01104   0.53965   0.21194   0.00000  Uiso   1.00
H171   H     0.27225   0.73364   0.22867   0.00000  Uiso   1.00
H172   H     0.02592   0.88956   0.16685   0.00000  Uiso   1.00
H173   H     0.92107   0.32786   0.20718   0.00000  Uiso   1.00
H174   H     0.47183   0.73695   0.24246   0.00000  Uiso   1.00
H175   H     0.95241   0.06572   0.11211   0.00000  Uiso   1.00
O176   O     0.91230   0.16214   0.14774   0.00000  Uiso   1.00
O177   O     0.63487   0.69886   0.19402   0.00000  Uiso   1.00
O178   O     0.95340   0.13020   0.02300   0.00000  Uiso   1.00
N179   N     0.01325   0.28132   0.10488   0.00000  Uiso   1.00
N180   N     0.52818   0.66377   0.13786   0.00000  Uiso   1.00
N181   N     0.04259   0.97116   0.01599   0.00000  Uiso   1.00
N182   N     0.95758   0.33130   0.17555   0.00000  Uiso   1.00
N183   N     0.47251   0.71375   0.20853   0.00000  Uiso   1.00
N184   N     0.98691   0.02114   0.08666   0.00000  Uiso   1.00
C185   C     0.72704   0.71150   0.41245   0.00000  Uiso   1.00
C186   C     0.67238   0.62632   0.38679   0.00000  Uiso   1.00
C187   C     0.64219   0.52638   0.40498   0.00000  Uiso   1.00
C188   C     0.59324   0.45996   0.37592   0.00000  Uiso   1.00
C189   C     0.51115   0.32273   0.34300   0.00000  Uiso   1.00
C190   C     0.81648   0.73315   0.38106   0.00000  Uiso   1.00
C191   C     0.90744   0.72304   0.39444   0.00000  Uiso   1.00
C192   C     0.97978   0.74657   0.36056   0.00000  Uiso   1.00
C193   C     0.12140   0.77527   0.31877   0.00000  Uiso   1.00
C194   C     0.66949   0.81600   0.41195   0.00000  Uiso   1.00
C195   C     0.63687   0.87558   0.45131   0.00000  Uiso   1.00
C196   C     0.58547   0.96889   0.44344   0.00000  Uiso   1.00
C197   C     0.49887   0.12623   0.44961   0.00000  Uiso   1.00
C198   C     0.69378   0.77128   0.32849   0.00000  Uiso   1.00
C199   C     0.65432   0.65879   0.34118   0.00000  Uiso   1.00
C200   C     0.60539   0.59252   0.31209   0.00000  Uiso   1.00
C201   C     0.57513   0.49249   0.33023   0.00000  Uiso   1.00
C202   C     0.79842   0.76562   0.33546   0.00000  Uiso   1.00
C203   C     0.87064   0.78918   0.30155   0.00000  Uiso   1.00
C204   C     0.96168   0.77910   0.31488   0.00000  Uiso   1.00
C205   C     0.65142   0.84847   0.36635   0.00000  Uiso   1.00
C206   C     0.60006   0.94171   0.35842   0.00000  Uiso   1.00
C207   C     0.56737   0.00142   0.39775   0.00000  Uiso   1.00
H208   H     0.74112   0.68623   0.44795   0.00000  Uiso   1.00
H209   H     0.65620   0.50127   0.44027   0.00000  Uiso   1.00
H210   H     0.92140   0.69792   0.42974   0.00000  Uiso   1.00
H211   H     0.65087   0.85043   0.48659   0.00000  Uiso   1.00
H212   H     0.55411   0.31052   0.41164   0.00000  Uiso   1.00
H213   H     0.11330   0.72520   0.38943   0.00000  Uiso   1.00
H214   H     0.54284   0.04680   0.50933   0.00000  Uiso   1.00
H215   H     0.67972   0.79657   0.29298   0.00000  Uiso   1.00
H216   H     0.59142   0.61766   0.27680   0.00000  Uiso   1.00
H217   H     0.85663   0.81431   0.26627   0.00000  Uiso   1.00
H218   H     0.58610   0.96682   0.32312   0.00000  Uiso   1.00
H219   H     0.50154   0.40499   0.27896   0.00000  Uiso   1.00
H220   H     0.06074   0.81967   0.25675   0.00000  Uiso   1.00
H221   H     0.49027   0.14126   0.37665   0.00000  Uiso   1.00
O222   O     0.47088   0.23806   0.33744   0.00000  Uiso   1.00
O223   O     0.20451   0.78212   0.30831   0.00000  Uiso   1.00
O224   O     0.45607   0.20404   0.46562   0.00000  Uiso   1.00
N225   N     0.55384   0.35732   0.38264   0.00000  Uiso   1.00
N226   N     0.07665   0.74499   0.36187   0.00000  Uiso   1.00
N227   N     0.54333   0.04568   0.47397   0.00000  Uiso   1.00
N228   N     0.52555   0.40815   0.31124   0.00000  Uiso   1.00
N229   N     0.04836   0.79582   0.29048   0.00000  Uiso   1.00
N230   N     0.51505   0.09651   0.40257   0.00000  Uiso   1.00
C231   C     0.82611   0.77025   0.56415   0.00000  Uiso   1.00
C232   C     0.78363   0.84751   0.60196   0.00000  Uiso   1.00
C233   C     0.73151   0.94013   0.59399   0.00000  Uiso   1.00
C234   C     0.69884  -0.00000   0.63328   0.00000  Uiso   1.00
C235   C     0.63006   0.12481   0.68505   0.00000  Uiso   1.00
C236   C     0.93090   0.76569   0.57082   0.00000  Uiso   1.00
C237   C     0.00261   0.78951   0.53667   0.00000  Uiso   1.00
C238   C     0.09391   0.78049   0.54975   0.00000  Uiso   1.00
C239   C     0.25377   0.77820   0.55318   0.00000  Uiso   1.00
C240   C     0.78756   0.65754   0.57718   0.00000  Uiso   1.00
C241   C     0.73875   0.59042   0.54838   0.00000  Uiso   1.00
C242   C     0.70938   0.49032   0.56680   0.00000  Uiso   1.00
C243   C     0.64667   0.32013   0.58010   0.00000  Uiso   1.00
C244   C     0.86077   0.71185   0.64809   0.00000  Uiso   1.00
C245   C     0.80246   0.81579   0.64755   0.00000  Uiso   1.00
C246   C     0.76985   0.87552   0.68686   0.00000  Uiso   1.00
C247   C     0.71769   0.96822   0.67895   0.00000  Uiso   1.00
C248   C     0.94973   0.73397   0.61642   0.00000  Uiso   1.00
C249   C     0.04095   0.72490   0.62955   0.00000  Uiso   1.00
C250   C     0.11277   0.74871   0.59543   0.00000  Uiso   1.00
C251   C     0.80638   0.62582   0.62278   0.00000  Uiso   1.00
C252   C     0.77709   0.52581   0.64125   0.00000  Uiso   1.00
C253   C     0.72824   0.45855   0.61248   0.00000  Uiso   1.00
H254   H     0.81146   0.79495   0.52865   0.00000  Uiso   1.00
H255   H     0.71697   0.96466   0.55870   0.00000  Uiso   1.00
H256   H     0.98802   0.81405   0.50139   0.00000  Uiso   1.00
H257   H     0.72420   0.61499   0.51309   0.00000  Uiso   1.00
H258   H     0.62053   0.13885   0.61212   0.00000  Uiso   1.00
H259   H     0.19206   0.82124   0.49128   0.00000  Uiso   1.00
H260   H     0.63574   0.40149   0.51596   0.00000  Uiso   1.00
H261   H     0.87542   0.68716   0.68359   0.00000  Uiso   1.00
H262   H     0.78443   0.85096   0.72214   0.00000  Uiso   1.00
H263   H     0.05549   0.70035   0.66483   0.00000  Uiso   1.00
H264   H     0.79166   0.50129   0.67654   0.00000  Uiso   1.00
H265   H     0.67529   0.04657   0.74478   0.00000  Uiso   1.00
H266   H     0.24682   0.72896   0.62393   0.00000  Uiso   1.00
H267   H     0.69050   0.30921   0.64861   0.00000  Uiso   1.00
O268   O     0.58693   0.20242   0.70101   0.00000  Uiso   1.00
O269   O     0.33675   0.78572   0.54247   0.00000  Uiso   1.00
O270   O     0.60687   0.23502   0.57485   0.00000  Uiso   1.00
N271   N     0.64589   0.09464   0.63805   0.00000  Uiso   1.00
N272   N     0.18023   0.79771   0.52507   0.00000  Uiso   1.00
N273   N     0.66015   0.40526   0.54814   0.00000  Uiso   1.00
N274   N     0.67535   0.04498   0.70943   0.00000  Uiso   1.00
N275   N     0.20970   0.74806   0.59645   0.00000  Uiso   1.00
N276   N     0.68961   0.35561   0.61952   0.00000  Uiso   1.00
C277   C     0.65334   0.19606   0.07095   0.00000  Uiso   1.00
C278   C     0.67964   0.27206   0.11021   0.00000  Uiso   1.00
C279   C     0.73537   0.36436   0.10439   0.00000  Uiso   1.00
C280   C     0.75119   0.42304   0.14473   0.00000  Uiso   1.00
C281   C     0.79785   0.54604   0.19892   0.00000  Uiso   1.00
C282   C     0.54637   0.19235   0.07421   0.00000  Uiso   1.00
C283   C     0.49005   0.21760   0.03811   0.00000  Uiso   1.00
C284   C     0.39368   0.20916   0.04814   0.00000  Uiso   1.00
C285   C     0.23344   0.20831   0.04643   0.00000  Uiso   1.00
C286   C     0.68535   0.08271   0.08460   0.00000  Uiso   1.00
C287   C     0.74588   0.01576   0.05724   0.00000  Uiso   1.00
C288   C     0.76651   0.91499   0.07601   0.00000  Uiso   1.00
C289   C     0.82206   0.74391   0.09043   0.00000  Uiso   1.00
C290   C     0.58234   0.13613   0.15293   0.00000  Uiso   1.00
C291   C     0.64107   0.23951   0.15474   0.00000  Uiso   1.00
C292   C     0.65681   0.29806   0.19509   0.00000  Uiso   1.00
C293   C     0.71256   0.39043   0.18934   0.00000  Uiso   1.00
C294   C     0.50780   0.15980   0.11873   0.00000  Uiso   1.00
C295   C     0.41149   0.15130   0.12882   0.00000  Uiso   1.00
C296   C     0.35505   0.17655   0.09275   0.00000  Uiso   1.00
C297   C     0.64679   0.05015   0.12913   0.00000  Uiso   1.00
C298   C     0.66732   0.94946   0.14794   0.00000  Uiso   1.00
C299   C     0.72787   0.88238   0.12062   0.00000  Uiso   1.00
H300   H     0.68336   0.22140   0.03628   0.00000  Uiso   1.00
H301   H     0.76519   0.38953   0.06992   0.00000  Uiso   1.00
H302   H     0.51992   0.24278   0.00366   0.00000  Uiso   1.00
H303   H     0.77571   0.04097   0.02278   0.00000  Uiso   1.00
H304   H     0.83888   0.56160   0.12686   0.00000  Uiso   1.00
H305   H     0.32170   0.25214   0.98713   0.00000  Uiso   1.00
H306   H     0.86109   0.82658   0.02746   0.00000  Uiso   1.00
H307   H     0.55231   0.11079   0.18759   0.00000  Uiso   1.00
H308   H     0.62696   0.27285   0.22955   0.00000  Uiso   1.00
H309   H     0.38168   0.12611   0.16328   0.00000  Uiso   1.00
H310   H     0.63747   0.92430   0.18240   0.00000  Uiso   1.00
H311   H     0.72668   0.46691   0.25642   0.00000  Uiso   1.00
H312   H     0.20950   0.15744   0.11668   0.00000  Uiso   1.00
H313   H     0.74889   0.73189   0.15701   0.00000  Uiso   1.00
O314   O     0.83422   0.62288   0.21651   0.00000  Uiso   1.00
O315   O     0.15571   0.21686   0.03318   0.00000  Uiso   1.00
O316   O     0.86337   0.65855   0.08609   0.00000  Uiso   1.00
N317   N     0.80225   0.51706   0.15160   0.00000  Uiso   1.00
N318   N     0.31871   0.22775   0.02096   0.00000  Uiso   1.00
N319   N     0.82297   0.82988   0.05866   0.00000  Uiso   1.00
N320   N     0.74188   0.46611   0.22131   0.00000  Uiso   1.00
N321   N     0.25834   0.17679   0.09067   0.00000  Uiso   1.00
N322   N     0.76260   0.77893   0.12837   0.00000  Uiso   1.00
C323   C     0.80048   0.13433   0.91998   0.00000  Uiso   1.00
C324   C     0.86543   0.04926   0.89586   0.00000  Uiso   1.00
C325   C     0.88902   0.94989   0.91495   0.00000  Uiso   1.00
C326   C     0.94950   0.88349   0.88726   0.00000  Uiso   1.00
C327   C     0.04491   0.74652   0.85667   0.00000  Uiso   1.00
C328   C     0.72351   0.15465   0.88677   0.00000  Uiso   1.00
C329   C     0.62777   0.14390   0.89821   0.00000  Uiso   1.00
C330   C     0.56879   0.16623   0.86287   0.00000  Uiso   1.00
C331   C     0.44386   0.19295   0.81817   0.00000  Uiso   1.00
C332   C     0.85735   0.23935   0.92036   0.00000  Uiso   1.00
C333   C     0.87413   0.29984   0.96004   0.00000  Uiso   1.00
C334   C     0.92782   0.39350   0.95297   0.00000  Uiso   1.00
C335   C     0.01069   0.55174   0.96042   0.00000  Uiso   1.00
C336   C     0.86595   0.19311   0.83687   0.00000  Uiso   1.00
C337   C     0.90099   0.08119   0.85072   0.00000  Uiso   1.00
C338   C     0.96146   0.01492   0.82300   0.00000  Uiso   1.00
C339   C     0.98513   0.91547   0.84204   0.00000  Uiso   1.00
C340   C     0.75907   0.18658   0.84163   0.00000  Uiso   1.00
C341   C     0.70021   0.20893   0.80626   0.00000  Uiso   1.00
C342   C     0.60441   0.19821   0.81764   0.00000  Uiso   1.00
C343   C     0.89291   0.27128   0.87521   0.00000  Uiso   1.00
C344   C     0.94657   0.36487   0.86809   0.00000  Uiso   1.00
C345   C     0.96344   0.42549   0.90775   0.00000  Uiso   1.00
H346   H     0.77279   0.10948   0.95512   0.00000  Uiso   1.00
H347   H     0.86148   0.92521   0.94988   0.00000  Uiso   1.00
H348   H     0.60028   0.11920   0.93315   0.00000  Uiso   1.00
H349   H     0.84660   0.27511   0.99496   0.00000  Uiso   1.00
H350   H     0.97546   0.73498   0.92415   0.00000  Uiso   1.00
H351   H     0.42470   0.14405   0.88887   0.00000  Uiso   1.00
H352   H     0.94412   0.47283   0.01923   0.00000  Uiso   1.00
H353   H     0.89363   0.21797   0.80173   0.00000  Uiso   1.00
H354   H     0.98896   0.03965   0.78806   0.00000  Uiso   1.00
H355   H     0.72775   0.23364   0.77133   0.00000  Uiso   1.00
H356   H     0.97408   0.38956   0.83315   0.00000  Uiso   1.00
H357   H     0.07893   0.82786   0.79282   0.00000  Uiso   1.00
H358   H     0.52817   0.23695   0.75754   0.00000  Uiso   1.00
H359   H     0.04759   0.56572   0.88789   0.00000  Uiso   1.00
O360   O     0.08770   0.66214   0.85226   0.00000  Uiso   1.00
O361   O     0.36513   0.19886   0.80598   0.00000  Uiso   1.00
O362   O     0.04660   0.63020   0.97700   0.00000  Uiso   1.00
N363   N     0.98675   0.78132   0.89512   0.00000  Uiso   1.00
N364   N     0.47182   0.16377   0.86214   0.00000  Uiso   1.00
N365   N     0.95741   0.47116   0.98401   0.00000  Uiso   1.00
N366   N     0.04242   0.83130   0.82445   0.00000  Uiso   1.00
N367   N     0.52749   0.21375   0.79147   0.00000  Uiso   1.00
N368   N     0.01309   0.52114   0.91334   0.00000  Uiso   1.00
