data_job_02056
_audit_creation_date              2018-12-19
_audit_creation_method            'Materials Studio'
_symmetry_space_group_name_H-M    'P1'
_symmetry_Int_Tables_number       1
_symmetry_cell_setting            triclinic
loop_
_symmetry_equiv_pos_as_xyz
  x,y,z
_cell_length_a                    21.3335
_cell_length_b                    12.7882
_cell_length_c                    16.0862
_cell_angle_alpha                 90.0000
_cell_angle_beta                  144.6005
_cell_angle_gamma                 90.0000
loop_
_atom_site_label
_atom_site_type_symbol
_atom_site_fract_x
_atom_site_fract_y
_atom_site_fract_z
_atom_site_U_iso_or_equiv
_atom_site_adp_type
_atom_site_occupancy
C1     C     0.68850   0.46744   0.46945   0.00000  Uiso   1.00
C2     C     0.66759   0.45022   0.35442   0.00000  Uiso   1.00
C3     C     0.67921   0.52482   0.30497   0.00000  Uiso   1.00
C4     C     0.65611   0.49363   0.19925   0.00000  Uiso   1.00
C5     C     0.62868   0.48245   0.02884   0.00000  Uiso   1.00
C6     C     0.58383   0.43778   0.40063   0.00000  Uiso   1.00
C7     C     0.52506   0.50191   0.39006   0.00000  Uiso   1.00
C8     C     0.43146   0.46023   0.32325   0.00000  Uiso   1.00
C9     C     0.27405   0.42970   0.22468   0.00000  Uiso   1.00
C10    C     0.77178   0.38547   0.58488   0.00000  Uiso   1.00
C11    C     0.87103   0.40560   0.72923   0.00000  Uiso   1.00
C12    C     0.93566   0.31988   0.81756   0.00000  Uiso   1.00
C13    C     0.07007   0.20813   0.00506   0.00000  Uiso   1.00
C14    C     0.62680   0.27940   0.36963   0.00000  Uiso   1.00
C15    C     0.63407   0.34809   0.30020   0.00000  Uiso   1.00
C16    C     0.61095   0.31677   0.19454   0.00000  Uiso   1.00
C17    C     0.62254   0.39131   0.14494   0.00000  Uiso   1.00
C18    C     0.55032   0.33565   0.34642   0.00000  Uiso   1.00
C19    C     0.45679   0.29386   0.27962   0.00000  Uiso   1.00
C20    C     0.39788   0.35791   0.26894   0.00000  Uiso   1.00
C21    C     0.73827   0.28333   0.53067   0.00000  Uiso   1.00
C22    C     0.80276   0.19756   0.61879   0.00000  Uiso   1.00
C23    C     0.90209   0.21756   0.76325   0.00000  Uiso   1.00
H24    H     0.71459   0.54696   0.51165   0.00000  Uiso   1.00
H25    H     0.70514   0.60386   0.34694   0.00000  Uiso   1.00
H26    H     0.55102   0.58094   0.43203   0.00000  Uiso   1.00
H27    H     0.89693   0.48465   0.77115   0.00000  Uiso   1.00
H28    H     0.67985   0.62190   0.14039   0.00000  Uiso   1.00
H29    H     0.35489   0.57357   0.31984   0.00000  Uiso   1.00
H30    H     0.08433   0.37053   0.03494   0.00000  Uiso   1.00
H31    H     0.60070   0.19988   0.32742   0.00000  Uiso   1.00
H32    H     0.58501   0.23773   0.15260   0.00000  Uiso   1.00
H33    H     0.43089   0.21482   0.23769   0.00000  Uiso   1.00
H34    H     0.77680   0.11853   0.57680   0.00000  Uiso   1.00
H35    H     0.58234   0.32475   0.98265   0.00000  Uiso   1.00
H36    H     0.25739   0.27642   0.16211   0.00000  Uiso   1.00
H37    H     0.98682   0.07337   0.87720   0.00000  Uiso   1.00
O38    O     0.62279   0.50450   0.94980   0.00000  Uiso   1.00
O39    O     0.19648   0.44108   0.18527   0.00000  Uiso   1.00
O40    O     0.15348   0.17470   0.12345   0.00000  Uiso   1.00
N41    N     0.65907   0.54677   0.12727   0.00000  Uiso   1.00
N42    N     0.35525   0.50159   0.29504   0.00000  Uiso   1.00
N43    N     0.03720   0.31176   0.96360   0.00000  Uiso   1.00
N44    N     0.60661   0.38687   0.04240   0.00000  Uiso   1.00
N45    N     0.30278   0.34169   0.21016   0.00000  Uiso   1.00
N46    N     0.98473   0.15186   0.87872   0.00000  Uiso   1.00
C47    C     0.31150   0.96744   0.03055   0.00000  Uiso   1.00
C48    C     0.33241   0.95022   0.14558   0.00000  Uiso   1.00
C49    C     0.32079   0.02482   0.19503   0.00000  Uiso   1.00
C50    C     0.34389   0.99363   0.30075   0.00000  Uiso   1.00
C51    C     0.37132   0.98245   0.47116   0.00000  Uiso   1.00
C52    C     0.41617   0.93778   0.09937   0.00000  Uiso   1.00
C53    C     0.47494   0.00191   0.10994   0.00000  Uiso   1.00
C54    C     0.56854   0.96023   0.17675   0.00000  Uiso   1.00
C55    C     0.72595   0.92970   0.27532   0.00000  Uiso   1.00
C56    C     0.22822   0.88547   0.91512   0.00000  Uiso   1.00
C57    C     0.12897   0.90560   0.77077   0.00000  Uiso   1.00
C58    C     0.06434   0.81988   0.68244   0.00000  Uiso   1.00
C59    C     0.92993   0.70813   0.49494   0.00000  Uiso   1.00
C60    C     0.37320   0.77940   0.13037   0.00000  Uiso   1.00
C61    C     0.36593   0.84809   0.19980   0.00000  Uiso   1.00
C62    C     0.38905   0.81677   0.30546   0.00000  Uiso   1.00
C63    C     0.37746   0.89131   0.35506   0.00000  Uiso   1.00
C64    C     0.44968   0.83565   0.15358   0.00000  Uiso   1.00
C65    C     0.54321   0.79386   0.22038   0.00000  Uiso   1.00
C66    C     0.60212   0.85791   0.23106   0.00000  Uiso   1.00
C67    C     0.26173   0.78333   0.96933   0.00000  Uiso   1.00
C68    C     0.19724   0.69756   0.88121   0.00000  Uiso   1.00
C69    C     0.09791   0.71756   0.73675   0.00000  Uiso   1.00
H70    H     0.28541   0.04696   0.98835   0.00000  Uiso   1.00
H71    H     0.29486   0.10386   0.15306   0.00000  Uiso   1.00
H72    H     0.44898   0.08094   0.06797   0.00000  Uiso   1.00
H73    H     0.10307   0.98465   0.72885   0.00000  Uiso   1.00
H74    H     0.32015   0.12190   0.35961   0.00000  Uiso   1.00
H75    H     0.64511   0.07357   0.18016   0.00000  Uiso   1.00
H76    H     0.91567   0.87053   0.46506   0.00000  Uiso   1.00
H77    H     0.39930   0.69988   0.17258   0.00000  Uiso   1.00
H78    H     0.41499   0.73773   0.34740   0.00000  Uiso   1.00
H79    H     0.56911   0.71482   0.26231   0.00000  Uiso   1.00
H80    H     0.22320   0.61853   0.92320   0.00000  Uiso   1.00
H81    H     0.41766   0.82475   0.51735   0.00000  Uiso   1.00
H82    H     0.74261   0.77642   0.33789   0.00000  Uiso   1.00
H83    H     0.01318   0.57337   0.62280   0.00000  Uiso   1.00
O84    O     0.37721   0.00450   0.55020   0.00000  Uiso   1.00
O85    O     0.80352   0.94108   0.31473   0.00000  Uiso   1.00
O86    O     0.84652   0.67470   0.37655   0.00000  Uiso   1.00
N87    N     0.34093   0.04677   0.37273   0.00000  Uiso   1.00
N88    N     0.64475   0.00159   0.20496   0.00000  Uiso   1.00
N89    N     0.96280   0.81176   0.53640   0.00000  Uiso   1.00
N90    N     0.39339   0.88687   0.45760   0.00000  Uiso   1.00
N91    N     0.69722   0.84169   0.28984   0.00000  Uiso   1.00
N92    N     0.01527   0.65186   0.62128   0.00000  Uiso   1.00
C93    C     0.31150   0.53256   0.53055   0.00000  Uiso   1.00
C94    C     0.33241   0.54978   0.64558   0.00000  Uiso   1.00
C95    C     0.32079   0.47518   0.69503   0.00000  Uiso   1.00
C96    C     0.34389   0.50637   0.80075   0.00000  Uiso   1.00
C97    C     0.37132   0.51755   0.97116   0.00000  Uiso   1.00
C98    C     0.41617   0.56222   0.59937   0.00000  Uiso   1.00
C99    C     0.47494   0.49809   0.60994   0.00000  Uiso   1.00
C100   C     0.56854   0.53977   0.67675   0.00000  Uiso   1.00
C101   C     0.72595   0.57030   0.77532   0.00000  Uiso   1.00
C102   C     0.22822   0.61453   0.41512   0.00000  Uiso   1.00
C103   C     0.12897   0.59440   0.27077   0.00000  Uiso   1.00
C104   C     0.06434   0.68012   0.18244   0.00000  Uiso   1.00
C105   C     0.92993   0.79187   0.99494   0.00000  Uiso   1.00
C106   C     0.37320   0.72060   0.63037   0.00000  Uiso   1.00
C107   C     0.36593   0.65191   0.69980   0.00000  Uiso   1.00
C108   C     0.38905   0.68323   0.80546   0.00000  Uiso   1.00
C109   C     0.37746   0.60869   0.85506   0.00000  Uiso   1.00
C110   C     0.44968   0.66435   0.65358   0.00000  Uiso   1.00
C111   C     0.54321   0.70614   0.72038   0.00000  Uiso   1.00
C112   C     0.60212   0.64209   0.73106   0.00000  Uiso   1.00
C113   C     0.26173   0.71667   0.46933   0.00000  Uiso   1.00
C114   C     0.19724   0.80244   0.38121   0.00000  Uiso   1.00
C115   C     0.09791   0.78244   0.23675   0.00000  Uiso   1.00
H116   H     0.28541   0.45304   0.48835   0.00000  Uiso   1.00
H117   H     0.29486   0.39614   0.65306   0.00000  Uiso   1.00
H118   H     0.44898   0.41906   0.56797   0.00000  Uiso   1.00
H119   H     0.10307   0.51535   0.22885   0.00000  Uiso   1.00
H120   H     0.32015   0.37810   0.85961   0.00000  Uiso   1.00
H121   H     0.64511   0.42643   0.68016   0.00000  Uiso   1.00
H122   H     0.91567   0.62947   0.96506   0.00000  Uiso   1.00
H123   H     0.39930   0.80012   0.67258   0.00000  Uiso   1.00
H124   H     0.41499   0.76227   0.84740   0.00000  Uiso   1.00
H125   H     0.56911   0.78518   0.76231   0.00000  Uiso   1.00
H126   H     0.22320   0.88147   0.42320   0.00000  Uiso   1.00
H127   H     0.41766   0.67525   0.01735   0.00000  Uiso   1.00
H128   H     0.74261   0.72358   0.83789   0.00000  Uiso   1.00
H129   H     0.01318   0.92663   0.12280   0.00000  Uiso   1.00
O130   O     0.37721   0.49550   0.05020   0.00000  Uiso   1.00
O131   O     0.80352   0.55892   0.81473   0.00000  Uiso   1.00
O132   O     0.84652   0.82530   0.87655   0.00000  Uiso   1.00
N133   N     0.34093   0.45323   0.87273   0.00000  Uiso   1.00
N134   N     0.64475   0.49841   0.70496   0.00000  Uiso   1.00
N135   N     0.96280   0.68824   0.03640   0.00000  Uiso   1.00
N136   N     0.39339   0.61313   0.95760   0.00000  Uiso   1.00
N137   N     0.69722   0.65831   0.78984   0.00000  Uiso   1.00
N138   N     0.01527   0.84814   0.12128   0.00000  Uiso   1.00
C139   C     0.68850   0.03256   0.96945   0.00000  Uiso   1.00
C140   C     0.66759   0.04978   0.85442   0.00000  Uiso   1.00
C141   C     0.67921   0.97518   0.80497   0.00000  Uiso   1.00
C142   C     0.65611   0.00637   0.69925   0.00000  Uiso   1.00
C143   C     0.62868   0.01755   0.52884   0.00000  Uiso   1.00
C144   C     0.58383   0.06222   0.90063   0.00000  Uiso   1.00
C145   C     0.52506   0.99809   0.89006   0.00000  Uiso   1.00
C146   C     0.43146   0.03977   0.82325   0.00000  Uiso   1.00
C147   C     0.27405   0.07030   0.72468   0.00000  Uiso   1.00
C148   C     0.77178   0.11453   0.08488   0.00000  Uiso   1.00
C149   C     0.87103   0.09440   0.22923   0.00000  Uiso   1.00
C150   C     0.93566   0.18012   0.31756   0.00000  Uiso   1.00
C151   C     0.07007   0.29187   0.50506   0.00000  Uiso   1.00
C152   C     0.62680   0.22060   0.86963   0.00000  Uiso   1.00
C153   C     0.63407   0.15191   0.80020   0.00000  Uiso   1.00
C154   C     0.61095   0.18323   0.69454   0.00000  Uiso   1.00
C155   C     0.62254   0.10869   0.64494   0.00000  Uiso   1.00
C156   C     0.55032   0.16435   0.84642   0.00000  Uiso   1.00
C157   C     0.45679   0.20614   0.77962   0.00000  Uiso   1.00
C158   C     0.39788   0.14209   0.76894   0.00000  Uiso   1.00
C159   C     0.73827   0.21667   0.03067   0.00000  Uiso   1.00
C160   C     0.80276   0.30244   0.11879   0.00000  Uiso   1.00
C161   C     0.90209   0.28244   0.26325   0.00000  Uiso   1.00
H162   H     0.71459   0.95304   0.01165   0.00000  Uiso   1.00
H163   H     0.70514   0.89614   0.84694   0.00000  Uiso   1.00
H164   H     0.55102   0.91906   0.93203   0.00000  Uiso   1.00
H165   H     0.89693   0.01535   0.27115   0.00000  Uiso   1.00
H166   H     0.67985   0.87810   0.64039   0.00000  Uiso   1.00
H167   H     0.35489   0.92643   0.81984   0.00000  Uiso   1.00
H168   H     0.08433   0.12947   0.53494   0.00000  Uiso   1.00
H169   H     0.60070   0.30012   0.82742   0.00000  Uiso   1.00
H170   H     0.58501   0.26227   0.65260   0.00000  Uiso   1.00
H171   H     0.43089   0.28518   0.73769   0.00000  Uiso   1.00
H172   H     0.77680   0.38147   0.07680   0.00000  Uiso   1.00
H173   H     0.58234   0.17525   0.48265   0.00000  Uiso   1.00
H174   H     0.25739   0.22358   0.66211   0.00000  Uiso   1.00
H175   H     0.98682   0.42663   0.37720   0.00000  Uiso   1.00
O176   O     0.62279   0.99550   0.44980   0.00000  Uiso   1.00
O177   O     0.19648   0.05892   0.68527   0.00000  Uiso   1.00
O178   O     0.15348   0.32530   0.62345   0.00000  Uiso   1.00
N179   N     0.65907   0.95323   0.62727   0.00000  Uiso   1.00
N180   N     0.35525   0.99841   0.79504   0.00000  Uiso   1.00
N181   N     0.03720   0.18824   0.46360   0.00000  Uiso   1.00
N182   N     0.60661   0.11313   0.54240   0.00000  Uiso   1.00
N183   N     0.30278   0.15831   0.71016   0.00000  Uiso   1.00
N184   N     0.98473   0.34814   0.37872   0.00000  Uiso   1.00
