data_job_07054
_audit_creation_date              2018-12-19
_audit_creation_method            'Materials Studio'
_symmetry_space_group_name_H-M    'P1'
_symmetry_Int_Tables_number       1
_symmetry_cell_setting            triclinic
loop_
_symmetry_equiv_pos_as_xyz
  x,y,z
_cell_length_a                    21.5391
_cell_length_b                    21.3632
_cell_length_c                    19.4119
_cell_angle_alpha                 84.3706
_cell_angle_beta                  82.1275
_cell_angle_gamma                 78.7893
loop_
_atom_site_label
_atom_site_type_symbol
_atom_site_fract_x
_atom_site_fract_y
_atom_site_fract_z
_atom_site_U_iso_or_equiv
_atom_site_adp_type
_atom_site_occupancy
C1     C     0.07115   0.90200   0.79888   0.00000  Uiso   1.00
C2     C     0.14307   0.89550   0.77971   0.00000  Uiso   1.00
C3     C     0.18916   0.86210   0.81974   0.00000  Uiso   1.00
C4     C     0.25240   0.86187   0.79309   0.00000  Uiso   1.00
C5     C     0.36155   0.84693   0.77314   0.00000  Uiso   1.00
C6     C     0.04461   0.97365   0.79705   0.00000  Uiso   1.00
C7     C     0.00793   0.00595   0.85165   0.00000  Uiso   1.00
C8     C     0.98828   0.07151   0.83959   0.00000  Uiso   1.00
C9     C     0.94454   0.17788   0.84654   0.00000  Uiso   1.00
C10    C     0.04657   0.87729   0.73866   0.00000  Uiso   1.00
C11    C     0.01150   0.82859   0.74416   0.00000  Uiso   1.00
C12    C     0.99348   0.81303   0.68293   0.00000  Uiso   1.00
C13    C     0.95278   0.76979   0.59922   0.00000  Uiso   1.00
C14    C     0.10148   0.96099   0.68036   0.00000  Uiso   1.00
C15    C     0.15954   0.92754   0.71534   0.00000  Uiso   1.00
C16    C     0.22272   0.92736   0.68861   0.00000  Uiso   1.00
C17    C     0.26890   0.89397   0.72860   0.00000  Uiso   1.00
C18    C     0.06108   0.00569   0.73268   0.00000  Uiso   1.00
C19    C     0.04148   0.07122   0.72052   0.00000  Uiso   1.00
C20    C     0.00478   0.10361   0.77510   0.00000  Uiso   1.00
C21    C     0.06304   0.90933   0.67428   0.00000  Uiso   1.00
C22    C     0.04506   0.89385   0.61303   0.00000  Uiso   1.00
C23    C     0.00998   0.84513   0.61844   0.00000  Uiso   1.00
H24    H     0.05833   0.87706   0.84900   0.00000  Uiso   1.00
H25    H     0.17640   0.83731   0.86956   0.00000  Uiso   1.00
H26    H     0.99518   0.98114   0.90146   0.00000  Uiso   1.00
H27    H     0.99877   0.80380   0.79399   0.00000  Uiso   1.00
H28    H     0.31456   0.80740   0.86398   0.00000  Uiso   1.00
H29    H     0.93245   0.11066   0.93124   0.00000  Uiso   1.00
H30    H     0.93999   0.73671   0.70461   0.00000  Uiso   1.00
H31    H     0.11430   0.98594   0.63024   0.00000  Uiso   1.00
H32    H     0.23545   0.95216   0.63879   0.00000  Uiso   1.00
H33    H     0.05423   0.09599   0.67070   0.00000  Uiso   1.00
H34    H     0.05782   0.91866   0.56323   0.00000  Uiso   1.00
H35    H     0.36249   0.90062   0.67669   0.00000  Uiso   1.00
H36    H     0.98037   0.20388   0.74394   0.00000  Uiso   1.00
H37    H     0.98792   0.82993   0.51731   0.00000  Uiso   1.00
O38    O     0.41721   0.82984   0.77992   0.00000  Uiso   1.00
O39    O     0.91588   0.22771   0.86816   0.00000  Uiso   1.00
O40    O     0.92578   0.73709   0.57083   0.00000  Uiso   1.00
N41    N     0.30922   0.83396   0.81872   0.00000  Uiso   1.00
N42    N     0.95197   0.11750   0.88161   0.00000  Uiso   1.00
N43    N     0.95901   0.76789   0.66973   0.00000  Uiso   1.00
N44    N     0.33501   0.88412   0.71794   0.00000  Uiso   1.00
N45    N     0.97776   0.16766   0.78082   0.00000  Uiso   1.00
N46    N     0.98480   0.81805   0.56895   0.00000  Uiso   1.00
C47    C     0.73064   0.06604   0.98342   0.00000  Uiso   1.00
C48    C     0.73104   0.13679   0.98813   0.00000  Uiso   1.00
C49    C     0.78279   0.16698   0.96744   0.00000  Uiso   1.00
C50    C     0.77349   0.23203   0.97605   0.00000  Uiso   1.00
C51    C     0.78309   0.33677   0.97910   0.00000  Uiso   1.00
C52    C     0.70959   0.04007   0.05714   0.00000  Uiso   1.00
C53    C     0.74331   0.98893   0.09445   0.00000  Uiso   1.00
C54    C     0.71596   0.97257   0.16114   0.00000  Uiso   1.00
C55    C     0.69224   0.92712   0.27130   0.00000  Uiso   1.00
C56    C     0.67690   0.06364   0.94068   0.00000  Uiso   1.00
C57    C     0.68312   0.03230   0.88008   0.00000  Uiso   1.00
C58    C     0.62823   0.03577   0.84873   0.00000  Uiso   1.00
C59    C     0.55375   0.02691   0.77807   0.00000  Uiso   1.00
C60    C     0.62209   0.12789   0.03550   0.00000  Uiso   1.00
C61    C     0.67208   0.17038   0.01642   0.00000  Uiso   1.00
C62    C     0.66269   0.23541   0.02506   0.00000  Uiso   1.00
C63    C     0.71443   0.26569   0.00438   0.00000  Uiso   1.00
C64    C     0.65064   0.07366   0.08542   0.00000  Uiso   1.00
C65    C     0.62322   0.05737   0.15207   0.00000  Uiso   1.00
C66    C     0.65689   0.00622   0.18948   0.00000  Uiso   1.00
C67    C     0.61794   0.09724   0.96896   0.00000  Uiso   1.00
C68    C     0.56303   0.10074   0.93770   0.00000  Uiso   1.00
C69    C     0.56917   0.06942   0.87707   0.00000  Uiso   1.00
H70    H     0.77654   0.03988   0.96140   0.00000  Uiso   1.00
H71    H     0.82841   0.14096   0.94556   0.00000  Uiso   1.00
H72    H     0.78894   0.96294   0.07255   0.00000  Uiso   1.00
H73    H     0.72875   0.00631   0.85821   0.00000  Uiso   1.00
H74    H     0.85993   0.26784   0.94049   0.00000  Uiso   1.00
H75    H     0.77668   0.89246   0.20825   0.00000  Uiso   1.00
H76    H     0.64978   0.98391   0.75628   0.00000  Uiso   1.00
H77    H     0.57619   0.15405   0.05752   0.00000  Uiso   1.00
H78    H     0.61706   0.26140   0.04695   0.00000  Uiso   1.00
H79    H     0.57759   0.08337   0.17394   0.00000  Uiso   1.00
H80    H     0.51741   0.12674   0.95961   0.00000  Uiso   1.00
H81    H     0.68839   0.36559   0.02279   0.00000  Uiso   1.00
H82    H     0.60515   0.99020   0.29055   0.00000  Uiso   1.00
H83    H     0.47824   0.08166   0.83858   0.00000  Uiso   1.00
O84    O     0.80467   0.38526   0.97298   0.00000  Uiso   1.00
O85    O     0.69546   0.89277   0.32426   0.00000  Uiso   1.00
O86    O     0.52896   0.01276   0.73128   0.00000  Uiso   1.00
N87    N     0.81394   0.27611   0.96130   0.00000  Uiso   1.00
N88    N     0.73612   0.92516   0.21164   0.00000  Uiso   1.00
N89    N     0.61747   0.01065   0.78909   0.00000  Uiso   1.00
N90    N     0.72164   0.32871   0.00558   0.00000  Uiso   1.00
N91    N     0.64382   0.97776   0.25592   0.00000  Uiso   1.00
N92    N     0.52517   0.06324   0.83338   0.00000  Uiso   1.00
C93    C     0.84716   0.69884   0.19179   0.00000  Uiso   1.00
C94    C     0.84684   0.71861   0.26523   0.00000  Uiso   1.00
C95    C     0.80520   0.76908   0.29594   0.00000  Uiso   1.00
C96    C     0.81270   0.77939   0.36358   0.00000  Uiso   1.00
C97    C     0.80502   0.81602   0.47219   0.00000  Uiso   1.00
C98    C     0.91415   0.70027   0.15490   0.00000  Uiso   1.00
C99    C     0.92908   0.73532   0.09283   0.00000  Uiso   1.00
C100   C     0.99324   0.73018   0.06760   0.00000  Uiso   1.00
C101   C     0.09004   0.73829   0.00489   0.00000  Uiso   1.00
C102   C     0.84036   0.62868   0.20014   0.00000  Uiso   1.00
C103   C     0.79328   0.60353   0.17610   0.00000  Uiso   1.00
C104   C     0.79532   0.53811   0.18894   0.00000  Uiso   1.00
C105   C     0.77756   0.43507   0.19648   0.00000  Uiso   1.00
C106   C     0.93453   0.62740   0.25732   0.00000  Uiso   1.00
C107   C     0.89430   0.67981   0.30083   0.00000  Uiso   1.00
C108   C     0.90187   0.69004   0.36845   0.00000  Uiso   1.00
C109   C     0.86024   0.74052   0.39925   0.00000  Uiso   1.00
C110   C     0.96160   0.66147   0.19049   0.00000  Uiso   1.00
C111   C     0.02575   0.65627   0.16534   0.00000  Uiso   1.00
C112   C     0.04079   0.69130   0.10325   0.00000  Uiso   1.00
C113   C     0.88782   0.58988   0.23574   0.00000  Uiso   1.00
C114   C     0.88994   0.52449   0.24862   0.00000  Uiso   1.00
C115   C     0.84287   0.49923   0.22460   0.00000  Uiso   1.00
H116   H     0.81021   0.72905   0.16407   0.00000  Uiso   1.00
H117   H     0.76848   0.79911   0.26837   0.00000  Uiso   1.00
H118   H     0.89235   0.76534   0.06529   0.00000  Uiso   1.00
H119   H     0.75656   0.63357   0.14856   0.00000  Uiso   1.00
H120   H     0.74316   0.85968   0.39969   0.00000  Uiso   1.00
H121   H     0.00434   0.78845   0.97148   0.00000  Uiso   1.00
H122   H     0.71800   0.51060   0.14706   0.00000  Uiso   1.00
H123   H     0.97148   0.59719   0.28504   0.00000  Uiso   1.00
H124   H     0.93860   0.66001   0.39598   0.00000  Uiso   1.00
H125   H     0.06246   0.62624   0.19290   0.00000  Uiso   1.00
H126   H     0.92668   0.49447   0.27616   0.00000  Uiso   1.00
H127   H     0.88124   0.74678   0.50326   0.00000  Uiso   1.00
H128   H     0.14241   0.67555   0.07505   0.00000  Uiso   1.00
H129   H     0.85608   0.39770   0.25063   0.00000  Uiso   1.00
O130   O     0.78767   0.84695   0.52226   0.00000  Uiso   1.00
O131   O     0.13032   0.75349   0.96046   0.00000  Uiso   1.00
O132   O     0.75465   0.38895   0.19082   0.00000  Uiso   1.00
N133   N     0.78016   0.82448   0.40885   0.00000  Uiso   1.00
N134   N     0.02435   0.75790   0.00850   0.00000  Uiso   1.00
N135   N     0.75666   0.49812   0.17263   0.00000  Uiso   1.00
N136   N     0.85446   0.76373   0.46458   0.00000  Uiso   1.00
N137   N     0.09864   0.69715   0.06423   0.00000  Uiso   1.00
N138   N     0.83095   0.43737   0.22836   0.00000  Uiso   1.00
C139   C     0.59830   0.21911   0.44315   0.00000  Uiso   1.00
C140   C     0.66416   0.23735   0.42965   0.00000  Uiso   1.00
C141   C     0.68934   0.26732   0.36843   0.00000  Uiso   1.00
C142   C     0.75044   0.27995   0.36642   0.00000  Uiso   1.00
C143   C     0.84741   0.31086   0.33678   0.00000  Uiso   1.00
C144   C     0.56499   0.25141   0.50840   0.00000  Uiso   1.00
C145   C     0.50679   0.29320   0.51338   0.00000  Uiso   1.00
C146   C     0.48440   0.31765   0.57767   0.00000  Uiso   1.00
C147   C     0.42740   0.37035   0.67029   0.00000  Uiso   1.00
C148   C     0.60942   0.14740   0.46356   0.00000  Uiso   1.00
C149   C     0.58857   0.10174   0.43086   0.00000  Uiso   1.00
C150   C     0.60358   0.03862   0.45740   0.00000  Uiso   1.00
C151   C     0.61556   0.92983   0.48041   0.00000  Uiso   1.00
C152   C     0.66201   0.18822   0.54844   0.00000  Uiso   1.00
C153   C     0.69875   0.22057   0.48685   0.00000  Uiso   1.00
C154   C     0.75983   0.23315   0.48493   0.00000  Uiso   1.00
C155   C     0.78510   0.26314   0.42371   0.00000  Uiso   1.00
C156   C     0.59959   0.23464   0.56559   0.00000  Uiso   1.00
C157   C     0.57727   0.25903   0.62988   0.00000  Uiso   1.00
C158   C     0.51907   0.30085   0.63496   0.00000  Uiso   1.00
C159   C     0.64402   0.13062   0.52075   0.00000  Uiso   1.00
C160   C     0.65906   0.06757   0.54735   0.00000  Uiso   1.00
C161   C     0.63824   0.02182   0.51470   0.00000  Uiso   1.00
H162   H     0.57136   0.23217   0.39862   0.00000  Uiso   1.00
H163   H     0.66255   0.28031   0.32418   0.00000  Uiso   1.00
H164   H     0.48003   0.30617   0.46912   0.00000  Uiso   1.00
H165   H     0.56180   0.11474   0.38660   0.00000  Uiso   1.00
H166   H     0.77890   0.32630   0.26688   0.00000  Uiso   1.00
H167   H     0.39403   0.38082   0.57249   0.00000  Uiso   1.00
H168   H     0.56645   0.97714   0.39849   0.00000  Uiso   1.00
H169   H     0.68895   0.17516   0.59297   0.00000  Uiso   1.00
H170   H     0.78659   0.22017   0.52919   0.00000  Uiso   1.00
H171   H     0.60406   0.24603   0.67413   0.00000  Uiso   1.00
H172   H     0.68583   0.05460   0.59161   0.00000  Uiso   1.00
H173   H     0.87957   0.27749   0.43328   0.00000  Uiso   1.00
H174   H     0.49470   0.33201   0.73889   0.00000  Uiso   1.00
H175   H     0.66713   0.92833   0.56489   0.00000  Uiso   1.00
O176   O     0.89134   0.33255   0.30463   0.00000  Uiso   1.00
O177   O     0.38639   0.40407   0.70557   0.00000  Uiso   1.00
O178   O     0.61262   0.87446   0.47729   0.00000  Uiso   1.00
N179   N     0.78920   0.30862   0.31479   0.00000  Uiso   1.00
N180   N     0.42937   0.35960   0.60051   0.00000  Uiso   1.00
N181   N     0.59056   0.98220   0.43785   0.00000  Uiso   1.00
N182   N     0.84337   0.28236   0.40433   0.00000  Uiso   1.00
N183   N     0.48354   0.33334   0.69005   0.00000  Uiso   1.00
N184   N     0.64473   0.95594   0.52739   0.00000  Uiso   1.00
C185   C     0.28377   0.34826   0.54603   0.00000  Uiso   1.00
C186   C     0.29871   0.31429   0.61628   0.00000  Uiso   1.00
C187   C     0.34118   0.25728   0.62610   0.00000  Uiso   1.00
C188   C     0.34816   0.23402   0.69448   0.00000  Uiso   1.00
C189   C     0.37661   0.17632   0.79498   0.00000  Uiso   1.00
C190   C     0.29753   0.41559   0.54642   0.00000  Uiso   1.00
C191   C     0.33901   0.44375   0.49749   0.00000  Uiso   1.00
C192   C     0.34499   0.50577   0.50705   0.00000  Uiso   1.00
C193   C     0.37157   0.60535   0.49905   0.00000  Uiso   1.00
C194   C     0.21180   0.35609   0.54663   0.00000  Uiso   1.00
C195   C     0.18119   0.33423   0.49787   0.00000  Uiso   1.00
C196   C     0.11500   0.34616   0.50761   0.00000  Uiso   1.00
C197   C     0.00847   0.35336   0.49994   0.00000  Uiso   1.00
C198   C     0.22064   0.40836   0.64999   0.00000  Uiso   1.00
C199   C     0.26442   0.34694   0.67275   0.00000  Uiso   1.00
C200   C     0.27134   0.32376   0.74113   0.00000  Uiso   1.00
C201   C     0.31381   0.26671   0.75106   0.00000  Uiso   1.00
C202   C     0.26325   0.44823   0.60288   0.00000  Uiso   1.00
C203   C     0.26917   0.51023   0.61252   0.00000  Uiso   1.00
C204   C     0.31065   0.53846   0.56362   0.00000  Uiso   1.00
C205   C     0.17752   0.38873   0.60310   0.00000  Uiso   1.00
C206   C     0.11136   0.40071   0.61291   0.00000  Uiso   1.00
C207   C     0.08065   0.37886   0.56418   0.00000  Uiso   1.00
H208   H     0.31046   0.32286   0.50206   0.00000  Uiso   1.00
H209   H     0.36771   0.23203   0.58239   0.00000  Uiso   1.00
H210   H     0.36553   0.41848   0.45379   0.00000  Uiso   1.00
H211   H     0.20774   0.30897   0.45418   0.00000  Uiso   1.00
H212   H     0.41608   0.14574   0.69635   0.00000  Uiso   1.00
H213   H     0.41146   0.53888   0.42518   0.00000  Uiso   1.00
H214   H     0.07874   0.30797   0.42600   0.00000  Uiso   1.00
H215   H     0.19395   0.43377   0.69396   0.00000  Uiso   1.00
H216   H     0.24480   0.34903   0.78482   0.00000  Uiso   1.00
H217   H     0.24263   0.53547   0.65622   0.00000  Uiso   1.00
H218   H     0.08484   0.42597   0.65661   0.00000  Uiso   1.00
H219   H     0.31633   0.24070   0.86066   0.00000  Uiso   1.00
H220   H     0.31171   0.63384   0.58948   0.00000  Uiso   1.00
H221   H     0.97899   0.40292   0.59030   0.00000  Uiso   1.00
O222   O     0.40177   0.13549   0.83481   0.00000  Uiso   1.00
O223   O     0.39571   0.65127   0.47904   0.00000  Uiso   1.00
O224   O     0.95918   0.34831   0.48012   0.00000  Uiso   1.00
N225   N     0.38561   0.17972   0.72255   0.00000  Uiso   1.00
N226   N     0.38131   0.54727   0.46903   0.00000  Uiso   1.00
N227   N     0.07023   0.33140   0.46978   0.00000  Uiso   1.00
N228   N     0.33193   0.23081   0.81096   0.00000  Uiso   1.00
N229   N     0.32763   0.59836   0.55744   0.00000  Uiso   1.00
N230   N     0.01656   0.38249   0.55819   0.00000  Uiso   1.00
C231   C     0.36897   0.48300   0.29538   0.00000  Uiso   1.00
C232   C     0.32885   0.54571   0.31964   0.00000  Uiso   1.00
C233   C     0.27704   0.55149   0.37115   0.00000  Uiso   1.00
C234   C     0.24666   0.61309   0.38575   0.00000  Uiso   1.00
C235   C     0.18124   0.70228   0.42886   0.00000  Uiso   1.00
C236   C     0.43759   0.48564   0.30452   0.00000  Uiso   1.00
C237   C     0.47720   0.44090   0.34331   0.00000  Uiso   1.00
C238   C     0.53836   0.45193   0.34517   0.00000  Uiso   1.00
C239   C     0.64177   0.44783   0.36476   0.00000  Uiso   1.00
C240   C     0.36665   0.48557   0.21698   0.00000  Uiso   1.00
C241   C     0.34662   0.44076   0.18217   0.00000  Uiso   1.00
C242   C     0.34807   0.45172   0.11032   0.00000  Uiso   1.00
C243   C     0.34132   0.44751   0.99401   0.00000  Uiso   1.00
C244   C     0.40717   0.58212   0.22968   0.00000  Uiso   1.00
C245   C     0.34960   0.59955   0.28395   0.00000  Uiso   1.00
C246   C     0.31930   0.66116   0.29846   0.00000  Uiso   1.00
C247   C     0.26745   0.66703   0.34999   0.00000  Uiso   1.00
C248   C     0.45834   0.53947   0.26883   0.00000  Uiso   1.00
C249   C     0.51946   0.55057   0.27063   0.00000  Uiso   1.00
C250   C     0.55915   0.50586   0.30942   0.00000  Uiso   1.00
C251   C     0.38739   0.53941   0.18129   0.00000  Uiso   1.00
C252   C     0.38888   0.55043   0.10949   0.00000  Uiso   1.00
C253   C     0.36886   0.50566   0.07457   0.00000  Uiso   1.00
H254   H     0.35282   0.44108   0.32317   0.00000  Uiso   1.00
H255   H     0.26100   0.50981   0.39876   0.00000  Uiso   1.00
H256   H     0.46113   0.39924   0.37092   0.00000  Uiso   1.00
H257   H     0.33057   0.39911   0.20980   0.00000  Uiso   1.00
H258   H     0.16836   0.60976   0.46685   0.00000  Uiso   1.00
H259   H     0.59036   0.37660   0.40812   0.00000  Uiso   1.00
H260   H     0.31504   0.37631   0.06838   0.00000  Uiso   1.00
H261   H     0.42333   0.62403   0.20190   0.00000  Uiso   1.00
H262   H     0.33537   0.70281   0.27084   0.00000  Uiso   1.00
H263   H     0.53550   0.59223   0.24300   0.00000  Uiso   1.00
H264   H     0.40494   0.59210   0.08189   0.00000  Uiso   1.00
H265   H     0.22872   0.76640   0.36303   0.00000  Uiso   1.00
H266   H     0.65073   0.53324   0.30430   0.00000  Uiso   1.00
H267   H     0.37541   0.53295   0.96456   0.00000  Uiso   1.00
O268   O     0.13942   0.73660   0.46250   0.00000  Uiso   1.00
O269   O     0.69307   0.43070   0.38544   0.00000  Uiso   1.00
O270   O     0.33186   0.43032   0.93971   0.00000  Uiso   1.00
N271   N     0.19463   0.63582   0.43295   0.00000  Uiso   1.00
N272   N     0.58917   0.41783   0.37805   0.00000  Uiso   1.00
N273   N     0.33179   0.41755   0.06042   0.00000  Uiso   1.00
N274   N     0.22711   0.72010   0.37708   0.00000  Uiso   1.00
N275   N     0.62165   0.50212   0.32218   0.00000  Uiso   1.00
N276   N     0.36427   0.50184   0.00455   0.00000  Uiso   1.00
C277   C     0.92321   0.09546   0.31816   0.00000  Uiso   1.00
C278   C     0.85388   0.11105   0.30355   0.00000  Uiso   1.00
C279   C     0.83042   0.15183   0.24910   0.00000  Uiso   1.00
C280   C     0.76552   0.15976   0.24470   0.00000  Uiso   1.00
C281   C     0.66395   0.18876   0.21463   0.00000  Uiso   1.00
C282   C     0.94251   0.02284   0.31920   0.00000  Uiso   1.00
C283   C     0.99357   0.98946   0.27792   0.00000  Uiso   1.00
C284   C     0.00329   0.92313   0.28670   0.00000  Uiso   1.00
C285   C     0.03935   0.81520   0.28097   0.00000  Uiso   1.00
C286   C     0.92285   0.11244   0.39272   0.00000  Uiso   1.00
C287   C     0.95740   0.15438   0.41326   0.00000  Uiso   1.00
C288   C     0.95057   0.16348   0.48394   0.00000  Uiso   1.00
C289   C     0.95611   0.19466   0.59237   0.00000  Uiso   1.00
C290   C     0.84968   0.03703   0.40716   0.00000  Uiso   1.00
C291   C     0.81394   0.07931   0.35189   0.00000  Uiso   1.00
C292   C     0.74907   0.08718   0.34757   0.00000  Uiso   1.00
C293   C     0.72551   0.12796   0.29313   0.00000  Uiso   1.00
C294   C     0.90257   0.99110   0.36754   0.00000  Uiso   1.00
C295   C     0.91222   0.92481   0.37639   0.00000  Uiso   1.00
C296   C     0.96328   0.89133   0.33513   0.00000  Uiso   1.00
C297   C     0.88291   0.08070   0.44107   0.00000  Uiso   1.00
C298   C     0.87604   0.08973   0.51173   0.00000  Uiso   1.00
C299   C     0.91057   0.13168   0.53237   0.00000  Uiso   1.00
H300   H     0.95430   0.12017   0.28053   0.00000  Uiso   1.00
H301   H     0.86134   0.17638   0.21170   0.00000  Uiso   1.00
H302   H     0.02448   0.01404   0.24052   0.00000  Uiso   1.00
H303   H     0.98830   0.17894   0.37584   0.00000  Uiso   1.00
H304   H     0.74067   0.22468   0.15670   0.00000  Uiso   1.00
H305   H     0.08466   0.88238   0.21748   0.00000  Uiso   1.00
H306   H     0.00837   0.23010   0.50283   0.00000  Uiso   1.00
H307   H     0.81859   0.01231   0.44480   0.00000  Uiso   1.00
H308   H     0.71817   0.06261   0.38499   0.00000  Uiso   1.00
H309   H     0.88131   0.90026   0.41381   0.00000  Uiso   1.00
H310   H     0.84513   0.06516   0.54912   0.00000  Uiso   1.00
H311   H     0.62447   0.13234   0.29734   0.00000  Uiso   1.00
H312   H     0.96846   0.79003   0.35813   0.00000  Uiso   1.00
H313   H     0.89217   0.13775   0.64347   0.00000  Uiso   1.00
O314   O     0.61896   0.21352   0.18469   0.00000  Uiso   1.00
O315   O     0.07027   0.76443   0.26445   0.00000  Uiso   1.00
O316   O     0.97019   0.22064   0.63881   0.00000  Uiso   1.00
N317   N     0.72710   0.19606   0.19801   0.00000  Uiso   1.00
N318   N     0.04870   0.87602   0.25484   0.00000  Uiso   1.00
N319   N     0.97740   0.20110   0.52161   0.00000  Uiso   1.00
N320   N     0.66457   0.14637   0.27369   0.00000  Uiso   1.00
N321   N     0.98617   0.82633   0.33052   0.00000  Uiso   1.00
N322   N     0.91487   0.15141   0.59729   0.00000  Uiso   1.00
C323   C     0.28261   0.92874   0.12526   0.00000  Uiso   1.00
C324   C     0.27647   0.85843   0.13145   0.00000  Uiso   1.00
C325   C     0.22406   0.83361   0.16395   0.00000  Uiso   1.00
C326   C     0.22774   0.76799   0.16404   0.00000  Uiso   1.00
C327   C     0.20995   0.66480   0.17839   0.00000  Uiso   1.00
C328   C     0.29695   0.94679   0.04753   0.00000  Uiso   1.00
C329   C     0.26175   0.99626   0.00947   0.00000  Uiso   1.00
C330   C     0.28268   0.00503   0.93890   0.00000  Uiso   1.00
C331   C     0.29670   0.03906   0.82297   0.00000  Uiso   1.00
C332   C     0.34277   0.93140   0.15730   0.00000  Uiso   1.00
C333   C     0.34611   0.96794   0.21152   0.00000  Uiso   1.00
C334   C     0.40562   0.96376   0.23336   0.00000  Uiso   1.00
C335   C     0.49080   0.97388   0.28786   0.00000  Uiso   1.00
C336   C     0.38236   0.85636   0.06763   0.00000  Uiso   1.00
C337   C     0.33065   0.81912   0.10015   0.00000  Uiso   1.00
C338   C     0.33441   0.75352   0.10019   0.00000  Uiso   1.00
C339   C     0.28202   0.72860   0.13268   0.00000  Uiso   1.00
C340   C     0.35112   0.90748   0.01622   0.00000  Uiso   1.00
C341   C     0.37211   0.91618   0.94570   0.00000  Uiso   1.00
C342   C     0.33695   0.96565   0.90754   0.00000  Uiso   1.00
C343   C     0.39695   0.89208   0.12599   0.00000  Uiso   1.00
C344   C     0.45647   0.88785   0.14776   0.00000  Uiso   1.00
C345   C     0.45990   0.92437   0.20200   0.00000  Uiso   1.00
H346   H     0.24043   0.95935   0.14963   0.00000  Uiso   1.00
H347   H     0.18213   0.86405   0.18816   0.00000  Uiso   1.00
H348   H     0.21983   0.02668   0.03371   0.00000  Uiso   1.00
H349   H     0.30417   0.99835   0.23573   0.00000  Uiso   1.00
H350   H     0.14139   0.74105   0.21706   0.00000  Uiso   1.00
H351   H     0.22088   0.08399   0.89139   0.00000  Uiso   1.00
H352   H     0.39874   0.02426   0.31739   0.00000  Uiso   1.00
H353   H     0.42454   0.82575   0.04325   0.00000  Uiso   1.00
H354   H     0.37635   0.72311   0.07596   0.00000  Uiso   1.00
H355   H     0.41404   0.88575   0.92150   0.00000  Uiso   1.00
H356   H     0.49838   0.85742   0.12352   0.00000  Uiso   1.00
H357   H     0.29901   0.62666   0.12599   0.00000  Uiso   1.00
H358   H     0.37851   0.96961   0.80031   0.00000  Uiso   1.00
H359   H     0.55637   0.90987   0.22631   0.00000  Uiso   1.00
O360   O     0.18517   0.61875   0.19494   0.00000  Uiso   1.00
O361   O     0.28947   0.06868   0.76767   0.00000  Uiso   1.00
O362   O     0.52281   0.99031   0.32657   0.00000  Uiso   1.00
N363   N     0.18510   0.72821   0.19115   0.00000  Uiso   1.00
N364   N     0.25942   0.04883   0.88666   0.00000  Uiso   1.00
N365   N     0.42570   0.99300   0.28492   0.00000  Uiso   1.00
N366   N     0.26992   0.66666   0.14215   0.00000  Uiso   1.00
N367   N     0.34424   0.98728   0.83766   0.00000  Uiso   1.00
N368   N     0.51052   0.93145   0.23592   0.00000  Uiso   1.00
C369   C     0.14439   0.31014   0.90261   0.00000  Uiso   1.00
C370   C     0.13755   0.28004   0.83663   0.00000  Uiso   1.00
C371   C     0.17542   0.22469   0.81176   0.00000  Uiso   1.00
C372   C     0.16148   0.20498   0.75048   0.00000  Uiso   1.00
C373   C     0.15845   0.15299   0.65339   0.00000  Uiso   1.00
C374   C     0.07980   0.31517   0.94715   0.00000  Uiso   1.00
C375   C     0.06911   0.28935   0.01522   0.00000  Uiso   1.00
C376   C     0.00655   0.29922   0.04698   0.00000  Uiso   1.00
C377   C     0.91386   0.30181   0.12149   0.00000  Uiso   1.00
C378   C     0.15271   0.37867   0.87977   0.00000  Uiso   1.00
C379   C     0.20331   0.40625   0.89119   0.00000  Uiso   1.00
C380   C     0.20213   0.46960   0.86624   0.00000  Uiso   1.00
C381   C     0.22265   0.57078   0.83613   0.00000  Uiso   1.00
C382   C     0.05230   0.37358   0.83799   0.00000  Uiso   1.00
C383   C     0.08753   0.31451   0.80153   0.00000  Uiso   1.00
C384   C     0.07353   0.29488   0.74027   0.00000  Uiso   1.00
C385   C     0.11137   0.23950   0.71532   0.00000  Uiso   1.00
C386   C     0.02978   0.34963   0.91206   0.00000  Uiso   1.00
C387   C     0.96722   0.35955   0.94373   0.00000  Uiso   1.00
C388   C     0.95644   0.33374   0.01182   0.00000  Uiso   1.00
C389   C     0.10269   0.41314   0.84467   0.00000  Uiso   1.00
C390   C     0.10142   0.47645   0.81970   0.00000  Uiso   1.00
C391   C     0.15202   0.50412   0.83108   0.00000  Uiso   1.00
H392   H     0.18333   0.28331   0.92993   0.00000  Uiso   1.00
H393   H     0.21412   0.19802   0.83894   0.00000  Uiso   1.00
H394   H     0.10783   0.26269   0.04236   0.00000  Uiso   1.00
H395   H     0.24201   0.37957   0.91835   0.00000  Uiso   1.00
H396   H     0.22618   0.11866   0.72260   0.00000  Uiso   1.00
H397   H     0.00206   0.25502   0.15153   0.00000  Uiso   1.00
H398   H     0.28502   0.50150   0.89004   0.00000  Uiso   1.00
H399   H     0.01335   0.40042   0.81067   0.00000  Uiso   1.00
H400   H     0.03482   0.32156   0.71313   0.00000  Uiso   1.00
H401   H     0.92852   0.38622   0.91655   0.00000  Uiso   1.00
H402   H     0.06271   0.50310   0.79254   0.00000  Uiso   1.00
H403   H     0.08065   0.21892   0.62048   0.00000  Uiso   1.00
H404   H     0.85653   0.35529   0.04942   0.00000  Uiso   1.00
H405   H     0.13948   0.60176   0.78792   0.00000  Uiso   1.00
O406   O     0.17059   0.11479   0.60954   0.00000  Uiso   1.00
O407   O     0.87655   0.29371   0.17229   0.00000  Uiso   1.00
O408   O     0.24778   0.61707   0.82921   0.00000  Uiso   1.00
N409   N     0.18900   0.15309   0.71194   0.00000  Uiso   1.00
N410   N     0.97945   0.28057   0.11297   0.00000  Uiso   1.00
N411   N     0.24398   0.51101   0.86851   0.00000  Uiso   1.00
N412   N     0.11069   0.20704   0.65699   0.00000  Uiso   1.00
N413   N     0.90114   0.33452   0.05802   0.00000  Uiso   1.00
N414   N     0.16567   0.56496   0.81356   0.00000  Uiso   1.00
C415   C     0.41029   0.80385   0.54454   0.00000  Uiso   1.00
C416   C     0.34447   0.78972   0.57301   0.00000  Uiso   1.00
C417   C     0.33150   0.74537   0.62767   0.00000  Uiso   1.00
C418   C     0.26815   0.73955   0.64586   0.00000  Uiso   1.00
C419   C     0.17334   0.71193   0.69540   0.00000  Uiso   1.00
C420   C     0.41906   0.79337   0.46697   0.00000  Uiso   1.00
C421   C     0.46880   0.75209   0.43246   0.00000  Uiso   1.00
C422   C     0.46823   0.74934   0.36139   0.00000  Uiso   1.00
C423   C     0.48924   0.72741   0.24629   0.00000  Uiso   1.00
C424   C     0.40605   0.87543   0.54919   0.00000  Uiso   1.00
C425   C     0.44488   0.90315   0.58380   0.00000  Uiso   1.00
C426   C     0.43337   0.96951   0.58194   0.00000  Uiso   1.00
C427   C     0.43419   0.07499   0.59451   0.00000  Uiso   1.00
C428   C     0.32085   0.87239   0.47967   0.00000  Uiso   1.00
C429   C     0.29589   0.82695   0.53777   0.00000  Uiso   1.00
C430   C     0.23254   0.82120   0.55589   0.00000  Uiso   1.00
C431   C     0.21948   0.77685   0.61057   0.00000  Uiso   1.00
C432   C     0.37047   0.83059   0.43173   0.00000  Uiso   1.00
C433   C     0.36983   0.82791   0.36069   0.00000  Uiso   1.00
C434   C     0.41956   0.78664   0.32609   0.00000  Uiso   1.00
C435   C     0.35747   0.91266   0.51396   0.00000  Uiso   1.00
C436   C     0.34591   0.97898   0.51204   0.00000  Uiso   1.00
C437   C     0.38470   0.00680   0.54664   0.00000  Uiso   1.00
H438   H     0.44812   0.77487   0.57197   0.00000  Uiso   1.00
H439   H     0.36912   0.71657   0.65492   0.00000  Uiso   1.00
H440   H     0.50639   0.72329   0.45974   0.00000  Uiso   1.00
H441   H     0.48247   0.87433   0.61106   0.00000  Uiso   1.00
H442   H     0.26011   0.66833   0.73132   0.00000  Uiso   1.00
H443   H     0.54957   0.68252   0.31979   0.00000  Uiso   1.00
H444   H     0.49912   0.00102   0.63887   0.00000  Uiso   1.00
H445   H     0.28302   0.90137   0.45224   0.00000  Uiso   1.00
H446   H     0.19495   0.85001   0.52862   0.00000  Uiso   1.00
H447   H     0.33223   0.85673   0.33344   0.00000  Uiso   1.00
H448   H     0.30830   0.00777   0.48476   0.00000  Uiso   1.00
H449   H     0.11874   0.77664   0.62881   0.00000  Uiso   1.00
H450   H     0.40821   0.79082   0.21727   0.00000  Uiso   1.00
H451   H     0.35776   0.10933   0.53636   0.00000  Uiso   1.00
O452   O     0.13447   0.68640   0.73246   0.00000  Uiso   1.00
O453   O     0.51425   0.70502   0.19253   0.00000  Uiso   1.00
O454   O     0.44806   0.12289   0.61118   0.00000  Uiso   1.00
N455   N     0.23892   0.70088   0.69672   0.00000  Uiso   1.00
N456   N     0.50955   0.71413   0.31196   0.00000  Uiso   1.00
N457   N     0.46240   0.01191   0.61027   0.00000  Uiso   1.00
N458   N     0.16285   0.75916   0.64156   0.00000  Uiso   1.00
N459   N     0.43348   0.77241   0.25680   0.00000  Uiso   1.00
N460   N     0.38633   0.07019   0.55511   0.00000  Uiso   1.00
C461   C     0.75960   0.61636   0.54876   0.00000  Uiso   1.00
C462   C     0.73250   0.64468   0.48155   0.00000  Uiso   1.00
C463   C     0.69805   0.70607   0.47063   0.00000  Uiso   1.00
C464   C     0.67740   0.72286   0.40550   0.00000  Uiso   1.00
C465   C     0.63326   0.77337   0.30911   0.00000  Uiso   1.00
C466   C     0.73223   0.55568   0.57019   0.00000  Uiso   1.00
C467   C     0.69757   0.54225   0.63381   0.00000  Uiso   1.00
C468   C     0.67671   0.48411   0.64330   0.00000  Uiso   1.00
C469   C     0.63219   0.39643   0.68455   0.00000  Uiso   1.00
C470   C     0.83093   0.59434   0.52858   0.00000  Uiso   1.00
C471   C     0.87925   0.61340   0.55722   0.00000  Uiso   1.00
C472   C     0.94149   0.58779   0.53169   0.00000  Uiso   1.00
C473   C     0.05021   0.56014   0.50832   0.00000  Uiso   1.00
C474   C     0.78420   0.53700   0.45250   0.00000  Uiso   1.00
C475   C     0.74586   0.60157   0.42927   0.00000  Uiso   1.00
C476   C     0.72526   0.61826   0.36414   0.00000  Uiso   1.00
C477   C     0.69079   0.67967   0.35313   0.00000  Uiso   1.00
C478   C     0.74559   0.51257   0.51791   0.00000  Uiso   1.00
C479   C     0.72478   0.45444   0.52732   0.00000  Uiso   1.00
C480   C     0.69009   0.44092   0.59093   0.00000  Uiso   1.00
C481   C     0.84429   0.55123   0.47629   0.00000  Uiso   1.00
C482   C     0.90646   0.52559   0.45072   0.00000  Uiso   1.00
C483   C     0.95487   0.54461   0.47932   0.00000  Uiso   1.00
H484   H     0.74920   0.64992   0.58946   0.00000  Uiso   1.00
H485   H     0.68771   0.73942   0.51111   0.00000  Uiso   1.00
H486   H     0.68724   0.57562   0.67426   0.00000  Uiso   1.00
H487   H     0.86889   0.64676   0.59767   0.00000  Uiso   1.00
H488   H     0.62542   0.81962   0.40119   0.00000  Uiso   1.00
H489   H     0.62444   0.47423   0.74521   0.00000  Uiso   1.00
H490   H     0.00749   0.62424   0.58373   0.00000  Uiso   1.00
H491   H     0.79460   0.50343   0.41180   0.00000  Uiso   1.00
H492   H     0.73561   0.58489   0.32369   0.00000  Uiso   1.00
H493   H     0.73513   0.42109   0.48685   0.00000  Uiso   1.00
H494   H     0.91678   0.49223   0.41027   0.00000  Uiso   1.00
H495   H     0.66429   0.69420   0.24908   0.00000  Uiso   1.00
H496   H     0.66331   0.34881   0.59311   0.00000  Uiso   1.00
H497   H     0.04636   0.49882   0.43162   0.00000  Uiso   1.00
O498   O     0.60521   0.81314   0.27038   0.00000  Uiso   1.00
O499   O     0.60393   0.35999   0.72174   0.00000  Uiso   1.00
O500   O     0.10649   0.55680   0.50987   0.00000  Uiso   1.00
N501   N     0.64268   0.77893   0.37747   0.00000  Uiso   1.00
N502   N     0.64175   0.45601   0.69912   0.00000  Uiso   1.00
N503   N     0.99987   0.59625   0.54815   0.00000  Uiso   1.00
N504   N     0.66359   0.71144   0.29562   0.00000  Uiso   1.00
N505   N     0.66266   0.38852   0.61727   0.00000  Uiso   1.00
N506   N     0.02079   0.52876   0.46630   0.00000  Uiso   1.00
C507   C     0.58774   0.40592   0.92062   0.00000  Uiso   1.00
C508   C     0.62296   0.34850   0.88132   0.00000  Uiso   1.00
C509   C     0.68744   0.33690   0.85670   0.00000  Uiso   1.00
C510   C     0.71056   0.28170   0.82202   0.00000  Uiso   1.00
C511   C     0.77133   0.19896   0.76243   0.00000  Uiso   1.00
C512   C     0.53335   0.43770   0.87909   0.00000  Uiso   1.00
C513   C     0.52247   0.50109   0.85261   0.00000  Uiso   1.00
C514   C     0.47014   0.52098   0.81607   0.00000  Uiso   1.00
C515   C     0.39175   0.57673   0.75307   0.00000  Uiso   1.00
C516   C     0.55647   0.37851   0.98924   0.00000  Uiso   1.00
C517   C     0.56502   0.39215   0.05538   0.00000  Uiso   1.00
C518   C     0.53215   0.36221   0.11157   0.00000  Uiso   1.00
C519   C     0.48966   0.32607   0.21959   0.00000  Uiso   1.00
C520   C     0.51415   0.32852   0.90281   0.00000  Uiso   1.00
C521   C     0.58299   0.30647   0.87164   0.00000  Uiso   1.00
C522   C     0.60602   0.25126   0.83699   0.00000  Uiso   1.00
C523   C     0.67052   0.23958   0.81233   0.00000  Uiso   1.00
C524   C     0.49338   0.39566   0.86942   0.00000  Uiso   1.00
C525   C     0.44105   0.41546   0.83291   0.00000  Uiso   1.00
C526   C     0.43009   0.47886   0.80638   0.00000  Uiso   1.00
C527   C     0.51650   0.33647   0.97957   0.00000  Uiso   1.00
C528   C     0.48360   0.30651   0.03567   0.00000  Uiso   1.00
C529   C     0.49210   0.32010   0.10188   0.00000  Uiso   1.00
H530   H     0.61885   0.43865   0.92815   0.00000  Uiso   1.00
H531   H     0.71835   0.36945   0.86419   0.00000  Uiso   1.00
H532   H     0.55340   0.53362   0.86012   0.00000  Uiso   1.00
H533   H     0.59595   0.42469   0.06284   0.00000  Uiso   1.00
H534   H     0.81104   0.27420   0.78899   0.00000  Uiso   1.00
H535   H     0.46322   0.62036   0.78042   0.00000  Uiso   1.00
H536   H     0.55294   0.39066   0.20791   0.00000  Uiso   1.00
H537   H     0.48303   0.29579   0.89527   0.00000  Uiso   1.00
H538   H     0.57508   0.21874   0.82951   0.00000  Uiso   1.00
H539   H     0.41013   0.38291   0.82543   0.00000  Uiso   1.00
H540   H     0.45268   0.27398   0.02816   0.00000  Uiso   1.00
H541   H     0.69475   0.15187   0.76084   0.00000  Uiso   1.00
H542   H     0.34692   0.49804   0.75227   0.00000  Uiso   1.00
H543   H     0.43665   0.26834   0.17976   0.00000  Uiso   1.00
O544   O     0.81589   0.16494   0.73222   0.00000  Uiso   1.00
O545   O     0.35956   0.61910   0.72099   0.00000  Uiso   1.00
O546   O     0.47728   0.31773   0.28185   0.00000  Uiso   1.00
N547   N     0.77104   0.25597   0.79140   0.00000  Uiso   1.00
N548   N     0.44585   0.57962   0.78338   0.00000  Uiso   1.00
N549   N     0.52972   0.36488   0.18305   0.00000  Uiso   1.00
N550   N     0.70846   0.19015   0.77625   0.00000  Uiso   1.00
N551   N     0.38328   0.51380   0.76823   0.00000  Uiso   1.00
N552   N     0.46715   0.29906   0.16790   0.00000  Uiso   1.00
