data_job_03366
_audit_creation_date              2018-12-19
_audit_creation_method            'Materials Studio'
_symmetry_space_group_name_H-M    'P1'
_symmetry_Int_Tables_number       1
_symmetry_cell_setting            triclinic
loop_
_symmetry_equiv_pos_as_xyz
  x,y,z
_cell_length_a                    11.6148
_cell_length_b                    11.6148
_cell_length_c                    33.7072
_cell_angle_alpha                 90.0000
_cell_angle_beta                  90.0000
_cell_angle_gamma                 120.0000
loop_
_atom_site_label
_atom_site_type_symbol
_atom_site_fract_x
_atom_site_fract_y
_atom_site_fract_z
_atom_site_U_iso_or_equiv
_atom_site_adp_type
_atom_site_occupancy
C1     C     0.65403   0.72236   0.73684   0.00000  Uiso   1.00
C2     C     0.79478   0.77616   0.75264   0.00000  Uiso   1.00
C3     C     0.89127   0.90940   0.75554   0.00000  Uiso   1.00
C4     C     0.01387   0.93819   0.77079   0.00000  Uiso   1.00
C5     C     0.22863   0.03708   0.79350   0.00000  Uiso   1.00
C6     C     0.63789   0.62789   0.70312   0.00000  Uiso   1.00
C7     C     0.60244   0.63645   0.66437   0.00000  Uiso   1.00
C8     C     0.59296   0.54041   0.63793   0.00000  Uiso   1.00
C9     C     0.56404   0.40904   0.58375   0.00000  Uiso   1.00
C10    C     0.56105   0.63572   0.76978   0.00000  Uiso   1.00
C11    C     0.46097   0.65083   0.78708   0.00000  Uiso   1.00
C12    C     0.38677   0.56137   0.81676   0.00000  Uiso   1.00
C13    C     0.23856   0.44216   0.86609   0.00000  Uiso   1.00
C14    C     0.70019   0.53658   0.75878   0.00000  Uiso   1.00
C15    C     0.81985   0.67525   0.76456   0.00000  Uiso   1.00
C16    C     0.94234   0.70385   0.77981   0.00000  Uiso   1.00
C17    C     0.03898   0.83710   0.78273   0.00000  Uiso   1.00
C18    C     0.66296   0.52698   0.71503   0.00000  Uiso   1.00
C19    C     0.65351   0.43090   0.68864   0.00000  Uiso   1.00
C20    C     0.61807   0.43932   0.64986   0.00000  Uiso   1.00
C21    C     0.58612   0.53481   0.78170   0.00000  Uiso   1.00
C22    C     0.51205   0.44529   0.81135   0.00000  Uiso   1.00
C23    C     0.41189   0.46027   0.82869   0.00000  Uiso   1.00
H24    H     0.63451   0.80092   0.72756   0.00000  Uiso   1.00
H25    H     0.87183   0.98746   0.74631   0.00000  Uiso   1.00
H26    H     0.58304   0.71454   0.65516   0.00000  Uiso   1.00
H27    H     0.44160   0.72894   0.77785   0.00000  Uiso   1.00
H28    H     0.14601   0.14977   0.77234   0.00000  Uiso   1.00
H29    H     0.53704   0.57429   0.58014   0.00000  Uiso   1.00
H30    H     0.23879   0.60463   0.83886   0.00000  Uiso   1.00
H31    H     0.71970   0.45801   0.76805   0.00000  Uiso   1.00
H32    H     0.96171   0.62573   0.78903   0.00000  Uiso   1.00
H33    H     0.67292   0.35282   0.69788   0.00000  Uiso   1.00
H34    H     0.53148   0.36721   0.82057   0.00000  Uiso   1.00
H35    H     0.21897   0.85618   0.80702   0.00000  Uiso   1.00
H36    H     0.60998   0.28069   0.61482   0.00000  Uiso   1.00
H37    H     0.31174   0.31104   0.87354   0.00000  Uiso   1.00
O38    O     0.34016   0.11950   0.80273   0.00000  Uiso   1.00
O39    O     0.54118   0.36447   0.55058   0.00000  Uiso   1.00
O40    O     0.14990   0.40429   0.89001   0.00000  Uiso   1.00
N41    N     0.12996   0.05766   0.77763   0.00000  Uiso   1.00
N42    N     0.56063   0.51963   0.59793   0.00000  Uiso   1.00
N43    N     0.28176   0.54797   0.83981   0.00000  Uiso   1.00
N44    N     0.16922   0.89968   0.79629   0.00000  Uiso   1.00
N45    N     0.59988   0.36165   0.61659   0.00000  Uiso   1.00
N46    N     0.32102   0.39000   0.85847   0.00000  Uiso   1.00
C47    C     0.27764   0.93167   0.40350   0.00000  Uiso   1.00
C48    C     0.22384   0.01862   0.41931   0.00000  Uiso   1.00
C49    C     0.09060   0.98187   0.42220   0.00000  Uiso   1.00
C50    C     0.06181   0.07567   0.43745   0.00000  Uiso   1.00
C51    C     0.96292   0.19155   0.46017   0.00000  Uiso   1.00
C52    C     0.37211   0.01000   0.36978   0.00000  Uiso   1.00
C53    C     0.36355   0.96599   0.33103   0.00000  Uiso   1.00
C54    C     0.45959   0.05255   0.30459   0.00000  Uiso   1.00
C55    C     0.59096   0.15500   0.25042   0.00000  Uiso   1.00
C56    C     0.36428   0.92534   0.43645   0.00000  Uiso   1.00
C57    C     0.34917   0.81014   0.45374   0.00000  Uiso   1.00
C58    C     0.43863   0.82541   0.48342   0.00000  Uiso   1.00
C59    C     0.55784   0.79640   0.53276   0.00000  Uiso   1.00
C60    C     0.46342   0.16361   0.42544   0.00000  Uiso   1.00
C61    C     0.32475   0.14460   0.43123   0.00000  Uiso   1.00
C62    C     0.29615   0.23849   0.44648   0.00000  Uiso   1.00
C63    C     0.16290   0.20188   0.44940   0.00000  Uiso   1.00
C64    C     0.47302   0.13598   0.38170   0.00000  Uiso   1.00
C65    C     0.56910   0.22261   0.35531   0.00000  Uiso   1.00
C66    C     0.56068   0.17876   0.31653   0.00000  Uiso   1.00
C67    C     0.46519   0.05132   0.44836   0.00000  Uiso   1.00
C68    C     0.55471   0.06676   0.47802   0.00000  Uiso   1.00
C69    C     0.53973   0.95162   0.49536   0.00000  Uiso   1.00
H70    H     0.19908   0.83359   0.39422   0.00000  Uiso   1.00
H71    H     0.01254   0.88437   0.41297   0.00000  Uiso   1.00
H72    H     0.28546   0.86849   0.32182   0.00000  Uiso   1.00
H73    H     0.27106   0.71267   0.44451   0.00000  Uiso   1.00
H74    H     0.85023   0.99624   0.43901   0.00000  Uiso   1.00
H75    H     0.42571   0.96275   0.24681   0.00000  Uiso   1.00
H76    H     0.39537   0.63416   0.50553   0.00000  Uiso   1.00
H77    H     0.54199   0.26170   0.43472   0.00000  Uiso   1.00
H78    H     0.37427   0.33597   0.45570   0.00000  Uiso   1.00
H79    H     0.64718   0.32010   0.36454   0.00000  Uiso   1.00
H80    H     0.63279   0.16427   0.48723   0.00000  Uiso   1.00
H81    H     0.14382   0.36278   0.47368   0.00000  Uiso   1.00
H82    H     0.71931   0.32929   0.28148   0.00000  Uiso   1.00
H83    H     0.68896   0.00070   0.54020   0.00000  Uiso   1.00
O84    O     0.88050   0.22066   0.46940   0.00000  Uiso   1.00
O85    O     0.63553   0.17671   0.21725   0.00000  Uiso   1.00
O86    O     0.59571   0.74561   0.55668   0.00000  Uiso   1.00
N87    N     0.94234   0.07231   0.44430   0.00000  Uiso   1.00
N88    N     0.48037   0.04100   0.26460   0.00000  Uiso   1.00
N89    N     0.45203   0.73379   0.50647   0.00000  Uiso   1.00
N90    N     0.10032   0.26954   0.46296   0.00000  Uiso   1.00
N91    N     0.63835   0.23823   0.28326   0.00000  Uiso   1.00
N92    N     0.61000   0.93102   0.52513   0.00000  Uiso   1.00
C93    C     0.06833   0.34597   0.07017   0.00000  Uiso   1.00
C94    C     0.98138   0.20522   0.08598   0.00000  Uiso   1.00
C95    C     0.01813   0.10873   0.08887   0.00000  Uiso   1.00
C96    C     0.92433   0.98613   0.10412   0.00000  Uiso   1.00
C97    C     0.80845   0.77137   0.12684   0.00000  Uiso   1.00
C98    C     0.99000   0.36211   0.03645   0.00000  Uiso   1.00
C99    C     0.03401   0.39756   0.99770   0.00000  Uiso   1.00
C100   C     0.94745   0.40704   0.97126   0.00000  Uiso   1.00
C101   C     0.84500   0.43596   0.91709   0.00000  Uiso   1.00
C102   C     0.07466   0.43895   0.10311   0.00000  Uiso   1.00
C103   C     0.18986   0.53903   0.12041   0.00000  Uiso   1.00
C104   C     0.17459   0.61323   0.15009   0.00000  Uiso   1.00
C105   C     0.20360   0.76144   0.19942   0.00000  Uiso   1.00
C106   C     0.83639   0.29981   0.09211   0.00000  Uiso   1.00
C107   C     0.85540   0.18015   0.09789   0.00000  Uiso   1.00
C108   C     0.76151   0.05766   0.11315   0.00000  Uiso   1.00
C109   C     0.79812   0.96102   0.11606   0.00000  Uiso   1.00
C110   C     0.86402   0.33704   0.04836   0.00000  Uiso   1.00
C111   C     0.77739   0.34649   0.02198   0.00000  Uiso   1.00
C112   C     0.82124   0.38193   0.98320   0.00000  Uiso   1.00
C113   C     0.94868   0.41388   0.11503   0.00000  Uiso   1.00
C114   C     0.93324   0.48795   0.14469   0.00000  Uiso   1.00
C115   C     0.04838   0.58811   0.16203   0.00000  Uiso   1.00
H116   H     0.16641   0.36549   0.06089   0.00000  Uiso   1.00
H117   H     0.11563   0.12817   0.07964   0.00000  Uiso   1.00
H118   H     0.13151   0.41696   0.98849   0.00000  Uiso   1.00
H119   H     0.28733   0.55840   0.11118   0.00000  Uiso   1.00
H120   H     0.00376   0.85399   0.10567   0.00000  Uiso   1.00
H121   H     0.03725   0.46296   0.91348   0.00000  Uiso   1.00
H122   H     0.36584   0.76121   0.17220   0.00000  Uiso   1.00
H123   H     0.73830   0.28030   0.10139   0.00000  Uiso   1.00
H124   H     0.66403   0.03829   0.12237   0.00000  Uiso   1.00
H125   H     0.67990   0.32708   0.03121   0.00000  Uiso   1.00
H126   H     0.83573   0.46852   0.15390   0.00000  Uiso   1.00
H127   H     0.63722   0.78103   0.14035   0.00000  Uiso   1.00
H128   H     0.67071   0.39002   0.94815   0.00000  Uiso   1.00
H129   H     0.99930   0.68826   0.20687   0.00000  Uiso   1.00
O130   O     0.77934   0.65984   0.13607   0.00000  Uiso   1.00
O131   O     0.82329   0.45882   0.88391   0.00000  Uiso   1.00
O132   O     0.25439   0.85010   0.22335   0.00000  Uiso   1.00
N133   N     0.92769   0.87004   0.11096   0.00000  Uiso   1.00
N134   N     0.95900   0.43937   0.93127   0.00000  Uiso   1.00
N135   N     0.26621   0.71824   0.17314   0.00000  Uiso   1.00
N136   N     0.73046   0.83078   0.12962   0.00000  Uiso   1.00
N137   N     0.76177   0.40012   0.94993   0.00000  Uiso   1.00
N138   N     0.06898   0.67898   0.19180   0.00000  Uiso   1.00
C139   C     0.72236   0.65403   0.26316   0.00000  Uiso   1.00
C140   C     0.77616   0.79478   0.24736   0.00000  Uiso   1.00
C141   C     0.90940   0.89127   0.24446   0.00000  Uiso   1.00
C142   C     0.93819   0.01387   0.22921   0.00000  Uiso   1.00
C143   C     0.03708   0.22863   0.20650   0.00000  Uiso   1.00
C144   C     0.62789   0.63789   0.29688   0.00000  Uiso   1.00
C145   C     0.63645   0.60244   0.33563   0.00000  Uiso   1.00
C146   C     0.54041   0.59296   0.36207   0.00000  Uiso   1.00
C147   C     0.40904   0.56404   0.41625   0.00000  Uiso   1.00
C148   C     0.63572   0.56105   0.23022   0.00000  Uiso   1.00
C149   C     0.65083   0.46097   0.21292   0.00000  Uiso   1.00
C150   C     0.56137   0.38677   0.18324   0.00000  Uiso   1.00
C151   C     0.44216   0.23856   0.13391   0.00000  Uiso   1.00
C152   C     0.53658   0.70019   0.24122   0.00000  Uiso   1.00
C153   C     0.67525   0.81985   0.23544   0.00000  Uiso   1.00
C154   C     0.70385   0.94234   0.22019   0.00000  Uiso   1.00
C155   C     0.83710   0.03898   0.21727   0.00000  Uiso   1.00
C156   C     0.52698   0.66296   0.28497   0.00000  Uiso   1.00
C157   C     0.43090   0.65351   0.31136   0.00000  Uiso   1.00
C158   C     0.43932   0.61807   0.35014   0.00000  Uiso   1.00
C159   C     0.53481   0.58612   0.21830   0.00000  Uiso   1.00
C160   C     0.44529   0.51205   0.18865   0.00000  Uiso   1.00
C161   C     0.46027   0.41189   0.17131   0.00000  Uiso   1.00
H162   H     0.80092   0.63451   0.27244   0.00000  Uiso   1.00
H163   H     0.98746   0.87183   0.25369   0.00000  Uiso   1.00
H164   H     0.71454   0.58304   0.34484   0.00000  Uiso   1.00
H165   H     0.72894   0.44160   0.22215   0.00000  Uiso   1.00
H166   H     0.14977   0.14601   0.22766   0.00000  Uiso   1.00
H167   H     0.57429   0.53704   0.41986   0.00000  Uiso   1.00
H168   H     0.60463   0.23879   0.16114   0.00000  Uiso   1.00
H169   H     0.45801   0.71970   0.23195   0.00000  Uiso   1.00
H170   H     0.62573   0.96171   0.21097   0.00000  Uiso   1.00
H171   H     0.35282   0.67292   0.30212   0.00000  Uiso   1.00
H172   H     0.36721   0.53148   0.17943   0.00000  Uiso   1.00
H173   H     0.85618   0.21897   0.19298   0.00000  Uiso   1.00
H174   H     0.28069   0.60998   0.38518   0.00000  Uiso   1.00
H175   H     0.31104   0.31174   0.12646   0.00000  Uiso   1.00
O176   O     0.11950   0.34016   0.19727   0.00000  Uiso   1.00
O177   O     0.36447   0.54118   0.44942   0.00000  Uiso   1.00
O178   O     0.40429   0.14990   0.10999   0.00000  Uiso   1.00
N179   N     0.05766   0.12996   0.22237   0.00000  Uiso   1.00
N180   N     0.51963   0.56063   0.40207   0.00000  Uiso   1.00
N181   N     0.54797   0.28176   0.16019   0.00000  Uiso   1.00
N182   N     0.89968   0.16922   0.20371   0.00000  Uiso   1.00
N183   N     0.36165   0.59988   0.38341   0.00000  Uiso   1.00
N184   N     0.39000   0.32102   0.14153   0.00000  Uiso   1.00
C185   C     0.93167   0.27764   0.59650   0.00000  Uiso   1.00
C186   C     0.01862   0.22384   0.58069   0.00000  Uiso   1.00
C187   C     0.98187   0.09060   0.57780   0.00000  Uiso   1.00
C188   C     0.07567   0.06181   0.56255   0.00000  Uiso   1.00
C189   C     0.19155   0.96292   0.53983   0.00000  Uiso   1.00
C190   C     0.01000   0.37211   0.63022   0.00000  Uiso   1.00
C191   C     0.96599   0.36355   0.66897   0.00000  Uiso   1.00
C192   C     0.05255   0.45959   0.69541   0.00000  Uiso   1.00
C193   C     0.15500   0.59096   0.74958   0.00000  Uiso   1.00
C194   C     0.92534   0.36428   0.56355   0.00000  Uiso   1.00
C195   C     0.81014   0.34917   0.54626   0.00000  Uiso   1.00
C196   C     0.82541   0.43863   0.51658   0.00000  Uiso   1.00
C197   C     0.79640   0.55784   0.46724   0.00000  Uiso   1.00
C198   C     0.16361   0.46342   0.57456   0.00000  Uiso   1.00
C199   C     0.14460   0.32475   0.56877   0.00000  Uiso   1.00
C200   C     0.23849   0.29615   0.55352   0.00000  Uiso   1.00
C201   C     0.20188   0.16290   0.55060   0.00000  Uiso   1.00
C202   C     0.13598   0.47302   0.61830   0.00000  Uiso   1.00
C203   C     0.22261   0.56910   0.64469   0.00000  Uiso   1.00
C204   C     0.17876   0.56068   0.68347   0.00000  Uiso   1.00
C205   C     0.05132   0.46519   0.55164   0.00000  Uiso   1.00
C206   C     0.06676   0.55471   0.52198   0.00000  Uiso   1.00
C207   C     0.95162   0.53973   0.50464   0.00000  Uiso   1.00
H208   H     0.83359   0.19908   0.60578   0.00000  Uiso   1.00
H209   H     0.88437   0.01254   0.58703   0.00000  Uiso   1.00
H210   H     0.86849   0.28546   0.67818   0.00000  Uiso   1.00
H211   H     0.71267   0.27106   0.55549   0.00000  Uiso   1.00
H212   H     0.99624   0.85023   0.56099   0.00000  Uiso   1.00
H213   H     0.96275   0.42571   0.75319   0.00000  Uiso   1.00
H214   H     0.63416   0.39537   0.49447   0.00000  Uiso   1.00
H215   H     0.26170   0.54199   0.56528   0.00000  Uiso   1.00
H216   H     0.33597   0.37427   0.54430   0.00000  Uiso   1.00
H217   H     0.32010   0.64718   0.63546   0.00000  Uiso   1.00
H218   H     0.16427   0.63279   0.51277   0.00000  Uiso   1.00
H219   H     0.36278   0.14382   0.52632   0.00000  Uiso   1.00
H220   H     0.32929   0.71931   0.71852   0.00000  Uiso   1.00
H221   H     0.00070   0.68896   0.45980   0.00000  Uiso   1.00
O222   O     0.22066   0.88050   0.53060   0.00000  Uiso   1.00
O223   O     0.17671   0.63553   0.78275   0.00000  Uiso   1.00
O224   O     0.74561   0.59571   0.44332   0.00000  Uiso   1.00
N225   N     0.07231   0.94234   0.55570   0.00000  Uiso   1.00
N226   N     0.04100   0.48037   0.73540   0.00000  Uiso   1.00
N227   N     0.73379   0.45203   0.49353   0.00000  Uiso   1.00
N228   N     0.26954   0.10032   0.53704   0.00000  Uiso   1.00
N229   N     0.23823   0.63835   0.71674   0.00000  Uiso   1.00
N230   N     0.93102   0.61000   0.47487   0.00000  Uiso   1.00
C231   C     0.34597   0.06833   0.92983   0.00000  Uiso   1.00
C232   C     0.20522   0.98138   0.91402   0.00000  Uiso   1.00
C233   C     0.10873   0.01813   0.91113   0.00000  Uiso   1.00
C234   C     0.98613   0.92433   0.89588   0.00000  Uiso   1.00
C235   C     0.77137   0.80845   0.87316   0.00000  Uiso   1.00
C236   C     0.36211   0.99000   0.96355   0.00000  Uiso   1.00
C237   C     0.39756   0.03401   0.00230   0.00000  Uiso   1.00
C238   C     0.40704   0.94745   0.02874   0.00000  Uiso   1.00
C239   C     0.43596   0.84500   0.08291   0.00000  Uiso   1.00
C240   C     0.43895   0.07466   0.89689   0.00000  Uiso   1.00
C241   C     0.53903   0.18986   0.87959   0.00000  Uiso   1.00
C242   C     0.61323   0.17459   0.84991   0.00000  Uiso   1.00
C243   C     0.76144   0.20360   0.80058   0.00000  Uiso   1.00
C244   C     0.29981   0.83639   0.90789   0.00000  Uiso   1.00
C245   C     0.18015   0.85540   0.90211   0.00000  Uiso   1.00
C246   C     0.05766   0.76151   0.88685   0.00000  Uiso   1.00
C247   C     0.96102   0.79812   0.88394   0.00000  Uiso   1.00
C248   C     0.33704   0.86402   0.95164   0.00000  Uiso   1.00
C249   C     0.34649   0.77739   0.97802   0.00000  Uiso   1.00
C250   C     0.38193   0.82124   0.01680   0.00000  Uiso   1.00
C251   C     0.41388   0.94868   0.88497   0.00000  Uiso   1.00
C252   C     0.48795   0.93324   0.85531   0.00000  Uiso   1.00
C253   C     0.58811   0.04838   0.83797   0.00000  Uiso   1.00
H254   H     0.36549   0.16641   0.93911   0.00000  Uiso   1.00
H255   H     0.12817   0.11563   0.92036   0.00000  Uiso   1.00
H256   H     0.41696   0.13151   0.01151   0.00000  Uiso   1.00
H257   H     0.55840   0.28733   0.88882   0.00000  Uiso   1.00
H258   H     0.85399   0.00376   0.89433   0.00000  Uiso   1.00
H259   H     0.46296   0.03725   0.08652   0.00000  Uiso   1.00
H260   H     0.76121   0.36584   0.82780   0.00000  Uiso   1.00
H261   H     0.28030   0.73830   0.89861   0.00000  Uiso   1.00
H262   H     0.03829   0.66403   0.87763   0.00000  Uiso   1.00
H263   H     0.32708   0.67990   0.96879   0.00000  Uiso   1.00
H264   H     0.46852   0.83573   0.84610   0.00000  Uiso   1.00
H265   H     0.78103   0.63722   0.85965   0.00000  Uiso   1.00
H266   H     0.39002   0.67071   0.05185   0.00000  Uiso   1.00
H267   H     0.68826   0.99930   0.79313   0.00000  Uiso   1.00
O268   O     0.65984   0.77934   0.86393   0.00000  Uiso   1.00
O269   O     0.45882   0.82329   0.11609   0.00000  Uiso   1.00
O270   O     0.85010   0.25439   0.77665   0.00000  Uiso   1.00
N271   N     0.87004   0.92769   0.88904   0.00000  Uiso   1.00
N272   N     0.43937   0.95900   0.06873   0.00000  Uiso   1.00
N273   N     0.71824   0.26621   0.82686   0.00000  Uiso   1.00
N274   N     0.83078   0.73046   0.87038   0.00000  Uiso   1.00
N275   N     0.40012   0.76177   0.05007   0.00000  Uiso   1.00
N276   N     0.67898   0.06898   0.80820   0.00000  Uiso   1.00
