data_job_06939
_audit_creation_date              2018-12-19
_audit_creation_method            'Materials Studio'
_symmetry_space_group_name_H-M    'P1'
_symmetry_Int_Tables_number       1
_symmetry_cell_setting            triclinic
loop_
_symmetry_equiv_pos_as_xyz
  x,y,z
_cell_length_a                    21.7143
_cell_length_b                    22.2944
_cell_length_c                    27.1793
_cell_angle_alpha                 69.3173
_cell_angle_beta                  89.6585
_cell_angle_gamma                 63.1000
loop_
_atom_site_label
_atom_site_type_symbol
_atom_site_fract_x
_atom_site_fract_y
_atom_site_fract_z
_atom_site_U_iso_or_equiv
_atom_site_adp_type
_atom_site_occupancy
C1     C     0.57318   0.93862   0.72529   0.00000  Uiso   1.00
C2     C     0.58008   0.00723   0.71349   0.00000  Uiso   1.00
C3     C     0.64168   0.01161   0.70806   0.00000  Uiso   1.00
C4     C     0.63704   0.07935   0.69730   0.00000  Uiso   1.00
C5     C     0.65750   0.17658   0.67979   0.00000  Uiso   1.00
C6     C     0.54131   0.92763   0.77576   0.00000  Uiso   1.00
C7     C     0.57031   0.86508   0.82268   0.00000  Uiso   1.00
C8     C     0.53302   0.86582   0.86434   0.00000  Uiso   1.00
C9     C     0.49327   0.83945   0.94349   0.00000  Uiso   1.00
C10    C     0.51742   0.95812   0.68014   0.00000  Uiso   1.00
C11    C     0.52632   0.92119   0.64666   0.00000  Uiso   1.00
C12    C     0.46891   0.94759   0.60782   0.00000  Uiso   1.00
C13    C     0.39207   0.96855   0.53850   0.00000  Uiso   1.00
C14    C     0.45540   0.05115   0.71584   0.00000  Uiso   1.00
C15    C     0.51611   0.06835   0.70836   0.00000  Uiso   1.00
C16    C     0.51137   0.13611   0.69761   0.00000  Uiso   1.00
C17    C     0.57295   0.14059   0.69216   0.00000  Uiso   1.00
C18    C     0.47734   0.98875   0.77063   0.00000  Uiso   1.00
C19    C     0.44000   0.98958   0.81223   0.00000  Uiso   1.00
C20    C     0.46894   0.92706   0.85920   0.00000  Uiso   1.00
C21    C     0.45345   0.01924   0.67501   0.00000  Uiso   1.00
C22    C     0.39602   0.04570   0.63621   0.00000  Uiso   1.00
C23    C     0.40483   0.00882   0.60268   0.00000  Uiso   1.00
H24    H     0.62298   0.89103   0.72929   0.00000  Uiso   1.00
H25    H     0.69118   0.96429   0.71204   0.00000  Uiso   1.00
H26    H     0.61981   0.81779   0.82664   0.00000  Uiso   1.00
H27    H     0.57583   0.87389   0.65065   0.00000  Uiso   1.00
H28    H     0.73858   0.07246   0.69067   0.00000  Uiso   1.00
H29    H     0.58809   0.76354   0.93231   0.00000  Uiso   1.00
H30    H     0.49535   0.88185   0.56119   0.00000  Uiso   1.00
H31    H     0.40559   0.09874   0.71185   0.00000  Uiso   1.00
H32    H     0.46186   0.18340   0.69364   0.00000  Uiso   1.00
H33    H     0.39050   0.03689   0.80824   0.00000  Uiso   1.00
H34    H     0.34652   0.09300   0.63225   0.00000  Uiso   1.00
H35    H     0.55246   0.25030   0.67574   0.00000  Uiso   1.00
H36    H     0.40197   0.94137   0.91738   0.00000  Uiso   1.00
H37    H     0.30923   0.05968   0.54626   0.00000  Uiso   1.00
O38    O     0.68646   0.21332   0.67156   0.00000  Uiso   1.00
O39    O     0.48902   0.80802   0.98857   0.00000  Uiso   1.00
O40    O     0.36735   0.96324   0.50168   0.00000  Uiso   1.00
N41    N     0.68705   0.10270   0.68965   0.00000  Uiso   1.00
N42    N     0.54636   0.81388   0.91556   0.00000  Uiso   1.00
N43    N     0.45965   0.92448   0.56861   0.00000  Uiso   1.00
N44    N     0.58690   0.19839   0.68161   0.00000  Uiso   1.00
N45    N     0.44621   0.90957   0.90753   0.00000  Uiso   1.00
N46    N     0.35950   0.02017   0.56057   0.00000  Uiso   1.00
C47    C     0.11772   0.15322   0.52069   0.00000  Uiso   1.00
C48    C     0.14578   0.17123   0.56177   0.00000  Uiso   1.00
C49    C     0.18292   0.12240   0.61306   0.00000  Uiso   1.00
C50    C     0.20399   0.14956   0.64451   0.00000  Uiso   1.00
C51    C     0.24990   0.16638   0.71123   0.00000  Uiso   1.00
C52    C     0.03897   0.20609   0.50490   0.00000  Uiso   1.00
C53    C     0.98631   0.18657   0.50837   0.00000  Uiso   1.00
C54    C     0.91746   0.24308   0.49194   0.00000  Uiso   1.00
C55    C     0.79754   0.31402   0.47033   0.00000  Uiso   1.00
C56    C     0.14880   0.17490   0.47117   0.00000  Uiso   1.00
C57    C     0.18846   0.12915   0.44626   0.00000  Uiso   1.00
C58    C     0.21207   0.15941   0.40142   0.00000  Uiso   1.00
C59    C     0.26266   0.18192   0.32743   0.00000  Uiso   1.00
C60    C     0.08910   0.28830   0.48533   0.00000  Uiso   1.00
C61    C     0.13023   0.24460   0.54256   0.00000  Uiso   1.00
C62    C     0.15125   0.27184   0.57394   0.00000  Uiso   1.00
C63    C     0.18842   0.22306   0.62527   0.00000  Uiso   1.00
C64    C     0.02342   0.27946   0.48570   0.00000  Uiso   1.00
C65    C     0.95464   0.33601   0.46925   0.00000  Uiso   1.00
C66    C     0.90189   0.31658   0.47270   0.00000  Uiso   1.00
C67    C     0.13325   0.24827   0.45196   0.00000  Uiso   1.00
C68    C     0.15679   0.27860   0.40714   0.00000  Uiso   1.00
C69    C     0.19649   0.23291   0.38218   0.00000  Uiso   1.00
H70    H     0.12982   0.09610   0.53564   0.00000  Uiso   1.00
H71    H     0.19494   0.06563   0.62791   0.00000  Uiso   1.00
H72    H     0.99836   0.12979   0.52323   0.00000  Uiso   1.00
H73    H     0.20048   0.07238   0.46113   0.00000  Uiso   1.00
H74    H     0.26025   0.06420   0.72175   0.00000  Uiso   1.00
H75    H     0.84575   0.19949   0.50101   0.00000  Uiso   1.00
H76    H     0.27196   0.07844   0.37006   0.00000  Uiso   1.00
H77    H     0.07699   0.34542   0.47038   0.00000  Uiso   1.00
H78    H     0.13921   0.32862   0.55907   0.00000  Uiso   1.00
H79    H     0.94263   0.39278   0.45439   0.00000  Uiso   1.00
H80    H     0.14475   0.33538   0.39229   0.00000  Uiso   1.00
H81    H     0.21502   0.27766   0.66587   0.00000  Uiso   1.00
H82    H     0.80051   0.41295   0.44513   0.00000  Uiso   1.00
H83    H     0.22673   0.29190   0.31419   0.00000  Uiso   1.00
O84    O     0.27950   0.15539   0.75334   0.00000  Uiso   1.00
O85    O     0.73569   0.33288   0.46373   0.00000  Uiso   1.00
O86    O     0.29488   0.17406   0.29193   0.00000  Uiso   1.00
N87    N     0.24108   0.11674   0.69642   0.00000  Uiso   1.00
N88    N     0.85354   0.24323   0.49005   0.00000  Uiso   1.00
N89    N     0.25200   0.13006   0.36762   0.00000  Uiso   1.00
N90    N     0.21674   0.23160   0.66636   0.00000  Uiso   1.00
N91    N     0.82921   0.35809   0.45999   0.00000  Uiso   1.00
N92    N     0.22767   0.24492   0.33755   0.00000  Uiso   1.00
C93    C     0.43796   0.30721   0.41274   0.00000  Uiso   1.00
C94    C     0.40894   0.31312   0.46304   0.00000  Uiso   1.00
C95    C     0.33974   0.33369   0.46930   0.00000  Uiso   1.00
C96    C     0.32370   0.33575   0.51840   0.00000  Uiso   1.00
C97    C     0.27082   0.34767   0.59021   0.00000  Uiso   1.00
C98    C     0.47158   0.35672   0.39721   0.00000  Uiso   1.00
C99    C     0.45504   0.41394   0.34810   0.00000  Uiso   1.00
C100   C     0.49174   0.45269   0.34178   0.00000  Uiso   1.00
C101   C     0.53614   0.53228   0.31136   0.00000  Uiso   1.00
C102   C     0.49819   0.22925   0.43011   0.00000  Uiso   1.00
C103   C     0.50403   0.17929   0.40866   0.00000  Uiso   1.00
C104   C     0.56315   0.11073   0.43003   0.00000  Uiso   1.00
C105   C     0.64886   0.99239   0.45070   0.00000  Uiso   1.00
C106   C     0.53255   0.27429   0.48882   0.00000  Uiso   1.00
C107   C     0.46032   0.29524   0.50437   0.00000  Uiso   1.00
C108   C     0.44439   0.29726   0.55347   0.00000  Uiso   1.00
C109   C     0.37517   0.31783   0.55980   0.00000  Uiso   1.00
C110   C     0.52295   0.33884   0.43853   0.00000  Uiso   1.00
C111   C     0.55969   0.37751   0.43228   0.00000  Uiso   1.00
C112   C     0.54321   0.43478   0.38318   0.00000  Uiso   1.00
C113   C     0.54956   0.21136   0.47143   0.00000  Uiso   1.00
C114   C     0.60868   0.14286   0.49284   0.00000  Uiso   1.00
C115   C     0.61462   0.09281   0.47143   0.00000  Uiso   1.00
H116   H     0.39796   0.32114   0.38057   0.00000  Uiso   1.00
H117   H     0.29999   0.34753   0.43730   0.00000  Uiso   1.00
H118   H     0.41528   0.42776   0.31613   0.00000  Uiso   1.00
H119   H     0.46427   0.19315   0.37668   0.00000  Uiso   1.00
H120   H     0.21402   0.36893   0.51843   0.00000  Uiso   1.00
H121   H     0.45714   0.53809   0.26291   0.00000  Uiso   1.00
H122   H     0.56043   0.04336   0.39060   0.00000  Uiso   1.00
H123   H     0.57255   0.26037   0.52099   0.00000  Uiso   1.00
H124   H     0.48416   0.28342   0.58544   0.00000  Uiso   1.00
H125   H     0.59945   0.36366   0.46426   0.00000  Uiso   1.00
H126   H     0.64843   0.12904   0.52482   0.00000  Uiso   1.00
H127   H     0.36350   0.31690   0.63866   0.00000  Uiso   1.00
H128   H     0.60662   0.48606   0.38314   0.00000  Uiso   1.00
H129   H     0.70991   0.99133   0.51083   0.00000  Uiso   1.00
O130   O     0.22745   0.35920   0.61840   0.00000  Uiso   1.00
O131   O     0.54643   0.58112   0.28317   0.00000  Uiso   1.00
O132   O     0.68194   0.93205   0.45070   0.00000  Uiso   1.00
N133   N     0.26133   0.35350   0.53788   0.00000  Uiso   1.00
N134   N     0.48863   0.51167   0.29899   0.00000  Uiso   1.00
N135   N     0.58520   0.04915   0.41836   0.00000  Uiso   1.00
N136   N     0.34176   0.32551   0.60258   0.00000  Uiso   1.00
N137   N     0.56906   0.48367   0.36369   0.00000  Uiso   1.00
N138   N     0.66564   0.02115   0.48306   0.00000  Uiso   1.00
C139   C     0.06076   0.21352   0.19471   0.00000  Uiso   1.00
C140   C     0.05530   0.18193   0.25328   0.00000  Uiso   1.00
C141   C     0.10667   0.11759   0.29254   0.00000  Uiso   1.00
C142   C     0.09159   0.09809   0.34372   0.00000  Uiso   1.00
C143   C     0.09288   0.04246   0.43293   0.00000  Uiso   1.00
C144   C     0.04817   0.29067   0.18313   0.00000  Uiso   1.00
C145   C     0.09354   0.31775   0.16340   0.00000  Uiso   1.00
C146   C     0.07245   0.38980   0.15551   0.00000  Uiso   1.00
C147   C     0.06265   0.50301   0.13577   0.00000  Uiso   1.00
C148   C     0.99785   0.22264   0.16218   0.00000  Uiso   1.00
C149   C     0.00092   0.19254   0.12482   0.00000  Uiso   1.00
C150   C     0.93746   0.20732   0.09929   0.00000  Uiso   1.00
C151   C     0.84954   0.21490   0.04702   0.00000  Uiso   1.00
C152   C     0.94261   0.29332   0.21580   0.00000  Uiso   1.00
C153   C     0.99113   0.22528   0.26473   0.00000  Uiso   1.00
C154   C     0.97596   0.20587   0.31587   0.00000  Uiso   1.00
C155   C     0.02730   0.14150   0.35520   0.00000  Uiso   1.00
C156   C     0.98400   0.33402   0.19458   0.00000  Uiso   1.00
C157   C     0.96283   0.40604   0.18672   0.00000  Uiso   1.00
C158   C     0.00816   0.43322   0.16698   0.00000  Uiso   1.00
C159   C     0.93368   0.26598   0.17363   0.00000  Uiso   1.00
C160   C     0.87020   0.28082   0.14815   0.00000  Uiso   1.00
C161   C     0.87317   0.25074   0.11076   0.00000  Uiso   1.00
H162   H     0.11072   0.17978   0.18580   0.00000  Uiso   1.00
H163   H     0.15633   0.08406   0.28367   0.00000  Uiso   1.00
H164   H     0.14320   0.28420   0.15453   0.00000  Uiso   1.00
H165   H     0.05059   0.15900   0.11597   0.00000  Uiso   1.00
H166   H     0.17861   0.99707   0.39722   0.00000  Uiso   1.00
H167   H     0.15090   0.41908   0.12493   0.00000  Uiso   1.00
H168   H     0.95562   0.15507   0.04361   0.00000  Uiso   1.00
H169   H     0.89265   0.32706   0.22471   0.00000  Uiso   1.00
H170   H     0.92629   0.23942   0.32472   0.00000  Uiso   1.00
H171   H     0.91316   0.43956   0.19558   0.00000  Uiso   1.00
H172   H     0.82055   0.31436   0.15702   0.00000  Uiso   1.00
H173   H     0.99190   0.12316   0.43054   0.00000  Uiso   1.00
H174   H     0.96420   0.54518   0.15824   0.00000  Uiso   1.00
H175   H     0.76891   0.28117   0.07692   0.00000  Uiso   1.00
O176   O     0.11133   0.99982   0.47897   0.00000  Uiso   1.00
O177   O     0.07498   0.55348   0.12172   0.00000  Uiso   1.00
O178   O     0.81877   0.20710   0.01503   0.00000  Uiso   1.00
N179   N     0.13005   0.03876   0.39134   0.00000  Uiso   1.00
N180   N     0.10415   0.43332   0.13676   0.00000  Uiso   1.00
N181   N     0.92158   0.18650   0.06073   0.00000  Uiso   1.00
N182   N     0.02958   0.10661   0.40927   0.00000  Uiso   1.00
N183   N     0.00368   0.50117   0.15469   0.00000  Uiso   1.00
N184   N     0.82111   0.25436   0.07865   0.00000  Uiso   1.00
C185   C     0.56354   0.36202   0.02961   0.00000  Uiso   1.00
C186   C     0.58203   0.42119   0.02730   0.00000  Uiso   1.00
C187   C     0.58740   0.47051   0.98137   0.00000  Uiso   1.00
C188   C     0.60486   0.52040   0.98767   0.00000  Uiso   1.00
C189   C     0.63177   0.61222   0.97641   0.00000  Uiso   1.00
C190   C     0.49955   0.37556   0.05662   0.00000  Uiso   1.00
C191   C     0.43559   0.38652   0.03534   0.00000  Uiso   1.00
C192   C     0.38363   0.39800   0.06633   0.00000  Uiso   1.00
C193   C     0.28250   0.41893   0.10061   0.00000  Uiso   1.00
C194   C     0.62373   0.28994   0.06855   0.00000  Uiso   1.00
C195   C     0.66416   0.22889   0.05730   0.00000  Uiso   1.00
C196   C     0.71673   0.16828   0.09834   0.00000  Uiso   1.00
C197   C     0.80841   0.05627   0.15113   0.00000  Uiso   1.00
C198   C     0.58499   0.36293   0.12248   0.00000  Uiso   1.00
C199   C     0.59368   0.42168   0.07775   0.00000  Uiso   1.00
C200   C     0.61114   0.47151   0.08412   0.00000  Uiso   1.00
C201   C     0.61654   0.52090   0.03821   0.00000  Uiso   1.00
C202   C     0.51120   0.37606   0.10707   0.00000  Uiso   1.00
C203   C     0.45932   0.38752   0.13810   0.00000  Uiso   1.00
C204   C     0.39530   0.39849   0.11687   0.00000  Uiso   1.00
C205   C     0.63538   0.29043   0.11899   0.00000  Uiso   1.00
C206   C     0.68790   0.22990   0.16006   0.00000  Uiso   1.00
C207   C     0.72840   0.16877   0.14888   0.00000  Uiso   1.00
H208   H     0.55446   0.36164   0.99034   0.00000  Uiso   1.00
H209   H     0.57838   0.47011   0.94234   0.00000  Uiso   1.00
H210   H     0.42659   0.38613   0.99631   0.00000  Uiso   1.00
H211   H     0.65513   0.22853   0.01826   0.00000  Uiso   1.00
H212   H     0.61000   0.59061   0.91137   0.00000  Uiso   1.00
H213   H     0.28996   0.41350   0.02517   0.00000  Uiso   1.00
H214   H     0.77187   0.08117   0.07147   0.00000  Uiso   1.00
H215   H     0.59406   0.36331   0.16176   0.00000  Uiso   1.00
H216   H     0.62015   0.47188   0.12317   0.00000  Uiso   1.00
H217   H     0.46836   0.38790   0.17713   0.00000  Uiso   1.00
H218   H     0.69690   0.23030   0.19909   0.00000  Uiso   1.00
H219   H     0.64390   0.59205   0.05813   0.00000  Uiso   1.00
H220   H     0.32386   0.41493   0.17194   0.00000  Uiso   1.00
H221   H     0.80578   0.08261   0.21823   0.00000  Uiso   1.00
O222   O     0.64338   0.66273   0.95627   0.00000  Uiso   1.00
O223   O     0.22350   0.43035   0.10558   0.00000  Uiso   1.00
O224   O     0.85576   0.99436   0.16632   0.00000  Uiso   1.00
N225   N     0.61441   0.57604   0.95121   0.00000  Uiso   1.00
N226   N     0.31519   0.41046   0.05760   0.00000  Uiso   1.00
N227   N     0.76573   0.09976   0.10089   0.00000  Uiso   1.00
N228   N     0.63266   0.57681   0.03018   0.00000  Uiso   1.00
N229   N     0.33343   0.41123   0.13658   0.00000  Uiso   1.00
N230   N     0.78397   0.10053   0.17986   0.00000  Uiso   1.00
C231   C     0.80133   0.00371   0.35509   0.00000  Uiso   1.00
C232   C     0.72929   0.07152   0.33255   0.00000  Uiso   1.00
C233   C     0.66787   0.07295   0.31660   0.00000  Uiso   1.00
C234   C     0.60737   0.14046   0.29707   0.00000  Uiso   1.00
C235   C     0.49535   0.23606   0.26263   0.00000  Uiso   1.00
C236   C     0.82535   0.99976   0.40928   0.00000  Uiso   1.00
C237   C     0.84471   0.94085   0.45785   0.00000  Uiso   1.00
C238   C     0.86509   0.94795   0.50291   0.00000  Uiso   1.00
C239   C     0.90226   0.93212   0.58759   0.00000  Uiso   1.00
C240   C     0.85057   0.02025   0.31911   0.00000  Uiso   1.00
C241   C     0.89116   0.97856   0.29186   0.00000  Uiso   1.00
C242   C     0.93279   0.00290   0.26102   0.00000  Uiso   1.00
C243   C     0.00912   0.01888   0.20568   0.00000  Uiso   1.00
C244   C     0.80310   0.12104   0.34877   0.00000  Uiso   1.00
C245   C     0.73025   0.13525   0.32912   0.00000  Uiso   1.00
C246   C     0.66983   0.20277   0.30961   0.00000  Uiso   1.00
C247   C     0.60833   0.20431   0.29363   0.00000  Uiso   1.00
C248   C     0.82631   0.06349   0.40585   0.00000  Uiso   1.00
C249   C     0.84667   0.07067   0.45086   0.00000  Uiso   1.00
C250   C     0.86605   0.01180   0.49948   0.00000  Uiso   1.00
C251   C     0.85154   0.08398   0.31567   0.00000  Uiso   1.00
C252   C     0.89311   0.10839   0.28487   0.00000  Uiso   1.00
C253   C     0.93375   0.06675   0.25758   0.00000  Uiso   1.00
H254   H     0.80059   0.95409   0.35777   0.00000  Uiso   1.00
H255   H     0.66715   0.02362   0.31927   0.00000  Uiso   1.00
H256   H     0.84397   0.89154   0.46049   0.00000  Uiso   1.00
H257   H     0.89040   0.92925   0.29453   0.00000  Uiso   1.00
H258   H     0.51962   0.12881   0.27509   0.00000  Uiso   1.00
H259   H     0.89248   0.85031   0.57286   0.00000  Uiso   1.00
H260   H     0.99041   0.92981   0.22290   0.00000  Uiso   1.00
H261   H     0.80385   0.17066   0.34610   0.00000  Uiso   1.00
H262   H     0.67059   0.25208   0.30696   0.00000  Uiso   1.00
H263   H     0.84741   0.12000   0.44818   0.00000  Uiso   1.00
H264   H     0.89385   0.15771   0.28222   0.00000  Uiso   1.00
H265   H     0.52241   0.31424   0.26511   0.00000  Uiso   1.00
H266   H     0.89528   0.03573   0.56288   0.00000  Uiso   1.00
H267   H     0.99320   0.11524   0.21291   0.00000  Uiso   1.00
O268   O     0.43329   0.27118   0.24458   0.00000  Uiso   1.00
O269   O     0.92248   0.90578   0.63524   0.00000  Uiso   1.00
O270   O     0.05095   0.01009   0.17610   0.00000  Uiso   1.00
N271   N     0.53857   0.16128   0.27810   0.00000  Uiso   1.00
N272   N     0.88716   0.90090   0.55650   0.00000  Uiso   1.00
N273   N     0.97873   0.97522   0.22933   0.00000  Uiso   1.00
N274   N     0.54007   0.26106   0.27273   0.00000  Uiso   1.00
N275   N     0.88867   0.00068   0.55113   0.00000  Uiso   1.00
N276   N     0.98023   0.07500   0.22395   0.00000  Uiso   1.00
C277   C     0.26977   0.96655   0.20209   0.00000  Uiso   1.00
C278   C     0.26125   0.90121   0.23713   0.00000  Uiso   1.00
C279   C     0.20026   0.90443   0.25499   0.00000  Uiso   1.00
C280   C     0.20317   0.83851   0.28665   0.00000  Uiso   1.00
C281   C     0.18054   0.74719   0.33901   0.00000  Uiso   1.00
C282   C     0.29501   0.95169   0.15305   0.00000  Uiso   1.00
C283   C     0.26241   0.99737   0.10024   0.00000  Uiso   1.00
C284   C     0.29375   0.97394   0.06112   0.00000  Uiso   1.00
C285   C     0.32356   0.96102   0.98296   0.00000  Uiso   1.00
C286   C     0.33093   0.96261   0.23284   0.00000  Uiso   1.00
C287   C     0.32853   0.01747   0.24710   0.00000  Uiso   1.00
C288   C     0.39011   0.00324   0.27516   0.00000  Uiso   1.00
C289   C     0.47569   0.00727   0.32088   0.00000  Uiso   1.00
C290   C     0.38341   0.84374   0.22654   0.00000  Uiso   1.00
C291   C     0.32297   0.83450   0.25041   0.00000  Uiso   1.00
C292   C     0.32598   0.76856   0.28205   0.00000  Uiso   1.00
C293   C     0.26500   0.77168   0.29996   0.00000  Uiso   1.00
C294   C     0.35673   0.88499   0.16633   0.00000  Uiso   1.00
C295   C     0.38813   0.86149   0.12729   0.00000  Uiso   1.00
C296   C     0.35558   0.90712   0.07443   0.00000  Uiso   1.00
C297   C     0.39265   0.89590   0.24613   0.00000  Uiso   1.00
C298   C     0.45425   0.88159   0.27416   0.00000  Uiso   1.00
C299   C     0.45195   0.93642   0.28846   0.00000  Uiso   1.00
H300   H     0.22172   0.01849   0.19175   0.00000  Uiso   1.00
H301   H     0.15250   0.95607   0.24470   0.00000  Uiso   1.00
H302   H     0.21465   0.04899   0.08997   0.00000  Uiso   1.00
H303   H     0.28076   0.06908   0.23682   0.00000  Uiso   1.00
H304   H     0.10297   0.85744   0.30926   0.00000  Uiso   1.00
H305   H     0.23402   0.05338   0.98299   0.00000  Uiso   1.00
H306   H     0.37343   0.09576   0.29265   0.00000  Uiso   1.00
H307   H     0.43146   0.79181   0.23688   0.00000  Uiso   1.00
H308   H     0.37375   0.71694   0.29232   0.00000  Uiso   1.00
H309   H     0.43589   0.80987   0.13758   0.00000  Uiso   1.00
H310   H     0.50200   0.82996   0.28443   0.00000  Uiso   1.00
H311   H     0.28254   0.66336   0.34790   0.00000  Uiso   1.00
H312   H     0.41359   0.85931   0.02164   0.00000  Uiso   1.00
H313   H     0.55300   0.90168   0.33129   0.00000  Uiso   1.00
O314   O     0.15100   0.71524   0.36422   0.00000  Uiso   1.00
O315   O     0.32294   0.97232   0.93617   0.00000  Uiso   1.00
O316   O     0.50584   0.02792   0.34243   0.00000  Uiso   1.00
N317   N     0.15316   0.82204   0.31075   0.00000  Uiso   1.00
N318   N     0.27567   0.00523   0.00572   0.00000  Uiso   1.00
N319   N     0.40601   0.04486   0.29520   0.00000  Uiso   1.00
N320   N     0.24978   0.71760   0.33155   0.00000  Uiso   1.00
N321   N     0.37230   0.90080   0.02651   0.00000  Uiso   1.00
N322   N     0.50264   0.94042   0.31600   0.00000  Uiso   1.00
C323   C     0.79631   0.84258   0.28178   0.00000  Uiso   1.00
C324   C     0.75845   0.86426   0.22627   0.00000  Uiso   1.00
C325   C     0.73715   0.93030   0.18317   0.00000  Uiso   1.00
C326   C     0.70331   0.93958   0.13577   0.00000  Uiso   1.00
C327   C     0.64639   0.98158   0.05020   0.00000  Uiso   1.00
C328   C     0.86402   0.77138   0.29303   0.00000  Uiso   1.00
C329   C     0.93148   0.75933   0.30607   0.00000  Uiso   1.00
C330   C     0.98651   0.69042   0.31488   0.00000  Uiso   1.00
C331   C     0.09349   0.58820   0.33299   0.00000  Uiso   1.00
C332   C     0.75124   0.82291   0.32087   0.00000  Uiso   1.00
C333   C     0.72389   0.85417   0.35732   0.00000  Uiso   1.00
C334   C     0.68399   0.82864   0.38957   0.00000  Uiso   1.00
C335   C     0.61586   0.80643   0.45090   0.00000  Uiso   1.00
C336   C     0.77410   0.74163   0.27425   0.00000  Uiso   1.00
C337   C     0.74639   0.80943   0.22219   0.00000  Uiso   1.00
C338   C     0.71257   0.81862   0.17484   0.00000  Uiso   1.00
C339   C     0.69122   0.88466   0.13167   0.00000  Uiso   1.00
C340   C     0.85196   0.71655   0.28894   0.00000  Uiso   1.00
C341   C     0.90690   0.64765   0.29774   0.00000  Uiso   1.00
C342   C     0.97443   0.63550   0.31078   0.00000  Uiso   1.00
C343   C     0.73918   0.76808   0.31678   0.00000  Uiso   1.00
C344   C     0.69932   0.74249   0.34898   0.00000  Uiso   1.00
C345   C     0.67190   0.77371   0.38547   0.00000  Uiso   1.00
H346   H     0.80570   0.88526   0.28497   0.00000  Uiso   1.00
H347   H     0.74650   0.97271   0.18635   0.00000  Uiso   1.00
H348   H     0.94080   0.80176   0.30924   0.00000  Uiso   1.00
H349   H     0.73324   0.89660   0.36047   0.00000  Uiso   1.00
H350   H     0.67556   0.04548   0.07521   0.00000  Uiso   1.00
H351   H     0.08524   0.68502   0.33434   0.00000  Uiso   1.00
H352   H     0.64757   0.88499   0.44238   0.00000  Uiso   1.00
H353   H     0.76471   0.69894   0.27106   0.00000  Uiso   1.00
H354   H     0.70324   0.77618   0.17168   0.00000  Uiso   1.00
H355   H     0.89755   0.60523   0.29457   0.00000  Uiso   1.00
H356   H     0.68999   0.70006   0.34581   0.00000  Uiso   1.00
H357   H     0.64046   0.88597   0.06331   0.00000  Uiso   1.00
H358   H     0.05015   0.52551   0.32244   0.00000  Uiso   1.00
H359   H     0.61247   0.72548   0.43048   0.00000  Uiso   1.00
O360   O     0.61834   0.01988   0.00413   0.00000  Uiso   1.00
O361   O     0.15583   0.54697   0.34410   0.00000  Uiso   1.00
O362   O     0.58161   0.80933   0.48585   0.00000  Uiso   1.00
N363   N     0.67572   0.99735   0.08605   0.00000  Uiso   1.00
N364   N     0.05875   0.66034   0.32831   0.00000  Uiso   1.00
N365   N     0.64958   0.84729   0.42933   0.00000  Uiso   1.00
N366   N     0.65683   0.91151   0.07964   0.00000  Uiso   1.00
N367   N     0.03986   0.57451   0.32190   0.00000  Uiso   1.00
N368   N     0.63069   0.76145   0.42293   0.00000  Uiso   1.00
C369   C     0.56806   0.62864   0.51736   0.00000  Uiso   1.00
C370   C     0.62529   0.60630   0.48459   0.00000  Uiso   1.00
C371   C     0.69296   0.59489   0.49553   0.00000  Uiso   1.00
C372   C     0.73747   0.57470   0.46073   0.00000  Uiso   1.00
C373   C     0.82975   0.54127   0.41658   0.00000  Uiso   1.00
C374   C     0.54490   0.57027   0.53331   0.00000  Uiso   1.00
C375   C     0.54498   0.52857   0.58521   0.00000  Uiso   1.00
C376   C     0.52181   0.47804   0.59142   0.00000  Uiso   1.00
C377   C     0.48924   0.38871   0.62289   0.00000  Uiso   1.00
C378   C     0.50571   0.69866   0.47851   0.00000  Uiso   1.00
C379   C     0.47282   0.76491   0.48434   0.00000  Uiso   1.00
C380   C     0.41664   0.82247   0.44442   0.00000  Uiso   1.00
C381   C     0.32322   0.93248   0.39081   0.00000  Uiso   1.00
C382   C     0.52678   0.61306   0.43612   0.00000  Uiso   1.00
C383   C     0.60286   0.59784   0.44047   0.00000  Uiso   1.00
C384   C     0.64728   0.57766   0.40564   0.00000  Uiso   1.00
C385   C     0.71501   0.56622   0.41652   0.00000  Uiso   1.00
C386   C     0.52248   0.56181   0.48918   0.00000  Uiso   1.00
C387   C     0.49930   0.51133   0.49532   0.00000  Uiso   1.00
C388   C     0.49934   0.46957   0.54721   0.00000  Uiso   1.00
C389   C     0.48328   0.69020   0.43438   0.00000  Uiso   1.00
C390   C     0.42714   0.74767   0.39445   0.00000  Uiso   1.00
C391   C     0.39418   0.81400   0.40021   0.00000  Uiso   1.00
H392   H     0.58552   0.63522   0.55172   0.00000  Uiso   1.00
H393   H     0.71029   0.60144   0.52969   0.00000  Uiso   1.00
H394   H     0.56233   0.53513   0.61935   0.00000  Uiso   1.00
H395   H     0.49018   0.77143   0.51849   0.00000  Uiso   1.00
H396   H     0.83875   0.56023   0.48581   0.00000  Uiso   1.00
H397   H     0.52673   0.42044   0.67486   0.00000  Uiso   1.00
H398   H     0.37460   0.91872   0.46219   0.00000  Uiso   1.00
H399   H     0.50932   0.60647   0.40176   0.00000  Uiso   1.00
H400   H     0.62991   0.57111   0.37149   0.00000  Uiso   1.00
H401   H     0.48195   0.50480   0.46116   0.00000  Uiso   1.00
H402   H     0.40981   0.74110   0.36030   0.00000  Uiso   1.00
H403   H     0.77351   0.53561   0.35742   0.00000  Uiso   1.00
H404   H     0.46149   0.39582   0.54647   0.00000  Uiso   1.00
H405   H     0.30936   0.89411   0.33380   0.00000  Uiso   1.00
O406   O     0.88685   0.52516   0.40442   0.00000  Uiso   1.00
O407   O     0.47747   0.34176   0.65245   0.00000  Uiso   1.00
O408   O     0.27789   0.99550   0.37343   0.00000  Uiso   1.00
N409   N     0.80684   0.55930   0.45974   0.00000  Uiso   1.00
N410   N     0.51513   0.42860   0.63649   0.00000  Uiso   1.00
N411   N     0.37289   0.89445   0.43767   0.00000  Uiso   1.00
N412   N     0.77174   0.54606   0.39065   0.00000  Uiso   1.00
N413   N     0.48003   0.41535   0.56740   0.00000  Uiso   1.00
N414   N     0.33779   0.88120   0.36858   0.00000  Uiso   1.00
C415   C     0.80669   0.81518   0.02025   0.00000  Uiso   1.00
C416   C     0.82294   0.83265   0.96380   0.00000  Uiso   1.00
C417   C     0.77888   0.89291   0.91833   0.00000  Uiso   1.00
C418   C     0.80337   0.89907   0.87044   0.00000  Uiso   1.00
C419   C     0.81850   0.93412   0.78313   0.00000  Uiso   1.00
C420   C     0.81419   0.73875   0.03911   0.00000  Uiso   1.00
C421   C     0.76279   0.72008   0.05695   0.00000  Uiso   1.00
C422   C     0.77992   0.64719   0.07245   0.00000  Uiso   1.00
C423   C     0.78150   0.53646   0.10210   0.00000  Uiso   1.00
C424   C     0.86644   0.80818   0.05496   0.00000  Uiso   1.00
C425   C     0.85897   0.84786   0.08616   0.00000  Uiso   1.00
C426   C     0.92009   0.83342   0.11502   0.00000  Uiso   1.00
C427   C     0.00280   0.83049   0.16928   0.00000  Uiso   1.00
C428   C     0.92852   0.71895   0.01606   0.00000  Uiso   1.00
C429   C     0.88911   0.78038   0.96153   0.00000  Uiso   1.00
C430   C     0.91367   0.78644   0.91369   0.00000  Uiso   1.00
C431   C     0.86966   0.84671   0.86815   0.00000  Uiso   1.00
C432   C     0.88036   0.68648   0.03683   0.00000  Uiso   1.00
C433   C     0.89757   0.61361   0.05231   0.00000  Uiso   1.00
C434   C     0.84621   0.59482   0.07017   0.00000  Uiso   1.00
C435   C     0.93262   0.75591   0.05269   0.00000  Uiso   1.00
C436   C     0.99376   0.74140   0.08151   0.00000  Uiso   1.00
C437   C     0.98639   0.78105   0.11274   0.00000  Uiso   1.00
H438   H     0.75518   0.85587   0.02202   0.00000  Uiso   1.00
H439   H     0.72767   0.93335   0.92011   0.00000  Uiso   1.00
H440   H     0.71158   0.76054   0.05871   0.00000  Uiso   1.00
H441   H     0.80776   0.88831   0.08791   0.00000  Uiso   1.00
H442   H     0.72635   0.99618   0.80611   0.00000  Uiso   1.00
H443   H     0.69244   0.63179   0.09838   0.00000  Uiso   1.00
H444   H     0.89523   0.90123   0.15995   0.00000  Uiso   1.00
H445   H     0.98004   0.67825   0.01428   0.00000  Uiso   1.00
H446   H     0.96488   0.74598   0.91194   0.00000  Uiso   1.00
H447   H     0.94879   0.57317   0.05055   0.00000  Uiso   1.00
H448   H     0.04496   0.70094   0.07974   0.00000  Uiso   1.00
H449   H     0.91887   0.84411   0.79948   0.00000  Uiso   1.00
H450   H     0.88496   0.47972   0.09176   0.00000  Uiso   1.00
H451   H     0.08775   0.74915   0.15332   0.00000  Uiso   1.00
O452   O     0.80857   0.96789   0.73561   0.00000  Uiso   1.00
O453   O     0.76408   0.48983   0.11907   0.00000  Uiso   1.00
O454   O     0.03014   0.84332   0.19984   0.00000  Uiso   1.00
N455   N     0.77375   0.95110   0.81860   0.00000  Uiso   1.00
N456   N     0.74204   0.61043   0.09185   0.00000  Uiso   1.00
N457   N     0.93163   0.86231   0.14942   0.00000  Uiso   1.00
N458   N     0.87734   0.86927   0.81503   0.00000  Uiso   1.00
N459   N     0.84563   0.52860   0.08828   0.00000  Uiso   1.00
N460   N     0.03523   0.78048   0.14585   0.00000  Uiso   1.00
C461   C     0.27076   0.70844   0.18241   0.00000  Uiso   1.00
C462   C     0.25306   0.64787   0.18762   0.00000  Uiso   1.00
C463   C     0.24478   0.60262   0.23449   0.00000  Uiso   1.00
C464   C     0.22865   0.55056   0.23091   0.00000  Uiso   1.00
C465   C     0.20235   0.45747   0.24642   0.00000  Uiso   1.00
C466   C     0.33725   0.69103   0.15831   0.00000  Uiso   1.00
C467   C     0.39976   0.68208   0.18052   0.00000  Uiso   1.00
C468   C     0.45449   0.66635   0.15226   0.00000  Uiso   1.00
C469   C     0.55887   0.64033   0.12223   0.00000  Uiso   1.00
C470   C     0.21244   0.77820   0.13985   0.00000  Uiso   1.00
C471   C     0.17001   0.84255   0.14654   0.00000  Uiso   1.00
C472   C     0.11968   0.90022   0.10273   0.00000  Uiso   1.00
C473   C     0.03027   0.00954   0.04405   0.00000  Uiso   1.00
C474   C     0.25682   0.69645   0.09273   0.00000  Uiso   1.00
C475   C     0.24548   0.64136   0.13891   0.00000  Uiso   1.00
C476   C     0.22936   0.58935   0.13526   0.00000  Uiso   1.00
C477   C     0.22106   0.54403   0.18211   0.00000  Uiso   1.00
C478   C     0.32967   0.68452   0.10960   0.00000  Uiso   1.00
C479   C     0.38433   0.66881   0.08129   0.00000  Uiso   1.00
C480   C     0.44690   0.65982   0.10346   0.00000  Uiso   1.00
C481   C     0.20486   0.77169   0.09114   0.00000  Uiso   1.00
C482   C     0.15458   0.82927   0.04731   0.00000  Uiso   1.00
C483   C     0.11209   0.89369   0.05393   0.00000  Uiso   1.00
H484   H     0.27666   0.71352   0.22034   0.00000  Uiso   1.00
H485   H     0.25066   0.60768   0.27218   0.00000  Uiso   1.00
H486   H     0.40560   0.68713   0.21821   0.00000  Uiso   1.00
H487   H     0.17589   0.84757   0.18424   0.00000  Uiso   1.00
H488   H     0.21851   0.48745   0.30817   0.00000  Uiso   1.00
H489   H     0.54521   0.65500   0.19438   0.00000  Uiso   1.00
H490   H     0.06082   0.99332   0.12274   0.00000  Uiso   1.00
H491   H     0.25092   0.69138   0.05480   0.00000  Uiso   1.00
H492   H     0.22350   0.58432   0.09756   0.00000  Uiso   1.00
H493   H     0.37844   0.66377   0.04360   0.00000  Uiso   1.00
H494   H     0.14874   0.82421   0.00962   0.00000  Uiso   1.00
H495   H     0.19647   0.46849   0.16645   0.00000  Uiso   1.00
H496   H     0.52317   0.63604   0.05265   0.00000  Uiso   1.00
H497   H     0.03878   0.97436   0.98101   0.00000  Uiso   1.00
O498   O     0.18994   0.40793   0.26843   0.00000  Uiso   1.00
O499   O     0.61855   0.62776   0.11913   0.00000  Uiso   1.00
O500   O     0.98304   0.07163   0.02514   0.00000  Uiso   1.00
N501   N     0.21707   0.49769   0.26895   0.00000  Uiso   1.00
N502   N     0.52252   0.65432   0.16256   0.00000  Uiso   1.00
N503   N     0.06967   0.97064   0.09558   0.00000  Uiso   1.00
N504   N     0.20521   0.48748   0.19269   0.00000  Uiso   1.00
N505   N     0.51066   0.64412   0.08630   0.00000  Uiso   1.00
N506   N     0.05781   0.96043   0.01932   0.00000  Uiso   1.00
C507   C     0.03187   0.02740   0.84509   0.00000  Uiso   1.00
C508   C     0.10300   0.95873   0.86961   0.00000  Uiso   1.00
C509   C     0.16568   0.95698   0.88256   0.00000  Uiso   1.00
C510   C     0.22503   0.88868   0.90464   0.00000  Uiso   1.00
C511   C     0.33599   0.79183   0.94135   0.00000  Uiso   1.00
C512   C     0.00623   0.02568   0.79374   0.00000  Uiso   1.00
C513   C     0.98754   0.08023   0.74290   0.00000  Uiso   1.00
C514   C     0.96542   0.06829   0.70110   0.00000  Uiso   1.00
C515   C     0.92609   0.07541   0.62003   0.00000  Uiso   1.00
C516   C     0.98222   0.01679   0.88300   0.00000  Uiso   1.00
C517   C     0.94332   0.06386   0.90719   0.00000  Uiso   1.00
C518   C     0.90097   0.04444   0.94054   0.00000  Uiso   1.00
C519   C     0.82436   0.03774   0.99805   0.00000  Uiso   1.00
C520   C     0.02580   0.90922   0.86127   0.00000  Uiso   1.00
C521   C     0.09971   0.89454   0.87840   0.00000  Uiso   1.00
C522   C     0.15897   0.82623   0.90046   0.00000  Uiso   1.00
C523   C     0.22173   0.82437   0.91344   0.00000  Uiso   1.00
C524   C     0.00294   0.96150   0.80253   0.00000  Uiso   1.00
C525   C     0.98083   0.94948   0.76080   0.00000  Uiso   1.00
C526   C     0.96212   0.00398   0.70990   0.00000  Uiso   1.00
C527   C     0.97892   0.95259   0.89179   0.00000  Uiso   1.00
C528   C     0.93662   0.93310   0.92510   0.00000  Uiso   1.00
C529   C     0.89767   0.98013   0.94934   0.00000  Uiso   1.00
H530   H     0.03443   0.07737   0.83824   0.00000  Uiso   1.00
H531   H     0.16821   0.00667   0.87575   0.00000  Uiso   1.00
H532   H     0.99009   0.12990   0.73611   0.00000  Uiso   1.00
H533   H     0.94588   0.11353   0.90038   0.00000  Uiso   1.00
H534   H     0.31509   0.89998   0.92119   0.00000  Uiso   1.00
H535   H     0.93948   0.15983   0.62675   0.00000  Uiso   1.00
H536   H     0.84626   0.12530   0.97315   0.00000  Uiso   1.00
H537   H     0.02324   0.85924   0.86811   0.00000  Uiso   1.00
H538   H     0.15641   0.77656   0.90726   0.00000  Uiso   1.00
H539   H     0.97828   0.89980   0.76761   0.00000  Uiso   1.00
H540   H     0.93408   0.88342   0.93189   0.00000  Uiso   1.00
H541   H     0.30551   0.71321   0.94676   0.00000  Uiso   1.00
H542   H     0.92990   0.97307   0.65232   0.00000  Uiso   1.00
H543   H     0.83668   0.93854   0.99872   0.00000  Uiso   1.00
O544   O     0.39811   0.75615   0.95917   0.00000  Uiso   1.00
O545   O     0.90531   0.09707   0.57288   0.00000  Uiso   1.00
O546   O     0.78302   0.05177   0.02736   0.00000  Uiso   1.00
N547   N     0.29456   0.86737   0.92185   0.00000  Uiso   1.00
N548   N     0.94339   0.11031   0.64656   0.00000  Uiso   1.00
N549   N     0.85623   0.07804   0.97041   0.00000  Uiso   1.00
N550   N     0.28940   0.76687   0.93561   0.00000  Uiso   1.00
N551   N     0.93824   0.00981   0.66032   0.00000  Uiso   1.00
N552   N     0.85107   0.97754   0.98417   0.00000  Uiso   1.00
