data_job_02980
_audit_creation_date              2018-12-19
_audit_creation_method            'Materials Studio'
_symmetry_space_group_name_H-M    'P1'
_symmetry_Int_Tables_number       1
_symmetry_cell_setting            triclinic
loop_
_symmetry_equiv_pos_as_xyz
  x,y,z
_cell_length_a                    29.2807
_cell_length_b                    12.2672
_cell_length_c                    23.7527
_cell_angle_alpha                 90.0000
_cell_angle_beta                  133.8306
_cell_angle_gamma                 90.0000
loop_
_atom_site_label
_atom_site_type_symbol
_atom_site_fract_x
_atom_site_fract_y
_atom_site_fract_z
_atom_site_U_iso_or_equiv
_atom_site_adp_type
_atom_site_occupancy
C1     C     0.32142   0.84071   0.73627   0.00000  Uiso   1.00
C2     C     0.31966   0.86702   0.67203   0.00000  Uiso   1.00
C3     C     0.26684   0.85988   0.59239   0.00000  Uiso   1.00
C4     C     0.27498   0.88749   0.54312   0.00000  Uiso   1.00
C5     C     0.26329   0.92319   0.43891   0.00000  Uiso   1.00
C6     C     0.37271   0.75438   0.78740   0.00000  Uiso   1.00
C7     C     0.36449   0.65254   0.80476   0.00000  Uiso   1.00
C8     C     0.41729   0.58535   0.85261   0.00000  Uiso   1.00
C9     C     0.48797   0.44620   0.92755   0.00000  Uiso   1.00
C10    C     0.34618   0.94303   0.78646   0.00000  Uiso   1.00
C11    C     0.31567   0.99980   0.80305   0.00000  Uiso   1.00
C12    C     0.34615   0.09142   0.85013   0.00000  Uiso   1.00
C13    C     0.37565   0.24518   0.92361   0.00000  Uiso   1.00
C14    C     0.42981   0.90246   0.79039   0.00000  Uiso   1.00
C15    C     0.37853   0.90055   0.70143   0.00000  Uiso   1.00
C16    C     0.38675   0.92819   0.65227   0.00000  Uiso   1.00
C17    C     0.33395   0.92110   0.57257   0.00000  Uiso   1.00
C18    C     0.43158   0.78791   0.81679   0.00000  Uiso   1.00
C19    C     0.48440   0.72086   0.86464   0.00000  Uiso   1.00
C20    C     0.47627   0.61894   0.88206   0.00000  Uiso   1.00
C21    C     0.40505   0.97657   0.81585   0.00000  Uiso   1.00
C22    C     0.43559   0.06811   0.86292   0.00000  Uiso   1.00
C23    C     0.40513   0.12501   0.87958   0.00000  Uiso   1.00
H24    H     0.27559   0.81459   0.71338   0.00000  Uiso   1.00
H25    H     0.22129   0.83391   0.56967   0.00000  Uiso   1.00
H26    H     0.31893   0.62662   0.78201   0.00000  Uiso   1.00
H27    H     0.27012   0.97382   0.78029   0.00000  Uiso   1.00
H28    H     0.18705   0.87008   0.42329   0.00000  Uiso   1.00
H29    H     0.39293   0.43300   0.87105   0.00000  Uiso   1.00
H30    H     0.29000   0.16514   0.86743   0.00000  Uiso   1.00
H31    H     0.47565   0.92856   0.81327   0.00000  Uiso   1.00
H32    H     0.43232   0.95414   0.67503   0.00000  Uiso   1.00
H33    H     0.52996   0.74684   0.88738   0.00000  Uiso   1.00
H34    H     0.48115   0.09404   0.88566   0.00000  Uiso   1.00
H35    H     0.35833   0.96766   0.50881   0.00000  Uiso   1.00
H36    H     0.56421   0.53058   0.95657   0.00000  Uiso   1.00
H37    H     0.46128   0.26272   0.95295   0.00000  Uiso   1.00
O38    O     0.24058   0.93360   0.37331   0.00000  Uiso   1.00
O39    O     0.51069   0.36018   0.96076   0.00000  Uiso   1.00
O40    O     0.37565   0.32074   0.95601   0.00000  Uiso   1.00
N41    N     0.23330   0.88956   0.46239   0.00000  Uiso   1.00
N42    N     0.42579   0.48091   0.88101   0.00000  Uiso   1.00
N43    N     0.32957   0.16538   0.87764   0.00000  Uiso   1.00
N44    N     0.32547   0.94206   0.50841   0.00000  Uiso   1.00
N45    N     0.51795   0.53341   0.92702   0.00000  Uiso   1.00
N46    N     0.42173   0.21789   0.92366   0.00000  Uiso   1.00
C47    C     0.82142   0.34071   0.73627   0.00000  Uiso   1.00
C48    C     0.81966   0.36702   0.67203   0.00000  Uiso   1.00
C49    C     0.76684   0.35988   0.59239   0.00000  Uiso   1.00
C50    C     0.77498   0.38749   0.54312   0.00000  Uiso   1.00
C51    C     0.76329   0.42319   0.43891   0.00000  Uiso   1.00
C52    C     0.87271   0.25438   0.78740   0.00000  Uiso   1.00
C53    C     0.86449   0.15254   0.80476   0.00000  Uiso   1.00
C54    C     0.91729   0.08535   0.85261   0.00000  Uiso   1.00
C55    C     0.98797   0.94620   0.92755   0.00000  Uiso   1.00
C56    C     0.84618   0.44303   0.78646   0.00000  Uiso   1.00
C57    C     0.81567   0.49980   0.80305   0.00000  Uiso   1.00
C58    C     0.84615   0.59142   0.85013   0.00000  Uiso   1.00
C59    C     0.87565   0.74518   0.92361   0.00000  Uiso   1.00
C60    C     0.92981   0.40246   0.79039   0.00000  Uiso   1.00
C61    C     0.87853   0.40055   0.70143   0.00000  Uiso   1.00
C62    C     0.88675   0.42819   0.65227   0.00000  Uiso   1.00
C63    C     0.83395   0.42110   0.57257   0.00000  Uiso   1.00
C64    C     0.93158   0.28791   0.81679   0.00000  Uiso   1.00
C65    C     0.98440   0.22086   0.86464   0.00000  Uiso   1.00
C66    C     0.97627   0.11894   0.88206   0.00000  Uiso   1.00
C67    C     0.90505   0.47657   0.81585   0.00000  Uiso   1.00
C68    C     0.93559   0.56811   0.86292   0.00000  Uiso   1.00
C69    C     0.90513   0.62501   0.87958   0.00000  Uiso   1.00
H70    H     0.77559   0.31459   0.71338   0.00000  Uiso   1.00
H71    H     0.72129   0.33391   0.56967   0.00000  Uiso   1.00
H72    H     0.81893   0.12662   0.78201   0.00000  Uiso   1.00
H73    H     0.77012   0.47382   0.78029   0.00000  Uiso   1.00
H74    H     0.68705   0.37008   0.42329   0.00000  Uiso   1.00
H75    H     0.89293   0.93300   0.87105   0.00000  Uiso   1.00
H76    H     0.79000   0.66514   0.86743   0.00000  Uiso   1.00
H77    H     0.97565   0.42856   0.81327   0.00000  Uiso   1.00
H78    H     0.93232   0.45414   0.67503   0.00000  Uiso   1.00
H79    H     0.02996   0.24684   0.88738   0.00000  Uiso   1.00
H80    H     0.98115   0.59404   0.88566   0.00000  Uiso   1.00
H81    H     0.85833   0.46766   0.50881   0.00000  Uiso   1.00
H82    H     0.06421   0.03058   0.95657   0.00000  Uiso   1.00
H83    H     0.96128   0.76272   0.95295   0.00000  Uiso   1.00
O84    O     0.74058   0.43360   0.37331   0.00000  Uiso   1.00
O85    O     0.01069   0.86018   0.96076   0.00000  Uiso   1.00
O86    O     0.87565   0.82074   0.95601   0.00000  Uiso   1.00
N87    N     0.73330   0.38956   0.46239   0.00000  Uiso   1.00
N88    N     0.92579   0.98091   0.88101   0.00000  Uiso   1.00
N89    N     0.82957   0.66538   0.87764   0.00000  Uiso   1.00
N90    N     0.82547   0.44206   0.50841   0.00000  Uiso   1.00
N91    N     0.01795   0.03341   0.92702   0.00000  Uiso   1.00
N92    N     0.92173   0.71789   0.92366   0.00000  Uiso   1.00
C93    C     0.67858   0.84071   0.76373   0.00000  Uiso   1.00
C94    C     0.68034   0.86702   0.82797   0.00000  Uiso   1.00
C95    C     0.73316   0.85988   0.90761   0.00000  Uiso   1.00
C96    C     0.72502   0.88749   0.95688   0.00000  Uiso   1.00
C97    C     0.73671   0.92319   0.06109   0.00000  Uiso   1.00
C98    C     0.62729   0.75438   0.71260   0.00000  Uiso   1.00
C99    C     0.63551   0.65254   0.69524   0.00000  Uiso   1.00
C100   C     0.58271   0.58535   0.64739   0.00000  Uiso   1.00
C101   C     0.51203   0.44620   0.57245   0.00000  Uiso   1.00
C102   C     0.65382   0.94303   0.71354   0.00000  Uiso   1.00
C103   C     0.68433   0.99980   0.69695   0.00000  Uiso   1.00
C104   C     0.65385   0.09142   0.64987   0.00000  Uiso   1.00
C105   C     0.62435   0.24518   0.57639   0.00000  Uiso   1.00
C106   C     0.57019   0.90246   0.70961   0.00000  Uiso   1.00
C107   C     0.62147   0.90055   0.79857   0.00000  Uiso   1.00
C108   C     0.61325   0.92819   0.84773   0.00000  Uiso   1.00
C109   C     0.66605   0.92110   0.92743   0.00000  Uiso   1.00
C110   C     0.56842   0.78791   0.68321   0.00000  Uiso   1.00
C111   C     0.51560   0.72086   0.63536   0.00000  Uiso   1.00
C112   C     0.52373   0.61894   0.61794   0.00000  Uiso   1.00
C113   C     0.59495   0.97657   0.68415   0.00000  Uiso   1.00
C114   C     0.56441   0.06811   0.63708   0.00000  Uiso   1.00
C115   C     0.59487   0.12501   0.62042   0.00000  Uiso   1.00
H116   H     0.72441   0.81459   0.78662   0.00000  Uiso   1.00
H117   H     0.77871   0.83391   0.93033   0.00000  Uiso   1.00
H118   H     0.68107   0.62662   0.71799   0.00000  Uiso   1.00
H119   H     0.72988   0.97382   0.71971   0.00000  Uiso   1.00
H120   H     0.81295   0.87008   0.07671   0.00000  Uiso   1.00
H121   H     0.60707   0.43300   0.62895   0.00000  Uiso   1.00
H122   H     0.71000   0.16514   0.63257   0.00000  Uiso   1.00
H123   H     0.52435   0.92856   0.68673   0.00000  Uiso   1.00
H124   H     0.56768   0.95414   0.82497   0.00000  Uiso   1.00
H125   H     0.47004   0.74684   0.61262   0.00000  Uiso   1.00
H126   H     0.51885   0.09404   0.61434   0.00000  Uiso   1.00
H127   H     0.64167   0.96766   0.99119   0.00000  Uiso   1.00
H128   H     0.43579   0.53058   0.54343   0.00000  Uiso   1.00
H129   H     0.53872   0.26272   0.54705   0.00000  Uiso   1.00
O130   O     0.75942   0.93360   0.12669   0.00000  Uiso   1.00
O131   O     0.48931   0.36018   0.53924   0.00000  Uiso   1.00
O132   O     0.62435   0.32074   0.54399   0.00000  Uiso   1.00
N133   N     0.76670   0.88956   0.03761   0.00000  Uiso   1.00
N134   N     0.57421   0.48091   0.61899   0.00000  Uiso   1.00
N135   N     0.67043   0.16538   0.62236   0.00000  Uiso   1.00
N136   N     0.67453   0.94206   0.99159   0.00000  Uiso   1.00
N137   N     0.48205   0.53341   0.57298   0.00000  Uiso   1.00
N138   N     0.57827   0.21789   0.57634   0.00000  Uiso   1.00
C139   C     0.17858   0.34071   0.76373   0.00000  Uiso   1.00
C140   C     0.18034   0.36702   0.82797   0.00000  Uiso   1.00
C141   C     0.23316   0.35988   0.90761   0.00000  Uiso   1.00
C142   C     0.22502   0.38749   0.95688   0.00000  Uiso   1.00
C143   C     0.23671   0.42319   0.06109   0.00000  Uiso   1.00
C144   C     0.12729   0.25438   0.71260   0.00000  Uiso   1.00
C145   C     0.13551   0.15254   0.69524   0.00000  Uiso   1.00
C146   C     0.08271   0.08535   0.64739   0.00000  Uiso   1.00
C147   C     0.01203   0.94620   0.57245   0.00000  Uiso   1.00
C148   C     0.15382   0.44303   0.71354   0.00000  Uiso   1.00
C149   C     0.18433   0.49980   0.69695   0.00000  Uiso   1.00
C150   C     0.15385   0.59142   0.64987   0.00000  Uiso   1.00
C151   C     0.12435   0.74518   0.57639   0.00000  Uiso   1.00
C152   C     0.07019   0.40246   0.70961   0.00000  Uiso   1.00
C153   C     0.12147   0.40055   0.79857   0.00000  Uiso   1.00
C154   C     0.11325   0.42819   0.84773   0.00000  Uiso   1.00
C155   C     0.16605   0.42110   0.92743   0.00000  Uiso   1.00
C156   C     0.06842   0.28791   0.68321   0.00000  Uiso   1.00
C157   C     0.01560   0.22086   0.63536   0.00000  Uiso   1.00
C158   C     0.02373   0.11894   0.61794   0.00000  Uiso   1.00
C159   C     0.09495   0.47657   0.68415   0.00000  Uiso   1.00
C160   C     0.06441   0.56811   0.63708   0.00000  Uiso   1.00
C161   C     0.09487   0.62501   0.62042   0.00000  Uiso   1.00
H162   H     0.22441   0.31459   0.78662   0.00000  Uiso   1.00
H163   H     0.27871   0.33391   0.93033   0.00000  Uiso   1.00
H164   H     0.18107   0.12662   0.71799   0.00000  Uiso   1.00
H165   H     0.22988   0.47382   0.71971   0.00000  Uiso   1.00
H166   H     0.31295   0.37008   0.07671   0.00000  Uiso   1.00
H167   H     0.10707   0.93300   0.62895   0.00000  Uiso   1.00
H168   H     0.21000   0.66514   0.63257   0.00000  Uiso   1.00
H169   H     0.02435   0.42856   0.68673   0.00000  Uiso   1.00
H170   H     0.06768   0.45414   0.82497   0.00000  Uiso   1.00
H171   H     0.97004   0.24684   0.61262   0.00000  Uiso   1.00
H172   H     0.01885   0.59404   0.61434   0.00000  Uiso   1.00
H173   H     0.14167   0.46766   0.99119   0.00000  Uiso   1.00
H174   H     0.93579   0.03058   0.54343   0.00000  Uiso   1.00
H175   H     0.03872   0.76272   0.54705   0.00000  Uiso   1.00
O176   O     0.25942   0.43360   0.12669   0.00000  Uiso   1.00
O177   O     0.98931   0.86018   0.53924   0.00000  Uiso   1.00
O178   O     0.12435   0.82074   0.54399   0.00000  Uiso   1.00
N179   N     0.26670   0.38956   0.03761   0.00000  Uiso   1.00
N180   N     0.07421   0.98091   0.61899   0.00000  Uiso   1.00
N181   N     0.17043   0.66538   0.62236   0.00000  Uiso   1.00
N182   N     0.17453   0.44206   0.99159   0.00000  Uiso   1.00
N183   N     0.98205   0.03341   0.57298   0.00000  Uiso   1.00
N184   N     0.07827   0.71789   0.57634   0.00000  Uiso   1.00
C185   C     0.67858   0.15929   0.26373   0.00000  Uiso   1.00
C186   C     0.68034   0.13298   0.32797   0.00000  Uiso   1.00
C187   C     0.73316   0.14012   0.40761   0.00000  Uiso   1.00
C188   C     0.72502   0.11251   0.45688   0.00000  Uiso   1.00
C189   C     0.73671   0.07681   0.56109   0.00000  Uiso   1.00
C190   C     0.62729   0.24562   0.21260   0.00000  Uiso   1.00
C191   C     0.63551   0.34746   0.19524   0.00000  Uiso   1.00
C192   C     0.58271   0.41465   0.14739   0.00000  Uiso   1.00
C193   C     0.51203   0.55380   0.07245   0.00000  Uiso   1.00
C194   C     0.65382   0.05697   0.21354   0.00000  Uiso   1.00
C195   C     0.68433   0.00020   0.19695   0.00000  Uiso   1.00
C196   C     0.65385   0.90858   0.14987   0.00000  Uiso   1.00
C197   C     0.62435   0.75482   0.07639   0.00000  Uiso   1.00
C198   C     0.57019   0.09754   0.20961   0.00000  Uiso   1.00
C199   C     0.62147   0.09945   0.29857   0.00000  Uiso   1.00
C200   C     0.61325   0.07181   0.34773   0.00000  Uiso   1.00
C201   C     0.66605   0.07890   0.42743   0.00000  Uiso   1.00
C202   C     0.56842   0.21209   0.18321   0.00000  Uiso   1.00
C203   C     0.51560   0.27914   0.13536   0.00000  Uiso   1.00
C204   C     0.52373   0.38106   0.11794   0.00000  Uiso   1.00
C205   C     0.59495   0.02343   0.18415   0.00000  Uiso   1.00
C206   C     0.56441   0.93189   0.13708   0.00000  Uiso   1.00
C207   C     0.59487   0.87499   0.12042   0.00000  Uiso   1.00
H208   H     0.72441   0.18541   0.28662   0.00000  Uiso   1.00
H209   H     0.77871   0.16609   0.43033   0.00000  Uiso   1.00
H210   H     0.68107   0.37338   0.21799   0.00000  Uiso   1.00
H211   H     0.72988   0.02618   0.21971   0.00000  Uiso   1.00
H212   H     0.81295   0.12992   0.57671   0.00000  Uiso   1.00
H213   H     0.60707   0.56700   0.12895   0.00000  Uiso   1.00
H214   H     0.71000   0.83486   0.13257   0.00000  Uiso   1.00
H215   H     0.52435   0.07144   0.18673   0.00000  Uiso   1.00
H216   H     0.56768   0.04586   0.32497   0.00000  Uiso   1.00
H217   H     0.47004   0.25316   0.11262   0.00000  Uiso   1.00
H218   H     0.51885   0.90596   0.11434   0.00000  Uiso   1.00
H219   H     0.64167   0.03234   0.49119   0.00000  Uiso   1.00
H220   H     0.43579   0.46942   0.04343   0.00000  Uiso   1.00
H221   H     0.53872   0.73728   0.04705   0.00000  Uiso   1.00
O222   O     0.75942   0.06640   0.62669   0.00000  Uiso   1.00
O223   O     0.48931   0.63982   0.03924   0.00000  Uiso   1.00
O224   O     0.62435   0.67926   0.04399   0.00000  Uiso   1.00
N225   N     0.76670   0.11044   0.53761   0.00000  Uiso   1.00
N226   N     0.57421   0.51909   0.11899   0.00000  Uiso   1.00
N227   N     0.67043   0.83462   0.12236   0.00000  Uiso   1.00
N228   N     0.67453   0.05794   0.49159   0.00000  Uiso   1.00
N229   N     0.48205   0.46659   0.07298   0.00000  Uiso   1.00
N230   N     0.57827   0.78211   0.07634   0.00000  Uiso   1.00
C231   C     0.17858   0.65929   0.26373   0.00000  Uiso   1.00
C232   C     0.18034   0.63298   0.32797   0.00000  Uiso   1.00
C233   C     0.23316   0.64012   0.40761   0.00000  Uiso   1.00
C234   C     0.22502   0.61251   0.45688   0.00000  Uiso   1.00
C235   C     0.23671   0.57681   0.56109   0.00000  Uiso   1.00
C236   C     0.12729   0.74562   0.21260   0.00000  Uiso   1.00
C237   C     0.13551   0.84746   0.19524   0.00000  Uiso   1.00
C238   C     0.08271   0.91465   0.14739   0.00000  Uiso   1.00
C239   C     0.01203   0.05380   0.07245   0.00000  Uiso   1.00
C240   C     0.15382   0.55697   0.21354   0.00000  Uiso   1.00
C241   C     0.18433   0.50020   0.19695   0.00000  Uiso   1.00
C242   C     0.15385   0.40858   0.14987   0.00000  Uiso   1.00
C243   C     0.12435   0.25482   0.07639   0.00000  Uiso   1.00
C244   C     0.07019   0.59754   0.20961   0.00000  Uiso   1.00
C245   C     0.12147   0.59945   0.29857   0.00000  Uiso   1.00
C246   C     0.11325   0.57181   0.34773   0.00000  Uiso   1.00
C247   C     0.16605   0.57890   0.42743   0.00000  Uiso   1.00
C248   C     0.06842   0.71209   0.18321   0.00000  Uiso   1.00
C249   C     0.01560   0.77914   0.13536   0.00000  Uiso   1.00
C250   C     0.02373   0.88106   0.11794   0.00000  Uiso   1.00
C251   C     0.09495   0.52343   0.18415   0.00000  Uiso   1.00
C252   C     0.06441   0.43189   0.13708   0.00000  Uiso   1.00
C253   C     0.09487   0.37499   0.12042   0.00000  Uiso   1.00
H254   H     0.22441   0.68541   0.28662   0.00000  Uiso   1.00
H255   H     0.27871   0.66609   0.43033   0.00000  Uiso   1.00
H256   H     0.18107   0.87338   0.21799   0.00000  Uiso   1.00
H257   H     0.22988   0.52618   0.21971   0.00000  Uiso   1.00
H258   H     0.31295   0.62992   0.57671   0.00000  Uiso   1.00
H259   H     0.10707   0.06700   0.12895   0.00000  Uiso   1.00
H260   H     0.21000   0.33486   0.13257   0.00000  Uiso   1.00
H261   H     0.02435   0.57144   0.18673   0.00000  Uiso   1.00
H262   H     0.06768   0.54586   0.32497   0.00000  Uiso   1.00
H263   H     0.97004   0.75316   0.11262   0.00000  Uiso   1.00
H264   H     0.01885   0.40596   0.11434   0.00000  Uiso   1.00
H265   H     0.14167   0.53234   0.49119   0.00000  Uiso   1.00
H266   H     0.93579   0.96942   0.04343   0.00000  Uiso   1.00
H267   H     0.03872   0.23728   0.04705   0.00000  Uiso   1.00
O268   O     0.25942   0.56640   0.62669   0.00000  Uiso   1.00
O269   O     0.98931   0.13982   0.03924   0.00000  Uiso   1.00
O270   O     0.12435   0.17926   0.04399   0.00000  Uiso   1.00
N271   N     0.26670   0.61044   0.53761   0.00000  Uiso   1.00
N272   N     0.07421   0.01909   0.11899   0.00000  Uiso   1.00
N273   N     0.17043   0.33462   0.12236   0.00000  Uiso   1.00
N274   N     0.17453   0.55794   0.49159   0.00000  Uiso   1.00
N275   N     0.98205   0.96659   0.07298   0.00000  Uiso   1.00
N276   N     0.07827   0.28211   0.07634   0.00000  Uiso   1.00
C277   C     0.32142   0.15929   0.23627   0.00000  Uiso   1.00
C278   C     0.31966   0.13298   0.17203   0.00000  Uiso   1.00
C279   C     0.26684   0.14012   0.09239   0.00000  Uiso   1.00
C280   C     0.27498   0.11251   0.04312   0.00000  Uiso   1.00
C281   C     0.26329   0.07681   0.93891   0.00000  Uiso   1.00
C282   C     0.37271   0.24562   0.28740   0.00000  Uiso   1.00
C283   C     0.36449   0.34746   0.30476   0.00000  Uiso   1.00
C284   C     0.41729   0.41465   0.35261   0.00000  Uiso   1.00
C285   C     0.48797   0.55380   0.42755   0.00000  Uiso   1.00
C286   C     0.34618   0.05697   0.28646   0.00000  Uiso   1.00
C287   C     0.31567   0.00020   0.30305   0.00000  Uiso   1.00
C288   C     0.34615   0.90858   0.35013   0.00000  Uiso   1.00
C289   C     0.37565   0.75482   0.42361   0.00000  Uiso   1.00
C290   C     0.42981   0.09754   0.29039   0.00000  Uiso   1.00
C291   C     0.37853   0.09945   0.20143   0.00000  Uiso   1.00
C292   C     0.38675   0.07181   0.15227   0.00000  Uiso   1.00
C293   C     0.33395   0.07890   0.07257   0.00000  Uiso   1.00
C294   C     0.43158   0.21209   0.31679   0.00000  Uiso   1.00
C295   C     0.48440   0.27914   0.36464   0.00000  Uiso   1.00
C296   C     0.47627   0.38106   0.38206   0.00000  Uiso   1.00
C297   C     0.40505   0.02343   0.31585   0.00000  Uiso   1.00
C298   C     0.43559   0.93189   0.36292   0.00000  Uiso   1.00
C299   C     0.40513   0.87499   0.37958   0.00000  Uiso   1.00
H300   H     0.27559   0.18541   0.21338   0.00000  Uiso   1.00
H301   H     0.22129   0.16609   0.06967   0.00000  Uiso   1.00
H302   H     0.31893   0.37338   0.28201   0.00000  Uiso   1.00
H303   H     0.27012   0.02618   0.28029   0.00000  Uiso   1.00
H304   H     0.18705   0.12992   0.92329   0.00000  Uiso   1.00
H305   H     0.39293   0.56700   0.37105   0.00000  Uiso   1.00
H306   H     0.29000   0.83486   0.36743   0.00000  Uiso   1.00
H307   H     0.47565   0.07144   0.31327   0.00000  Uiso   1.00
H308   H     0.43232   0.04586   0.17503   0.00000  Uiso   1.00
H309   H     0.52996   0.25316   0.38738   0.00000  Uiso   1.00
H310   H     0.48115   0.90596   0.38566   0.00000  Uiso   1.00
H311   H     0.35833   0.03234   0.00881   0.00000  Uiso   1.00
H312   H     0.56421   0.46942   0.45657   0.00000  Uiso   1.00
H313   H     0.46128   0.73728   0.45295   0.00000  Uiso   1.00
O314   O     0.24058   0.06640   0.87331   0.00000  Uiso   1.00
O315   O     0.51069   0.63982   0.46076   0.00000  Uiso   1.00
O316   O     0.37565   0.67926   0.45601   0.00000  Uiso   1.00
N317   N     0.23330   0.11044   0.96239   0.00000  Uiso   1.00
N318   N     0.42579   0.51909   0.38101   0.00000  Uiso   1.00
N319   N     0.32957   0.83462   0.37764   0.00000  Uiso   1.00
N320   N     0.32547   0.05794   0.00841   0.00000  Uiso   1.00
N321   N     0.51795   0.46659   0.42702   0.00000  Uiso   1.00
N322   N     0.42173   0.78211   0.42366   0.00000  Uiso   1.00
C323   C     0.82142   0.65929   0.23627   0.00000  Uiso   1.00
C324   C     0.81966   0.63298   0.17203   0.00000  Uiso   1.00
C325   C     0.76684   0.64012   0.09239   0.00000  Uiso   1.00
C326   C     0.77498   0.61251   0.04312   0.00000  Uiso   1.00
C327   C     0.76329   0.57681   0.93891   0.00000  Uiso   1.00
C328   C     0.87271   0.74562   0.28740   0.00000  Uiso   1.00
C329   C     0.86449   0.84746   0.30476   0.00000  Uiso   1.00
C330   C     0.91729   0.91465   0.35261   0.00000  Uiso   1.00
C331   C     0.98797   0.05380   0.42755   0.00000  Uiso   1.00
C332   C     0.84618   0.55697   0.28646   0.00000  Uiso   1.00
C333   C     0.81567   0.50020   0.30305   0.00000  Uiso   1.00
C334   C     0.84615   0.40858   0.35013   0.00000  Uiso   1.00
C335   C     0.87565   0.25482   0.42361   0.00000  Uiso   1.00
C336   C     0.92981   0.59754   0.29039   0.00000  Uiso   1.00
C337   C     0.87853   0.59945   0.20143   0.00000  Uiso   1.00
C338   C     0.88675   0.57181   0.15227   0.00000  Uiso   1.00
C339   C     0.83395   0.57890   0.07257   0.00000  Uiso   1.00
C340   C     0.93158   0.71209   0.31679   0.00000  Uiso   1.00
C341   C     0.98440   0.77914   0.36464   0.00000  Uiso   1.00
C342   C     0.97627   0.88106   0.38206   0.00000  Uiso   1.00
C343   C     0.90505   0.52343   0.31585   0.00000  Uiso   1.00
C344   C     0.93559   0.43189   0.36292   0.00000  Uiso   1.00
C345   C     0.90513   0.37499   0.37958   0.00000  Uiso   1.00
H346   H     0.77559   0.68541   0.21338   0.00000  Uiso   1.00
H347   H     0.72129   0.66609   0.06967   0.00000  Uiso   1.00
H348   H     0.81893   0.87338   0.28201   0.00000  Uiso   1.00
H349   H     0.77012   0.52618   0.28029   0.00000  Uiso   1.00
H350   H     0.68705   0.62992   0.92329   0.00000  Uiso   1.00
H351   H     0.89293   0.06700   0.37105   0.00000  Uiso   1.00
H352   H     0.79000   0.33486   0.36743   0.00000  Uiso   1.00
H353   H     0.97565   0.57144   0.31327   0.00000  Uiso   1.00
H354   H     0.93232   0.54586   0.17503   0.00000  Uiso   1.00
H355   H     0.02996   0.75316   0.38738   0.00000  Uiso   1.00
H356   H     0.98115   0.40596   0.38566   0.00000  Uiso   1.00
H357   H     0.85833   0.53234   0.00881   0.00000  Uiso   1.00
H358   H     0.06421   0.96942   0.45657   0.00000  Uiso   1.00
H359   H     0.96128   0.23728   0.45295   0.00000  Uiso   1.00
O360   O     0.74058   0.56640   0.87331   0.00000  Uiso   1.00
O361   O     0.01069   0.13982   0.46076   0.00000  Uiso   1.00
O362   O     0.87565   0.17926   0.45601   0.00000  Uiso   1.00
N363   N     0.73330   0.61044   0.96239   0.00000  Uiso   1.00
N364   N     0.92579   0.01909   0.38101   0.00000  Uiso   1.00
N365   N     0.82957   0.33462   0.37764   0.00000  Uiso   1.00
N366   N     0.82547   0.55794   0.00841   0.00000  Uiso   1.00
N367   N     0.01795   0.96659   0.42702   0.00000  Uiso   1.00
N368   N     0.92173   0.28211   0.42366   0.00000  Uiso   1.00
