data_job_03104
_audit_creation_date              2018-12-19
_audit_creation_method            'Materials Studio'
_symmetry_space_group_name_H-M    'P1'
_symmetry_Int_Tables_number       1
_symmetry_cell_setting            triclinic
loop_
_symmetry_equiv_pos_as_xyz
  x,y,z
_cell_length_a                    36.8381
_cell_length_b                    21.7584
_cell_length_c                    13.8680
_cell_angle_alpha                 90.0000
_cell_angle_beta                  91.8996
_cell_angle_gamma                 90.0000
loop_
_atom_site_label
_atom_site_type_symbol
_atom_site_fract_x
_atom_site_fract_y
_atom_site_fract_z
_atom_site_U_iso_or_equiv
_atom_site_adp_type
_atom_site_occupancy
C1     C     0.67017   0.86822   0.46826   0.00000  Uiso   1.00
C2     C     0.70056   0.90697   0.42751   0.00000  Uiso   1.00
C3     C     0.72705   0.93829   0.48134   0.00000  Uiso   1.00
C4     C     0.75245   0.97116   0.43053   0.00000  Uiso   1.00
C5     C     0.79980   0.03113   0.38263   0.00000  Uiso   1.00
C6     C     0.63479   0.89495   0.42626   0.00000  Uiso   1.00
C7     C     0.60599   0.91615   0.47903   0.00000  Uiso   1.00
C8     C     0.57603   0.93889   0.42716   0.00000  Uiso   1.00
C9     C     0.52126   0.98016   0.37731   0.00000  Uiso   1.00
C10    C     0.67379   0.80457   0.42356   0.00000  Uiso   1.00
C11    C     0.67776   0.74979   0.47406   0.00000  Uiso   1.00
C12    C     0.68062   0.69644   0.41991   0.00000  Uiso   1.00
C13    C     0.68639   0.59739   0.36588   0.00000  Uiso   1.00
C14    C     0.66818   0.87088   0.28229   0.00000  Uiso   1.00
C15    C     0.69947   0.90842   0.32650   0.00000  Uiso   1.00
C16    C     0.72485   0.94124   0.27559   0.00000  Uiso   1.00
C17    C     0.75137   0.97261   0.32933   0.00000  Uiso   1.00
C18    C     0.63371   0.89639   0.32525   0.00000  Uiso   1.00
C19    C     0.60378   0.91910   0.27328   0.00000  Uiso   1.00
C20    C     0.57494   0.94035   0.32596   0.00000  Uiso   1.00
C21    C     0.67271   0.80602   0.32255   0.00000  Uiso   1.00
C22    C     0.67556   0.75274   0.26831   0.00000  Uiso   1.00
C23    C     0.67954   0.69789   0.31872   0.00000  Uiso   1.00
H24    H     0.67101   0.86709   0.54690   0.00000  Uiso   1.00
H25    H     0.72787   0.93716   0.55951   0.00000  Uiso   1.00
H26    H     0.60683   0.91502   0.55720   0.00000  Uiso   1.00
H27    H     0.67859   0.74869   0.55223   0.00000  Uiso   1.00
H28    H     0.79044   0.01551   0.52896   0.00000  Uiso   1.00
H29    H     0.53520   0.96881   0.52408   0.00000  Uiso   1.00
H30    H     0.68653   0.61805   0.51360   0.00000  Uiso   1.00
H31    H     0.66733   0.87201   0.20364   0.00000  Uiso   1.00
H32    H     0.72400   0.94235   0.19742   0.00000  Uiso   1.00
H33    H     0.60296   0.92021   0.19511   0.00000  Uiso   1.00
H34    H     0.67472   0.75388   0.19014   0.00000  Uiso   1.00
H35    H     0.78730   0.01972   0.23507   0.00000  Uiso   1.00
H36    H     0.53206   0.97302   0.23020   0.00000  Uiso   1.00
H37    H     0.68339   0.62226   0.21971   0.00000  Uiso   1.00
O38    O     0.82620   0.06382   0.38411   0.00000  Uiso   1.00
O39    O     0.49134   0.00253   0.37772   0.00000  Uiso   1.00
O40    O     0.68988   0.54235   0.36397   0.00000  Uiso   1.00
N41    N     0.78193   0.00684   0.46064   0.00000  Uiso   1.00
N42    N     0.54330   0.96318   0.45609   0.00000  Uiso   1.00
N43    N     0.68477   0.63525   0.44629   0.00000  Uiso   1.00
N44    N     0.78024   0.00910   0.30250   0.00000  Uiso   1.00
N45    N     0.54161   0.96545   0.29795   0.00000  Uiso   1.00
N46    N     0.68307   0.63752   0.28815   0.00000  Uiso   1.00
C47    C     0.17017   0.36822   0.46826   0.00000  Uiso   1.00
C48    C     0.20056   0.40697   0.42751   0.00000  Uiso   1.00
C49    C     0.22705   0.43829   0.48134   0.00000  Uiso   1.00
C50    C     0.25245   0.47116   0.43053   0.00000  Uiso   1.00
C51    C     0.29980   0.53113   0.38263   0.00000  Uiso   1.00
C52    C     0.13479   0.39495   0.42626   0.00000  Uiso   1.00
C53    C     0.10599   0.41615   0.47903   0.00000  Uiso   1.00
C54    C     0.07603   0.43889   0.42716   0.00000  Uiso   1.00
C55    C     0.02126   0.48016   0.37731   0.00000  Uiso   1.00
C56    C     0.17379   0.30457   0.42356   0.00000  Uiso   1.00
C57    C     0.17776   0.24979   0.47406   0.00000  Uiso   1.00
C58    C     0.18062   0.19644   0.41991   0.00000  Uiso   1.00
C59    C     0.18639   0.09739   0.36588   0.00000  Uiso   1.00
C60    C     0.16818   0.37088   0.28229   0.00000  Uiso   1.00
C61    C     0.19947   0.40842   0.32650   0.00000  Uiso   1.00
C62    C     0.22485   0.44124   0.27559   0.00000  Uiso   1.00
C63    C     0.25137   0.47261   0.32933   0.00000  Uiso   1.00
C64    C     0.13371   0.39639   0.32525   0.00000  Uiso   1.00
C65    C     0.10378   0.41910   0.27328   0.00000  Uiso   1.00
C66    C     0.07494   0.44035   0.32596   0.00000  Uiso   1.00
C67    C     0.17271   0.30602   0.32255   0.00000  Uiso   1.00
C68    C     0.17556   0.25274   0.26831   0.00000  Uiso   1.00
C69    C     0.17954   0.19789   0.31872   0.00000  Uiso   1.00
H70    H     0.17101   0.36709   0.54690   0.00000  Uiso   1.00
H71    H     0.22787   0.43716   0.55951   0.00000  Uiso   1.00
H72    H     0.10683   0.41502   0.55720   0.00000  Uiso   1.00
H73    H     0.17859   0.24869   0.55223   0.00000  Uiso   1.00
H74    H     0.29044   0.51551   0.52896   0.00000  Uiso   1.00
H75    H     0.03520   0.46881   0.52408   0.00000  Uiso   1.00
H76    H     0.18653   0.11805   0.51360   0.00000  Uiso   1.00
H77    H     0.16733   0.37201   0.20364   0.00000  Uiso   1.00
H78    H     0.22400   0.44235   0.19742   0.00000  Uiso   1.00
H79    H     0.10296   0.42021   0.19511   0.00000  Uiso   1.00
H80    H     0.17472   0.25388   0.19014   0.00000  Uiso   1.00
H81    H     0.28730   0.51972   0.23507   0.00000  Uiso   1.00
H82    H     0.03206   0.47302   0.23020   0.00000  Uiso   1.00
H83    H     0.18339   0.12226   0.21971   0.00000  Uiso   1.00
O84    O     0.32620   0.56382   0.38411   0.00000  Uiso   1.00
O85    O     0.99134   0.50253   0.37772   0.00000  Uiso   1.00
O86    O     0.18988   0.04235   0.36397   0.00000  Uiso   1.00
N87    N     0.28193   0.50684   0.46064   0.00000  Uiso   1.00
N88    N     0.04330   0.46318   0.45609   0.00000  Uiso   1.00
N89    N     0.18477   0.13525   0.44629   0.00000  Uiso   1.00
N90    N     0.28024   0.50910   0.30250   0.00000  Uiso   1.00
N91    N     0.04161   0.46545   0.29795   0.00000  Uiso   1.00
N92    N     0.18307   0.13752   0.28815   0.00000  Uiso   1.00
C93    C     0.32983   0.86822   0.03174   0.00000  Uiso   1.00
C94    C     0.29944   0.90697   0.07249   0.00000  Uiso   1.00
C95    C     0.27295   0.93829   0.01866   0.00000  Uiso   1.00
C96    C     0.24755   0.97116   0.06947   0.00000  Uiso   1.00
C97    C     0.20020   0.03113   0.11737   0.00000  Uiso   1.00
C98    C     0.36521   0.89495   0.07374   0.00000  Uiso   1.00
C99    C     0.39401   0.91615   0.02097   0.00000  Uiso   1.00
C100   C     0.42397   0.93889   0.07284   0.00000  Uiso   1.00
C101   C     0.47874   0.98016   0.12269   0.00000  Uiso   1.00
C102   C     0.32621   0.80457   0.07644   0.00000  Uiso   1.00
C103   C     0.32224   0.74979   0.02594   0.00000  Uiso   1.00
C104   C     0.31938   0.69644   0.08009   0.00000  Uiso   1.00
C105   C     0.31361   0.59739   0.13412   0.00000  Uiso   1.00
C106   C     0.33182   0.87088   0.21771   0.00000  Uiso   1.00
C107   C     0.30053   0.90842   0.17350   0.00000  Uiso   1.00
C108   C     0.27515   0.94124   0.22441   0.00000  Uiso   1.00
C109   C     0.24863   0.97261   0.17067   0.00000  Uiso   1.00
C110   C     0.36629   0.89639   0.17475   0.00000  Uiso   1.00
C111   C     0.39622   0.91910   0.22672   0.00000  Uiso   1.00
C112   C     0.42506   0.94035   0.17404   0.00000  Uiso   1.00
C113   C     0.32729   0.80602   0.17745   0.00000  Uiso   1.00
C114   C     0.32444   0.75274   0.23169   0.00000  Uiso   1.00
C115   C     0.32046   0.69789   0.18128   0.00000  Uiso   1.00
H116   H     0.32899   0.86709   0.95310   0.00000  Uiso   1.00
H117   H     0.27213   0.93716   0.94049   0.00000  Uiso   1.00
H118   H     0.39317   0.91502   0.94280   0.00000  Uiso   1.00
H119   H     0.32141   0.74869   0.94777   0.00000  Uiso   1.00
H120   H     0.20956   0.01551   0.97104   0.00000  Uiso   1.00
H121   H     0.46480   0.96881   0.97592   0.00000  Uiso   1.00
H122   H     0.31347   0.61805   0.98640   0.00000  Uiso   1.00
H123   H     0.33267   0.87201   0.29636   0.00000  Uiso   1.00
H124   H     0.27600   0.94235   0.30258   0.00000  Uiso   1.00
H125   H     0.39704   0.92021   0.30489   0.00000  Uiso   1.00
H126   H     0.32528   0.75388   0.30986   0.00000  Uiso   1.00
H127   H     0.21270   0.01972   0.26493   0.00000  Uiso   1.00
H128   H     0.46794   0.97302   0.26980   0.00000  Uiso   1.00
H129   H     0.31661   0.62226   0.28029   0.00000  Uiso   1.00
O130   O     0.17380   0.06382   0.11589   0.00000  Uiso   1.00
O131   O     0.50866   0.00253   0.12228   0.00000  Uiso   1.00
O132   O     0.31012   0.54235   0.13603   0.00000  Uiso   1.00
N133   N     0.21807   0.00684   0.03936   0.00000  Uiso   1.00
N134   N     0.45670   0.96318   0.04391   0.00000  Uiso   1.00
N135   N     0.31523   0.63525   0.05371   0.00000  Uiso   1.00
N136   N     0.21976   0.00910   0.19750   0.00000  Uiso   1.00
N137   N     0.45839   0.96545   0.20205   0.00000  Uiso   1.00
N138   N     0.31693   0.63752   0.21185   0.00000  Uiso   1.00
C139   C     0.82983   0.36822   0.03174   0.00000  Uiso   1.00
C140   C     0.79944   0.40697   0.07249   0.00000  Uiso   1.00
C141   C     0.77295   0.43829   0.01866   0.00000  Uiso   1.00
C142   C     0.74755   0.47116   0.06947   0.00000  Uiso   1.00
C143   C     0.70020   0.53113   0.11737   0.00000  Uiso   1.00
C144   C     0.86521   0.39495   0.07374   0.00000  Uiso   1.00
C145   C     0.89401   0.41615   0.02097   0.00000  Uiso   1.00
C146   C     0.92397   0.43889   0.07284   0.00000  Uiso   1.00
C147   C     0.97874   0.48016   0.12269   0.00000  Uiso   1.00
C148   C     0.82621   0.30457   0.07644   0.00000  Uiso   1.00
C149   C     0.82224   0.24979   0.02594   0.00000  Uiso   1.00
C150   C     0.81938   0.19644   0.08009   0.00000  Uiso   1.00
C151   C     0.81361   0.09739   0.13412   0.00000  Uiso   1.00
C152   C     0.83182   0.37088   0.21771   0.00000  Uiso   1.00
C153   C     0.80053   0.40842   0.17350   0.00000  Uiso   1.00
C154   C     0.77515   0.44124   0.22441   0.00000  Uiso   1.00
C155   C     0.74863   0.47261   0.17067   0.00000  Uiso   1.00
C156   C     0.86629   0.39639   0.17475   0.00000  Uiso   1.00
C157   C     0.89622   0.41910   0.22672   0.00000  Uiso   1.00
C158   C     0.92506   0.44035   0.17404   0.00000  Uiso   1.00
C159   C     0.82729   0.30602   0.17745   0.00000  Uiso   1.00
C160   C     0.82444   0.25274   0.23169   0.00000  Uiso   1.00
C161   C     0.82046   0.19789   0.18128   0.00000  Uiso   1.00
H162   H     0.82899   0.36709   0.95310   0.00000  Uiso   1.00
H163   H     0.77213   0.43716   0.94049   0.00000  Uiso   1.00
H164   H     0.89317   0.41502   0.94280   0.00000  Uiso   1.00
H165   H     0.82141   0.24869   0.94777   0.00000  Uiso   1.00
H166   H     0.70956   0.51551   0.97104   0.00000  Uiso   1.00
H167   H     0.96480   0.46881   0.97592   0.00000  Uiso   1.00
H168   H     0.81347   0.11805   0.98640   0.00000  Uiso   1.00
H169   H     0.83267   0.37201   0.29636   0.00000  Uiso   1.00
H170   H     0.77600   0.44235   0.30258   0.00000  Uiso   1.00
H171   H     0.89704   0.42021   0.30489   0.00000  Uiso   1.00
H172   H     0.82528   0.25388   0.30986   0.00000  Uiso   1.00
H173   H     0.71270   0.51972   0.26493   0.00000  Uiso   1.00
H174   H     0.96794   0.47302   0.26980   0.00000  Uiso   1.00
H175   H     0.81661   0.12226   0.28029   0.00000  Uiso   1.00
O176   O     0.67380   0.56382   0.11589   0.00000  Uiso   1.00
O177   O     0.00866   0.50253   0.12228   0.00000  Uiso   1.00
O178   O     0.81012   0.04235   0.13603   0.00000  Uiso   1.00
N179   N     0.71807   0.50684   0.03936   0.00000  Uiso   1.00
N180   N     0.95670   0.46318   0.04391   0.00000  Uiso   1.00
N181   N     0.81523   0.13525   0.05371   0.00000  Uiso   1.00
N182   N     0.71976   0.50910   0.19750   0.00000  Uiso   1.00
N183   N     0.95839   0.46545   0.20205   0.00000  Uiso   1.00
N184   N     0.81693   0.13752   0.21185   0.00000  Uiso   1.00
C185   C     0.32983   0.13178   0.53174   0.00000  Uiso   1.00
C186   C     0.29944   0.09303   0.57249   0.00000  Uiso   1.00
C187   C     0.27295   0.06171   0.51866   0.00000  Uiso   1.00
C188   C     0.24755   0.02884   0.56947   0.00000  Uiso   1.00
C189   C     0.20020   0.96887   0.61737   0.00000  Uiso   1.00
C190   C     0.36521   0.10505   0.57374   0.00000  Uiso   1.00
C191   C     0.39401   0.08385   0.52097   0.00000  Uiso   1.00
C192   C     0.42397   0.06111   0.57284   0.00000  Uiso   1.00
C193   C     0.47874   0.01984   0.62269   0.00000  Uiso   1.00
C194   C     0.32621   0.19543   0.57644   0.00000  Uiso   1.00
C195   C     0.32224   0.25021   0.52594   0.00000  Uiso   1.00
C196   C     0.31938   0.30356   0.58009   0.00000  Uiso   1.00
C197   C     0.31361   0.40261   0.63412   0.00000  Uiso   1.00
C198   C     0.33182   0.12912   0.71771   0.00000  Uiso   1.00
C199   C     0.30053   0.09158   0.67350   0.00000  Uiso   1.00
C200   C     0.27515   0.05876   0.72441   0.00000  Uiso   1.00
C201   C     0.24863   0.02739   0.67067   0.00000  Uiso   1.00
C202   C     0.36629   0.10361   0.67475   0.00000  Uiso   1.00
C203   C     0.39622   0.08090   0.72672   0.00000  Uiso   1.00
C204   C     0.42506   0.05965   0.67404   0.00000  Uiso   1.00
C205   C     0.32729   0.19398   0.67745   0.00000  Uiso   1.00
C206   C     0.32444   0.24726   0.73169   0.00000  Uiso   1.00
C207   C     0.32046   0.30211   0.68128   0.00000  Uiso   1.00
H208   H     0.32899   0.13291   0.45310   0.00000  Uiso   1.00
H209   H     0.27213   0.06284   0.44049   0.00000  Uiso   1.00
H210   H     0.39317   0.08498   0.44280   0.00000  Uiso   1.00
H211   H     0.32141   0.25131   0.44777   0.00000  Uiso   1.00
H212   H     0.20956   0.98449   0.47104   0.00000  Uiso   1.00
H213   H     0.46480   0.03119   0.47592   0.00000  Uiso   1.00
H214   H     0.31347   0.38195   0.48640   0.00000  Uiso   1.00
H215   H     0.33267   0.12799   0.79636   0.00000  Uiso   1.00
H216   H     0.27600   0.05765   0.80258   0.00000  Uiso   1.00
H217   H     0.39704   0.07979   0.80489   0.00000  Uiso   1.00
H218   H     0.32528   0.24612   0.80986   0.00000  Uiso   1.00
H219   H     0.21270   0.98028   0.76493   0.00000  Uiso   1.00
H220   H     0.46794   0.02698   0.76980   0.00000  Uiso   1.00
H221   H     0.31661   0.37774   0.78029   0.00000  Uiso   1.00
O222   O     0.17380   0.93618   0.61589   0.00000  Uiso   1.00
O223   O     0.50866   0.99747   0.62228   0.00000  Uiso   1.00
O224   O     0.31012   0.45765   0.63603   0.00000  Uiso   1.00
N225   N     0.21807   0.99316   0.53936   0.00000  Uiso   1.00
N226   N     0.45670   0.03682   0.54391   0.00000  Uiso   1.00
N227   N     0.31523   0.36475   0.55371   0.00000  Uiso   1.00
N228   N     0.21976   0.99090   0.69750   0.00000  Uiso   1.00
N229   N     0.45839   0.03455   0.70205   0.00000  Uiso   1.00
N230   N     0.31693   0.36248   0.71185   0.00000  Uiso   1.00
C231   C     0.82983   0.63178   0.53174   0.00000  Uiso   1.00
C232   C     0.79944   0.59303   0.57249   0.00000  Uiso   1.00
C233   C     0.77295   0.56171   0.51866   0.00000  Uiso   1.00
C234   C     0.74755   0.52884   0.56947   0.00000  Uiso   1.00
C235   C     0.70020   0.46887   0.61737   0.00000  Uiso   1.00
C236   C     0.86521   0.60505   0.57374   0.00000  Uiso   1.00
C237   C     0.89401   0.58385   0.52097   0.00000  Uiso   1.00
C238   C     0.92397   0.56111   0.57284   0.00000  Uiso   1.00
C239   C     0.97874   0.51984   0.62269   0.00000  Uiso   1.00
C240   C     0.82621   0.69543   0.57644   0.00000  Uiso   1.00
C241   C     0.82224   0.75021   0.52594   0.00000  Uiso   1.00
C242   C     0.81938   0.80356   0.58009   0.00000  Uiso   1.00
C243   C     0.81361   0.90261   0.63412   0.00000  Uiso   1.00
C244   C     0.83182   0.62912   0.71771   0.00000  Uiso   1.00
C245   C     0.80053   0.59158   0.67350   0.00000  Uiso   1.00
C246   C     0.77515   0.55876   0.72441   0.00000  Uiso   1.00
C247   C     0.74863   0.52739   0.67067   0.00000  Uiso   1.00
C248   C     0.86629   0.60361   0.67475   0.00000  Uiso   1.00
C249   C     0.89622   0.58090   0.72672   0.00000  Uiso   1.00
C250   C     0.92506   0.55965   0.67404   0.00000  Uiso   1.00
C251   C     0.82729   0.69398   0.67745   0.00000  Uiso   1.00
C252   C     0.82444   0.74726   0.73169   0.00000  Uiso   1.00
C253   C     0.82046   0.80211   0.68128   0.00000  Uiso   1.00
H254   H     0.82899   0.63291   0.45310   0.00000  Uiso   1.00
H255   H     0.77213   0.56284   0.44049   0.00000  Uiso   1.00
H256   H     0.89317   0.58498   0.44280   0.00000  Uiso   1.00
H257   H     0.82141   0.75131   0.44777   0.00000  Uiso   1.00
H258   H     0.70956   0.48449   0.47104   0.00000  Uiso   1.00
H259   H     0.96480   0.53119   0.47592   0.00000  Uiso   1.00
H260   H     0.81347   0.88195   0.48640   0.00000  Uiso   1.00
H261   H     0.83267   0.62799   0.79636   0.00000  Uiso   1.00
H262   H     0.77600   0.55765   0.80258   0.00000  Uiso   1.00
H263   H     0.89704   0.57979   0.80489   0.00000  Uiso   1.00
H264   H     0.82528   0.74612   0.80986   0.00000  Uiso   1.00
H265   H     0.71270   0.48028   0.76493   0.00000  Uiso   1.00
H266   H     0.96794   0.52698   0.76980   0.00000  Uiso   1.00
H267   H     0.81661   0.87774   0.78029   0.00000  Uiso   1.00
O268   O     0.67380   0.43618   0.61589   0.00000  Uiso   1.00
O269   O     0.00866   0.49747   0.62228   0.00000  Uiso   1.00
O270   O     0.81012   0.95765   0.63603   0.00000  Uiso   1.00
N271   N     0.71807   0.49316   0.53936   0.00000  Uiso   1.00
N272   N     0.95670   0.53682   0.54391   0.00000  Uiso   1.00
N273   N     0.81523   0.86475   0.55371   0.00000  Uiso   1.00
N274   N     0.71976   0.49090   0.69750   0.00000  Uiso   1.00
N275   N     0.95839   0.53455   0.70205   0.00000  Uiso   1.00
N276   N     0.81693   0.86248   0.71185   0.00000  Uiso   1.00
C277   C     0.67017   0.13178   0.96826   0.00000  Uiso   1.00
C278   C     0.70056   0.09303   0.92751   0.00000  Uiso   1.00
C279   C     0.72705   0.06171   0.98134   0.00000  Uiso   1.00
C280   C     0.75245   0.02884   0.93053   0.00000  Uiso   1.00
C281   C     0.79980   0.96887   0.88263   0.00000  Uiso   1.00
C282   C     0.63479   0.10505   0.92626   0.00000  Uiso   1.00
C283   C     0.60599   0.08385   0.97903   0.00000  Uiso   1.00
C284   C     0.57603   0.06111   0.92716   0.00000  Uiso   1.00
C285   C     0.52126   0.01984   0.87731   0.00000  Uiso   1.00
C286   C     0.67379   0.19543   0.92356   0.00000  Uiso   1.00
C287   C     0.67776   0.25021   0.97406   0.00000  Uiso   1.00
C288   C     0.68062   0.30356   0.91991   0.00000  Uiso   1.00
C289   C     0.68639   0.40261   0.86588   0.00000  Uiso   1.00
C290   C     0.66818   0.12912   0.78229   0.00000  Uiso   1.00
C291   C     0.69947   0.09158   0.82650   0.00000  Uiso   1.00
C292   C     0.72485   0.05876   0.77559   0.00000  Uiso   1.00
C293   C     0.75137   0.02739   0.82933   0.00000  Uiso   1.00
C294   C     0.63371   0.10361   0.82525   0.00000  Uiso   1.00
C295   C     0.60378   0.08090   0.77328   0.00000  Uiso   1.00
C296   C     0.57494   0.05965   0.82596   0.00000  Uiso   1.00
C297   C     0.67271   0.19398   0.82255   0.00000  Uiso   1.00
C298   C     0.67556   0.24726   0.76831   0.00000  Uiso   1.00
C299   C     0.67954   0.30211   0.81872   0.00000  Uiso   1.00
H300   H     0.67101   0.13291   0.04690   0.00000  Uiso   1.00
H301   H     0.72787   0.06284   0.05951   0.00000  Uiso   1.00
H302   H     0.60683   0.08498   0.05720   0.00000  Uiso   1.00
H303   H     0.67859   0.25131   0.05223   0.00000  Uiso   1.00
H304   H     0.79044   0.98449   0.02896   0.00000  Uiso   1.00
H305   H     0.53520   0.03119   0.02408   0.00000  Uiso   1.00
H306   H     0.68653   0.38195   0.01360   0.00000  Uiso   1.00
H307   H     0.66733   0.12799   0.70364   0.00000  Uiso   1.00
H308   H     0.72400   0.05765   0.69742   0.00000  Uiso   1.00
H309   H     0.60296   0.07979   0.69511   0.00000  Uiso   1.00
H310   H     0.67472   0.24612   0.69014   0.00000  Uiso   1.00
H311   H     0.78730   0.98028   0.73507   0.00000  Uiso   1.00
H312   H     0.53206   0.02698   0.73020   0.00000  Uiso   1.00
H313   H     0.68339   0.37774   0.71971   0.00000  Uiso   1.00
O314   O     0.82620   0.93618   0.88411   0.00000  Uiso   1.00
O315   O     0.49134   0.99747   0.87772   0.00000  Uiso   1.00
O316   O     0.68988   0.45765   0.86397   0.00000  Uiso   1.00
N317   N     0.78193   0.99316   0.96064   0.00000  Uiso   1.00
N318   N     0.54330   0.03682   0.95609   0.00000  Uiso   1.00
N319   N     0.68477   0.36475   0.94629   0.00000  Uiso   1.00
N320   N     0.78024   0.99090   0.80250   0.00000  Uiso   1.00
N321   N     0.54161   0.03455   0.79795   0.00000  Uiso   1.00
N322   N     0.68307   0.36248   0.78815   0.00000  Uiso   1.00
C323   C     0.17017   0.63178   0.96826   0.00000  Uiso   1.00
C324   C     0.20056   0.59303   0.92751   0.00000  Uiso   1.00
C325   C     0.22705   0.56171   0.98134   0.00000  Uiso   1.00
C326   C     0.25245   0.52884   0.93053   0.00000  Uiso   1.00
C327   C     0.29980   0.46887   0.88263   0.00000  Uiso   1.00
C328   C     0.13479   0.60505   0.92626   0.00000  Uiso   1.00
C329   C     0.10599   0.58385   0.97903   0.00000  Uiso   1.00
C330   C     0.07603   0.56111   0.92716   0.00000  Uiso   1.00
C331   C     0.02126   0.51984   0.87731   0.00000  Uiso   1.00
C332   C     0.17379   0.69543   0.92356   0.00000  Uiso   1.00
C333   C     0.17776   0.75021   0.97406   0.00000  Uiso   1.00
C334   C     0.18062   0.80356   0.91991   0.00000  Uiso   1.00
C335   C     0.18639   0.90261   0.86588   0.00000  Uiso   1.00
C336   C     0.16818   0.62912   0.78229   0.00000  Uiso   1.00
C337   C     0.19947   0.59158   0.82650   0.00000  Uiso   1.00
C338   C     0.22485   0.55876   0.77559   0.00000  Uiso   1.00
C339   C     0.25137   0.52739   0.82933   0.00000  Uiso   1.00
C340   C     0.13371   0.60361   0.82525   0.00000  Uiso   1.00
C341   C     0.10378   0.58090   0.77328   0.00000  Uiso   1.00
C342   C     0.07494   0.55965   0.82596   0.00000  Uiso   1.00
C343   C     0.17271   0.69398   0.82255   0.00000  Uiso   1.00
C344   C     0.17556   0.74726   0.76831   0.00000  Uiso   1.00
C345   C     0.17954   0.80211   0.81872   0.00000  Uiso   1.00
H346   H     0.17101   0.63291   0.04690   0.00000  Uiso   1.00
H347   H     0.22787   0.56284   0.05951   0.00000  Uiso   1.00
H348   H     0.10683   0.58498   0.05720   0.00000  Uiso   1.00
H349   H     0.17859   0.75131   0.05223   0.00000  Uiso   1.00
H350   H     0.29044   0.48449   0.02896   0.00000  Uiso   1.00
H351   H     0.03520   0.53119   0.02408   0.00000  Uiso   1.00
H352   H     0.18653   0.88195   0.01360   0.00000  Uiso   1.00
H353   H     0.16733   0.62799   0.70364   0.00000  Uiso   1.00
H354   H     0.22400   0.55765   0.69742   0.00000  Uiso   1.00
H355   H     0.10296   0.57979   0.69511   0.00000  Uiso   1.00
H356   H     0.17472   0.74612   0.69014   0.00000  Uiso   1.00
H357   H     0.28730   0.48028   0.73507   0.00000  Uiso   1.00
H358   H     0.03206   0.52698   0.73020   0.00000  Uiso   1.00
H359   H     0.18339   0.87774   0.71971   0.00000  Uiso   1.00
O360   O     0.32620   0.43618   0.88411   0.00000  Uiso   1.00
O361   O     0.99134   0.49747   0.87772   0.00000  Uiso   1.00
O362   O     0.18988   0.95765   0.86397   0.00000  Uiso   1.00
N363   N     0.28193   0.49316   0.96064   0.00000  Uiso   1.00
N364   N     0.04330   0.53682   0.95609   0.00000  Uiso   1.00
N365   N     0.18477   0.86475   0.94629   0.00000  Uiso   1.00
N366   N     0.28024   0.49090   0.80250   0.00000  Uiso   1.00
N367   N     0.04161   0.53455   0.79795   0.00000  Uiso   1.00
N368   N     0.18307   0.86248   0.78815   0.00000  Uiso   1.00
