data_job_02469
_audit_creation_date              2018-12-19
_audit_creation_method            'Materials Studio'
_symmetry_space_group_name_H-M    'P1'
_symmetry_Int_Tables_number       1
_symmetry_cell_setting            triclinic
loop_
_symmetry_equiv_pos_as_xyz
  x,y,z
_cell_length_a                    20.8866
_cell_length_b                    11.9334
_cell_length_c                    14.5983
_cell_angle_alpha                 90.0000
_cell_angle_beta                  92.0322
_cell_angle_gamma                 90.0000
loop_
_atom_site_label
_atom_site_type_symbol
_atom_site_fract_x
_atom_site_fract_y
_atom_site_fract_z
_atom_site_U_iso_or_equiv
_atom_site_adp_type
_atom_site_occupancy
C1     C     0.31802   0.91932   0.94664   0.00000  Uiso   1.00
C2     C     0.36065   0.02093   0.93155   0.00000  Uiso   1.00
C3     C     0.39784   0.07516   0.99858   0.00000  Uiso   1.00
C4     C     0.43346   0.16657   0.97094   0.00000  Uiso   1.00
C5     C     0.49986   0.31894   0.96143   0.00000  Uiso   1.00
C6     C     0.25102   0.95300   0.91200   0.00000  Uiso   1.00
C7     C     0.19603   0.95010   0.96260   0.00000  Uiso   1.00
C8     C     0.13937   0.98430   0.91850   0.00000  Uiso   1.00
C9     C     0.03556   0.03112   0.87862   0.00000  Uiso   1.00
C10    C     0.34044   0.82918   0.88103   0.00000  Uiso   1.00
C11    C     0.36061   0.72217   0.90557   0.00000  Uiso   1.00
C12    C     0.37921   0.65213   0.83538   0.00000  Uiso   1.00
C13    C     0.41423   0.50671   0.74741   0.00000  Uiso   1.00
C14    C     0.31517   0.98520   0.77834   0.00000  Uiso   1.00
C15    C     0.35910   0.05671   0.84013   0.00000  Uiso   1.00
C16    C     0.39468   0.14805   0.81238   0.00000  Uiso   1.00
C17    C     0.43191   0.20242   0.87936   0.00000  Uiso   1.00
C18    C     0.24947   0.98878   0.82059   0.00000  Uiso   1.00
C19    C     0.19287   0.02299   0.77640   0.00000  Uiso   1.00
C20    C     0.13781   0.02015   0.82692   0.00000  Uiso   1.00
C21    C     0.33889   0.86497   0.78961   0.00000  Uiso   1.00
C22    C     0.35746   0.79507   0.71937   0.00000  Uiso   1.00
C23    C     0.37766   0.68797   0.74380   0.00000  Uiso   1.00
H24    H     0.31923   0.89146   0.01781   0.00000  Uiso   1.00
H25    H     0.39902   0.04745   0.06932   0.00000  Uiso   1.00
H26    H     0.19725   0.92239   0.03334   0.00000  Uiso   1.00
H27    H     0.36180   0.69451   0.97632   0.00000  Uiso   1.00
H28    H     0.48678   0.23621   0.08613   0.00000  Uiso   1.00
H29    H     0.06133   0.97248   0.01026   0.00000  Uiso   1.00
H30    H     0.40833   0.49193   0.89002   0.00000  Uiso   1.00
H31    H     0.31396   0.01306   0.70716   0.00000  Uiso   1.00
H32    H     0.39347   0.17573   0.74163   0.00000  Uiso   1.00
H33    H     0.19169   0.05067   0.70566   0.00000  Uiso   1.00
H34    H     0.35625   0.82279   0.64863   0.00000  Uiso   1.00
H35    H     0.48228   0.34032   0.82017   0.00000  Uiso   1.00
H36    H     0.05682   0.07659   0.74429   0.00000  Uiso   1.00
H37    H     0.40382   0.59605   0.62405   0.00000  Uiso   1.00
O38    O     0.53691   0.39310   0.98143   0.00000  Uiso   1.00
O39    O     0.97873   0.04708   0.88189   0.00000  Uiso   1.00
O40    O     0.43399   0.41662   0.72414   0.00000  Uiso   1.00
N41    N     0.47482   0.23837   0.01880   0.00000  Uiso   1.00
N42    N     0.07705   0.99182   0.94787   0.00000  Uiso   1.00
N43    N     0.40145   0.54254   0.83545   0.00000  Uiso   1.00
N44    N     0.47240   0.29439   0.87569   0.00000  Uiso   1.00
N45    N     0.07462   0.04784   0.80476   0.00000  Uiso   1.00
N46    N     0.39902   0.59856   0.69234   0.00000  Uiso   1.00
C47    C     0.68198   0.91932   0.55336   0.00000  Uiso   1.00
C48    C     0.63935   0.02093   0.56845   0.00000  Uiso   1.00
C49    C     0.60216   0.07516   0.50142   0.00000  Uiso   1.00
C50    C     0.56654   0.16657   0.52906   0.00000  Uiso   1.00
C51    C     0.50014   0.31894   0.53857   0.00000  Uiso   1.00
C52    C     0.74898   0.95300   0.58800   0.00000  Uiso   1.00
C53    C     0.80397   0.95010   0.53740   0.00000  Uiso   1.00
C54    C     0.86063   0.98430   0.58150   0.00000  Uiso   1.00
C55    C     0.96444   0.03112   0.62138   0.00000  Uiso   1.00
C56    C     0.65956   0.82918   0.61897   0.00000  Uiso   1.00
C57    C     0.63939   0.72217   0.59443   0.00000  Uiso   1.00
C58    C     0.62079   0.65213   0.66462   0.00000  Uiso   1.00
C59    C     0.58577   0.50671   0.75259   0.00000  Uiso   1.00
C60    C     0.68483   0.98520   0.72166   0.00000  Uiso   1.00
C61    C     0.64090   0.05671   0.65987   0.00000  Uiso   1.00
C62    C     0.60532   0.14805   0.68762   0.00000  Uiso   1.00
C63    C     0.56809   0.20242   0.62064   0.00000  Uiso   1.00
C64    C     0.75053   0.98878   0.67941   0.00000  Uiso   1.00
C65    C     0.80713   0.02299   0.72360   0.00000  Uiso   1.00
C66    C     0.86219   0.02015   0.67308   0.00000  Uiso   1.00
C67    C     0.66111   0.86497   0.71039   0.00000  Uiso   1.00
C68    C     0.64254   0.79507   0.78063   0.00000  Uiso   1.00
C69    C     0.62234   0.68797   0.75620   0.00000  Uiso   1.00
H70    H     0.68077   0.89146   0.48219   0.00000  Uiso   1.00
H71    H     0.60098   0.04745   0.43068   0.00000  Uiso   1.00
H72    H     0.80275   0.92239   0.46666   0.00000  Uiso   1.00
H73    H     0.63820   0.69451   0.52368   0.00000  Uiso   1.00
H74    H     0.51322   0.23621   0.41387   0.00000  Uiso   1.00
H75    H     0.93867   0.97248   0.48974   0.00000  Uiso   1.00
H76    H     0.59167   0.49193   0.60998   0.00000  Uiso   1.00
H77    H     0.68604   0.01306   0.79284   0.00000  Uiso   1.00
H78    H     0.60653   0.17573   0.75837   0.00000  Uiso   1.00
H79    H     0.80831   0.05067   0.79434   0.00000  Uiso   1.00
H80    H     0.64375   0.82279   0.85137   0.00000  Uiso   1.00
H81    H     0.51772   0.34032   0.67983   0.00000  Uiso   1.00
H82    H     0.94318   0.07659   0.75571   0.00000  Uiso   1.00
H83    H     0.59618   0.59605   0.87595   0.00000  Uiso   1.00
O84    O     0.46309   0.39310   0.51857   0.00000  Uiso   1.00
O85    O     0.02127   0.04708   0.61811   0.00000  Uiso   1.00
O86    O     0.56601   0.41662   0.77586   0.00000  Uiso   1.00
N87    N     0.52518   0.23837   0.48120   0.00000  Uiso   1.00
N88    N     0.92295   0.99182   0.55213   0.00000  Uiso   1.00
N89    N     0.59855   0.54254   0.66455   0.00000  Uiso   1.00
N90    N     0.52760   0.29439   0.62431   0.00000  Uiso   1.00
N91    N     0.92538   0.04784   0.69524   0.00000  Uiso   1.00
N92    N     0.60098   0.59856   0.80766   0.00000  Uiso   1.00
C93    C     0.68198   0.08068   0.05336   0.00000  Uiso   1.00
C94    C     0.63935   0.97907   0.06845   0.00000  Uiso   1.00
C95    C     0.60216   0.92484   0.00142   0.00000  Uiso   1.00
C96    C     0.56654   0.83343   0.02906   0.00000  Uiso   1.00
C97    C     0.50014   0.68106   0.03857   0.00000  Uiso   1.00
C98    C     0.74898   0.04700   0.08800   0.00000  Uiso   1.00
C99    C     0.80397   0.04990   0.03740   0.00000  Uiso   1.00
C100   C     0.86063   0.01570   0.08150   0.00000  Uiso   1.00
C101   C     0.96444   0.96888   0.12138   0.00000  Uiso   1.00
C102   C     0.65956   0.17082   0.11897   0.00000  Uiso   1.00
C103   C     0.63939   0.27783   0.09443   0.00000  Uiso   1.00
C104   C     0.62079   0.34787   0.16462   0.00000  Uiso   1.00
C105   C     0.58577   0.49329   0.25259   0.00000  Uiso   1.00
C106   C     0.68483   0.01480   0.22166   0.00000  Uiso   1.00
C107   C     0.64090   0.94329   0.15987   0.00000  Uiso   1.00
C108   C     0.60532   0.85195   0.18762   0.00000  Uiso   1.00
C109   C     0.56809   0.79758   0.12064   0.00000  Uiso   1.00
C110   C     0.75053   0.01122   0.17941   0.00000  Uiso   1.00
C111   C     0.80713   0.97701   0.22360   0.00000  Uiso   1.00
C112   C     0.86219   0.97985   0.17308   0.00000  Uiso   1.00
C113   C     0.66111   0.13503   0.21039   0.00000  Uiso   1.00
C114   C     0.64254   0.20493   0.28063   0.00000  Uiso   1.00
C115   C     0.62234   0.31203   0.25620   0.00000  Uiso   1.00
H116   H     0.68077   0.10854   0.98219   0.00000  Uiso   1.00
H117   H     0.60098   0.95255   0.93068   0.00000  Uiso   1.00
H118   H     0.80275   0.07761   0.96666   0.00000  Uiso   1.00
H119   H     0.63820   0.30549   0.02368   0.00000  Uiso   1.00
H120   H     0.51322   0.76379   0.91387   0.00000  Uiso   1.00
H121   H     0.93867   0.02752   0.98974   0.00000  Uiso   1.00
H122   H     0.59167   0.50807   0.10998   0.00000  Uiso   1.00
H123   H     0.68604   0.98694   0.29284   0.00000  Uiso   1.00
H124   H     0.60653   0.82427   0.25837   0.00000  Uiso   1.00
H125   H     0.80831   0.94933   0.29434   0.00000  Uiso   1.00
H126   H     0.64375   0.17721   0.35137   0.00000  Uiso   1.00
H127   H     0.51772   0.65968   0.17983   0.00000  Uiso   1.00
H128   H     0.94318   0.92341   0.25571   0.00000  Uiso   1.00
H129   H     0.59618   0.40395   0.37595   0.00000  Uiso   1.00
O130   O     0.46309   0.60690   0.01857   0.00000  Uiso   1.00
O131   O     0.02127   0.95292   0.11811   0.00000  Uiso   1.00
O132   O     0.56601   0.58338   0.27586   0.00000  Uiso   1.00
N133   N     0.52518   0.76163   0.98120   0.00000  Uiso   1.00
N134   N     0.92295   0.00818   0.05213   0.00000  Uiso   1.00
N135   N     0.59855   0.45746   0.16455   0.00000  Uiso   1.00
N136   N     0.52760   0.70561   0.12431   0.00000  Uiso   1.00
N137   N     0.92538   0.95216   0.19524   0.00000  Uiso   1.00
N138   N     0.60098   0.40144   0.30766   0.00000  Uiso   1.00
C139   C     0.31802   0.08068   0.44664   0.00000  Uiso   1.00
C140   C     0.36065   0.97907   0.43155   0.00000  Uiso   1.00
C141   C     0.39784   0.92484   0.49858   0.00000  Uiso   1.00
C142   C     0.43346   0.83343   0.47094   0.00000  Uiso   1.00
C143   C     0.49986   0.68106   0.46143   0.00000  Uiso   1.00
C144   C     0.25102   0.04700   0.41200   0.00000  Uiso   1.00
C145   C     0.19603   0.04990   0.46260   0.00000  Uiso   1.00
C146   C     0.13937   0.01570   0.41850   0.00000  Uiso   1.00
C147   C     0.03556   0.96888   0.37862   0.00000  Uiso   1.00
C148   C     0.34044   0.17082   0.38103   0.00000  Uiso   1.00
C149   C     0.36061   0.27783   0.40557   0.00000  Uiso   1.00
C150   C     0.37921   0.34787   0.33538   0.00000  Uiso   1.00
C151   C     0.41423   0.49329   0.24741   0.00000  Uiso   1.00
C152   C     0.31517   0.01480   0.27834   0.00000  Uiso   1.00
C153   C     0.35910   0.94329   0.34013   0.00000  Uiso   1.00
C154   C     0.39468   0.85195   0.31238   0.00000  Uiso   1.00
C155   C     0.43191   0.79758   0.37936   0.00000  Uiso   1.00
C156   C     0.24947   0.01122   0.32059   0.00000  Uiso   1.00
C157   C     0.19287   0.97701   0.27640   0.00000  Uiso   1.00
C158   C     0.13781   0.97985   0.32692   0.00000  Uiso   1.00
C159   C     0.33889   0.13503   0.28961   0.00000  Uiso   1.00
C160   C     0.35746   0.20493   0.21937   0.00000  Uiso   1.00
C161   C     0.37766   0.31203   0.24380   0.00000  Uiso   1.00
H162   H     0.31923   0.10854   0.51781   0.00000  Uiso   1.00
H163   H     0.39902   0.95255   0.56932   0.00000  Uiso   1.00
H164   H     0.19725   0.07761   0.53334   0.00000  Uiso   1.00
H165   H     0.36180   0.30549   0.47632   0.00000  Uiso   1.00
H166   H     0.48678   0.76379   0.58613   0.00000  Uiso   1.00
H167   H     0.06133   0.02752   0.51026   0.00000  Uiso   1.00
H168   H     0.40833   0.50807   0.39002   0.00000  Uiso   1.00
H169   H     0.31396   0.98694   0.20716   0.00000  Uiso   1.00
H170   H     0.39347   0.82427   0.24163   0.00000  Uiso   1.00
H171   H     0.19169   0.94933   0.20566   0.00000  Uiso   1.00
H172   H     0.35625   0.17721   0.14863   0.00000  Uiso   1.00
H173   H     0.48228   0.65968   0.32017   0.00000  Uiso   1.00
H174   H     0.05682   0.92341   0.24429   0.00000  Uiso   1.00
H175   H     0.40382   0.40395   0.12405   0.00000  Uiso   1.00
O176   O     0.53691   0.60690   0.48143   0.00000  Uiso   1.00
O177   O     0.97873   0.95292   0.38189   0.00000  Uiso   1.00
O178   O     0.43399   0.58338   0.22414   0.00000  Uiso   1.00
N179   N     0.47482   0.76163   0.51880   0.00000  Uiso   1.00
N180   N     0.07705   0.00818   0.44787   0.00000  Uiso   1.00
N181   N     0.40145   0.45746   0.33545   0.00000  Uiso   1.00
N182   N     0.47240   0.70561   0.37569   0.00000  Uiso   1.00
N183   N     0.07462   0.95216   0.30476   0.00000  Uiso   1.00
N184   N     0.39902   0.40144   0.19234   0.00000  Uiso   1.00
