data_job_05183
_audit_creation_date              2018-12-19
_audit_creation_method            'Materials Studio'
_symmetry_space_group_name_H-M    'P1'
_symmetry_Int_Tables_number       1
_symmetry_cell_setting            triclinic
loop_
_symmetry_equiv_pos_as_xyz
  x,y,z
_cell_length_a                    26.7700
_cell_length_b                    12.7081
_cell_length_c                    24.7619
_cell_angle_alpha                 90.0000
_cell_angle_beta                  137.8525
_cell_angle_gamma                 90.0000
loop_
_atom_site_label
_atom_site_type_symbol
_atom_site_fract_x
_atom_site_fract_y
_atom_site_fract_z
_atom_site_U_iso_or_equiv
_atom_site_adp_type
_atom_site_occupancy
C1     C     0.15778   0.23483   0.39086   0.00000  Uiso   1.00
C2     C     0.23834   0.20179   0.46492   0.00000  Uiso   1.00
C3     C     0.28935   0.17527   0.46599   0.00000  Uiso   1.00
C4     C     0.36030   0.14720   0.53980   0.00000  Uiso   1.00
C5     C     0.48246   0.09608   0.64411   0.00000  Uiso   1.00
C6     C     0.11013   0.15878   0.38545   0.00000  Uiso   1.00
C7     C     0.05335   0.09611   0.31969   0.00000  Uiso   1.00
C8     C     0.01637   0.03185   0.32660   0.00000  Uiso   1.00
C9     C     0.93944   0.91401   0.30751   0.00000  Uiso   1.00
C10    C     0.14905   0.34206   0.41075   0.00000  Uiso   1.00
C11    C     0.12497   0.43349   0.36627   0.00000  Uiso   1.00
C12    C     0.12074   0.52354   0.39448   0.00000  Uiso   1.00
C13    C     0.10425   0.69028   0.41468   0.00000  Uiso   1.00
C14    C     0.19306   0.23216   0.52006   0.00000  Uiso   1.00
C15    C     0.25750   0.20034   0.53509   0.00000  Uiso   1.00
C16    C     0.32839   0.17232   0.60893   0.00000  Uiso   1.00
C17    C     0.37950   0.14576   0.61011   0.00000  Uiso   1.00
C18    C     0.12929   0.15733   0.45562   0.00000  Uiso   1.00
C19    C     0.09238   0.09316   0.46263   0.00000  Uiso   1.00
C20    C     0.03556   0.03040   0.39690   0.00000  Uiso   1.00
C21    C     0.16822   0.34062   0.48093   0.00000  Uiso   1.00
C22    C     0.16401   0.43054   0.50921   0.00000  Uiso   1.00
C23    C     0.13994   0.52209   0.46478   0.00000  Uiso   1.00
H24    H     0.14286   0.23595   0.33623   0.00000  Uiso   1.00
H25    H     0.27450   0.17639   0.41166   0.00000  Uiso   1.00
H26    H     0.03853   0.09725   0.26539   0.00000  Uiso   1.00
H27    H     0.11015   0.43458   0.31197   0.00000  Uiso   1.00
H28    H     0.42889   0.10968   0.52625   0.00000  Uiso   1.00
H29    H     0.93131   0.94284   0.21780   0.00000  Uiso   1.00
H30    H     0.08234   0.65417   0.31601   0.00000  Uiso   1.00
H31    H     0.20798   0.23103   0.57469   0.00000  Uiso   1.00
H32    H     0.34320   0.17120   0.66322   0.00000  Uiso   1.00
H33    H     0.10722   0.09206   0.51694   0.00000  Uiso   1.00
H34    H     0.17884   0.42939   0.56352   0.00000  Uiso   1.00
H35    H     0.48465   0.10546   0.73042   0.00000  Uiso   1.00
H36    H     0.98706   0.93863   0.42197   0.00000  Uiso   1.00
H37    H     0.13809   0.64996   0.52019   0.00000  Uiso   1.00
O38    O     0.54454   0.06827   0.68226   0.00000  Uiso   1.00
O39    O     0.89172   0.84940   0.27759   0.00000  Uiso   1.00
O40    O     0.08987   0.78265   0.40645   0.00000  Uiso   1.00
N41    N     0.42346   0.11692   0.56215   0.00000  Uiso   1.00
N42    N     0.95826   0.96092   0.27378   0.00000  Uiso   1.00
N43    N     0.09944   0.62595   0.36559   0.00000  Uiso   1.00
N44    N     0.45346   0.11465   0.67202   0.00000  Uiso   1.00
N45    N     0.98826   0.95865   0.38364   0.00000  Uiso   1.00
N46    N     0.12944   0.62368   0.47545   0.00000  Uiso   1.00
C47    C     0.34252   0.27258   0.95666   0.00000  Uiso   1.00
C48    C     0.26195   0.23972   0.88251   0.00000  Uiso   1.00
C49    C     0.21085   0.21321   0.88132   0.00000  Uiso   1.00
C50    C     0.13990   0.18532   0.80743   0.00000  Uiso   1.00
C51    C     0.01770   0.13444   0.70297   0.00000  Uiso   1.00
C52    C     0.39014   0.19652   0.96205   0.00000  Uiso   1.00
C53    C     0.44684   0.13369   0.02774   0.00000  Uiso   1.00
C54    C     0.48381   0.06944   0.02081   0.00000  Uiso   1.00
C55    C     0.56069   0.95155   0.03985   0.00000  Uiso   1.00
C56    C     0.35139   0.37986   0.93695   0.00000  Uiso   1.00
C57    C     0.37552   0.47119   0.98155   0.00000  Uiso   1.00
C58    C     0.37988   0.56130   0.95350   0.00000  Uiso   1.00
C59    C     0.39658   0.72808   0.93357   0.00000  Uiso   1.00
C60    C     0.30738   0.27021   0.82755   0.00000  Uiso   1.00
C61    C     0.24287   0.23843   0.81238   0.00000  Uiso   1.00
C62    C     0.17197   0.21058   0.73847   0.00000  Uiso   1.00
C63    C     0.12078   0.18403   0.73718   0.00000  Uiso   1.00
C64    C     0.37106   0.19523   0.89192   0.00000  Uiso   1.00
C65    C     0.40797   0.13106   0.88489   0.00000  Uiso   1.00
C66    C     0.46470   0.06815   0.95055   0.00000  Uiso   1.00
C67    C     0.33231   0.37858   0.86682   0.00000  Uiso   1.00
C68    C     0.33664   0.46856   0.83870   0.00000  Uiso   1.00
C69    C     0.36077   0.56001   0.88324   0.00000  Uiso   1.00
H70    H     0.35738   0.27358   0.01126   0.00000  Uiso   1.00
H71    H     0.22564   0.21420   0.93561   0.00000  Uiso   1.00
H72    H     0.46160   0.13471   0.08200   0.00000  Uiso   1.00
H73    H     0.39028   0.47216   0.03582   0.00000  Uiso   1.00
H74    H     0.07117   0.14777   0.82081   0.00000  Uiso   1.00
H75    H     0.56872   0.98018   0.12951   0.00000  Uiso   1.00
H76    H     0.41835   0.69175   0.03211   0.00000  Uiso   1.00
H77    H     0.29253   0.26920   0.77295   0.00000  Uiso   1.00
H78    H     0.15722   0.20959   0.68421   0.00000  Uiso   1.00
H79    H     0.39318   0.13009   0.83062   0.00000  Uiso   1.00
H80    H     0.32187   0.46754   0.78443   0.00000  Uiso   1.00
H81    H     0.01564   0.14402   0.61677   0.00000  Uiso   1.00
H82    H     0.51320   0.97643   0.92547   0.00000  Uiso   1.00
H83    H     0.36282   0.68800   0.82808   0.00000  Uiso   1.00
O84    O     0.95558   0.10672   0.66472   0.00000  Uiso   1.00
O85    O     0.60836   0.88687   0.06973   0.00000  Uiso   1.00
O86    O     0.41106   0.82043   0.94195   0.00000  Uiso   1.00
N87    N     0.07667   0.15509   0.78496   0.00000  Uiso   1.00
N88    N     0.54184   0.99839   0.07357   0.00000  Uiso   1.00
N89    N     0.40127   0.66364   0.98253   0.00000  Uiso   1.00
N90    N     0.04679   0.15307   0.67517   0.00000  Uiso   1.00
N91    N     0.51196   0.99637   0.96378   0.00000  Uiso   1.00
N92    N     0.37139   0.66162   0.87274   0.00000  Uiso   1.00
C93    C     0.65778   0.73483   0.39086   0.00000  Uiso   1.00
C94    C     0.73834   0.70179   0.46492   0.00000  Uiso   1.00
C95    C     0.78935   0.67527   0.46599   0.00000  Uiso   1.00
C96    C     0.86030   0.64720   0.53980   0.00000  Uiso   1.00
C97    C     0.98246   0.59608   0.64411   0.00000  Uiso   1.00
C98    C     0.61013   0.65878   0.38545   0.00000  Uiso   1.00
C99    C     0.55335   0.59611   0.31969   0.00000  Uiso   1.00
C100   C     0.51637   0.53185   0.32660   0.00000  Uiso   1.00
C101   C     0.43944   0.41401   0.30751   0.00000  Uiso   1.00
C102   C     0.64905   0.84206   0.41075   0.00000  Uiso   1.00
C103   C     0.62497   0.93349   0.36627   0.00000  Uiso   1.00
C104   C     0.62074   0.02354   0.39448   0.00000  Uiso   1.00
C105   C     0.60425   0.19028   0.41468   0.00000  Uiso   1.00
C106   C     0.69306   0.73216   0.52006   0.00000  Uiso   1.00
C107   C     0.75750   0.70034   0.53509   0.00000  Uiso   1.00
C108   C     0.82839   0.67232   0.60893   0.00000  Uiso   1.00
C109   C     0.87950   0.64576   0.61011   0.00000  Uiso   1.00
C110   C     0.62929   0.65733   0.45562   0.00000  Uiso   1.00
C111   C     0.59238   0.59316   0.46263   0.00000  Uiso   1.00
C112   C     0.53556   0.53040   0.39690   0.00000  Uiso   1.00
C113   C     0.66822   0.84062   0.48093   0.00000  Uiso   1.00
C114   C     0.66401   0.93054   0.50921   0.00000  Uiso   1.00
C115   C     0.63994   0.02209   0.46478   0.00000  Uiso   1.00
H116   H     0.64286   0.73595   0.33623   0.00000  Uiso   1.00
H117   H     0.77450   0.67639   0.41166   0.00000  Uiso   1.00
H118   H     0.53853   0.59725   0.26539   0.00000  Uiso   1.00
H119   H     0.61015   0.93458   0.31197   0.00000  Uiso   1.00
H120   H     0.92889   0.60968   0.52625   0.00000  Uiso   1.00
H121   H     0.43131   0.44284   0.21780   0.00000  Uiso   1.00
H122   H     0.58234   0.15417   0.31601   0.00000  Uiso   1.00
H123   H     0.70798   0.73103   0.57469   0.00000  Uiso   1.00
H124   H     0.84320   0.67120   0.66322   0.00000  Uiso   1.00
H125   H     0.60722   0.59206   0.51694   0.00000  Uiso   1.00
H126   H     0.67884   0.92939   0.56352   0.00000  Uiso   1.00
H127   H     0.98465   0.60546   0.73042   0.00000  Uiso   1.00
H128   H     0.48706   0.43863   0.42197   0.00000  Uiso   1.00
H129   H     0.63809   0.14996   0.52019   0.00000  Uiso   1.00
O130   O     0.04454   0.56827   0.68226   0.00000  Uiso   1.00
O131   O     0.39172   0.34940   0.27759   0.00000  Uiso   1.00
O132   O     0.58987   0.28265   0.40645   0.00000  Uiso   1.00
N133   N     0.92346   0.61692   0.56215   0.00000  Uiso   1.00
N134   N     0.45826   0.46092   0.27378   0.00000  Uiso   1.00
N135   N     0.59944   0.12595   0.36559   0.00000  Uiso   1.00
N136   N     0.95346   0.61465   0.67202   0.00000  Uiso   1.00
N137   N     0.48826   0.45865   0.38364   0.00000  Uiso   1.00
N138   N     0.62944   0.12368   0.47545   0.00000  Uiso   1.00
C139   C     0.84252   0.77258   0.95666   0.00000  Uiso   1.00
C140   C     0.76195   0.73972   0.88251   0.00000  Uiso   1.00
C141   C     0.71085   0.71321   0.88132   0.00000  Uiso   1.00
C142   C     0.63990   0.68532   0.80743   0.00000  Uiso   1.00
C143   C     0.51770   0.63444   0.70297   0.00000  Uiso   1.00
C144   C     0.89014   0.69652   0.96205   0.00000  Uiso   1.00
C145   C     0.94684   0.63369   0.02774   0.00000  Uiso   1.00
C146   C     0.98381   0.56944   0.02081   0.00000  Uiso   1.00
C147   C     0.06069   0.45155   0.03985   0.00000  Uiso   1.00
C148   C     0.85139   0.87986   0.93695   0.00000  Uiso   1.00
C149   C     0.87552   0.97119   0.98155   0.00000  Uiso   1.00
C150   C     0.87988   0.06130   0.95350   0.00000  Uiso   1.00
C151   C     0.89658   0.22808   0.93357   0.00000  Uiso   1.00
C152   C     0.80738   0.77021   0.82755   0.00000  Uiso   1.00
C153   C     0.74287   0.73843   0.81238   0.00000  Uiso   1.00
C154   C     0.67197   0.71058   0.73847   0.00000  Uiso   1.00
C155   C     0.62078   0.68403   0.73718   0.00000  Uiso   1.00
C156   C     0.87106   0.69523   0.89192   0.00000  Uiso   1.00
C157   C     0.90797   0.63106   0.88489   0.00000  Uiso   1.00
C158   C     0.96470   0.56815   0.95055   0.00000  Uiso   1.00
C159   C     0.83231   0.87858   0.86682   0.00000  Uiso   1.00
C160   C     0.83664   0.96856   0.83870   0.00000  Uiso   1.00
C161   C     0.86077   0.06001   0.88324   0.00000  Uiso   1.00
H162   H     0.85738   0.77358   0.01126   0.00000  Uiso   1.00
H163   H     0.72564   0.71420   0.93561   0.00000  Uiso   1.00
H164   H     0.96160   0.63471   0.08200   0.00000  Uiso   1.00
H165   H     0.89028   0.97216   0.03582   0.00000  Uiso   1.00
H166   H     0.57117   0.64777   0.82081   0.00000  Uiso   1.00
H167   H     0.06872   0.48018   0.12951   0.00000  Uiso   1.00
H168   H     0.91835   0.19175   0.03211   0.00000  Uiso   1.00
H169   H     0.79253   0.76920   0.77295   0.00000  Uiso   1.00
H170   H     0.65722   0.70959   0.68421   0.00000  Uiso   1.00
H171   H     0.89318   0.63009   0.83062   0.00000  Uiso   1.00
H172   H     0.82187   0.96754   0.78443   0.00000  Uiso   1.00
H173   H     0.51564   0.64402   0.61677   0.00000  Uiso   1.00
H174   H     0.01320   0.47643   0.92547   0.00000  Uiso   1.00
H175   H     0.86282   0.18800   0.82808   0.00000  Uiso   1.00
O176   O     0.45558   0.60672   0.66472   0.00000  Uiso   1.00
O177   O     0.10836   0.38687   0.06973   0.00000  Uiso   1.00
O178   O     0.91106   0.32043   0.94195   0.00000  Uiso   1.00
N179   N     0.57667   0.65509   0.78496   0.00000  Uiso   1.00
N180   N     0.04184   0.49839   0.07357   0.00000  Uiso   1.00
N181   N     0.90127   0.16364   0.98253   0.00000  Uiso   1.00
N182   N     0.54679   0.65307   0.67517   0.00000  Uiso   1.00
N183   N     0.01196   0.49637   0.96378   0.00000  Uiso   1.00
N184   N     0.87139   0.16162   0.87274   0.00000  Uiso   1.00
C185   C     0.15778   0.76517   0.89086   0.00000  Uiso   1.00
C186   C     0.23834   0.79821   0.96492   0.00000  Uiso   1.00
C187   C     0.28935   0.82473   0.96599   0.00000  Uiso   1.00
C188   C     0.36030   0.85280   0.03980   0.00000  Uiso   1.00
C189   C     0.48246   0.90392   0.14411   0.00000  Uiso   1.00
C190   C     0.11013   0.84122   0.88545   0.00000  Uiso   1.00
C191   C     0.05335   0.90389   0.81969   0.00000  Uiso   1.00
C192   C     0.01637   0.96815   0.82660   0.00000  Uiso   1.00
C193   C     0.93944   0.08599   0.80751   0.00000  Uiso   1.00
C194   C     0.14905   0.65794   0.91075   0.00000  Uiso   1.00
C195   C     0.12497   0.56651   0.86627   0.00000  Uiso   1.00
C196   C     0.12074   0.47646   0.89448   0.00000  Uiso   1.00
C197   C     0.10425   0.30972   0.91468   0.00000  Uiso   1.00
C198   C     0.19306   0.76784   0.02006   0.00000  Uiso   1.00
C199   C     0.25750   0.79966   0.03509   0.00000  Uiso   1.00
C200   C     0.32839   0.82768   0.10893   0.00000  Uiso   1.00
C201   C     0.37950   0.85424   0.11011   0.00000  Uiso   1.00
C202   C     0.12929   0.84267   0.95562   0.00000  Uiso   1.00
C203   C     0.09238   0.90684   0.96263   0.00000  Uiso   1.00
C204   C     0.03556   0.96960   0.89690   0.00000  Uiso   1.00
C205   C     0.16822   0.65938   0.98093   0.00000  Uiso   1.00
C206   C     0.16401   0.56946   0.00921   0.00000  Uiso   1.00
C207   C     0.13994   0.47791   0.96478   0.00000  Uiso   1.00
H208   H     0.14286   0.76405   0.83623   0.00000  Uiso   1.00
H209   H     0.27450   0.82361   0.91166   0.00000  Uiso   1.00
H210   H     0.03853   0.90275   0.76539   0.00000  Uiso   1.00
H211   H     0.11015   0.56542   0.81197   0.00000  Uiso   1.00
H212   H     0.42889   0.89032   0.02625   0.00000  Uiso   1.00
H213   H     0.93131   0.05716   0.71780   0.00000  Uiso   1.00
H214   H     0.08234   0.34583   0.81601   0.00000  Uiso   1.00
H215   H     0.20798   0.76897   0.07469   0.00000  Uiso   1.00
H216   H     0.34320   0.82880   0.16322   0.00000  Uiso   1.00
H217   H     0.10722   0.90794   0.01694   0.00000  Uiso   1.00
H218   H     0.17884   0.57061   0.06352   0.00000  Uiso   1.00
H219   H     0.48465   0.89454   0.23042   0.00000  Uiso   1.00
H220   H     0.98706   0.06137   0.92197   0.00000  Uiso   1.00
H221   H     0.13809   0.35004   0.02019   0.00000  Uiso   1.00
O222   O     0.54454   0.93173   0.18226   0.00000  Uiso   1.00
O223   O     0.89172   0.15060   0.77759   0.00000  Uiso   1.00
O224   O     0.08987   0.21735   0.90645   0.00000  Uiso   1.00
N225   N     0.42346   0.88308   0.06215   0.00000  Uiso   1.00
N226   N     0.95826   0.03908   0.77378   0.00000  Uiso   1.00
N227   N     0.09944   0.37405   0.86559   0.00000  Uiso   1.00
N228   N     0.45346   0.88535   0.17202   0.00000  Uiso   1.00
N229   N     0.98826   0.04135   0.88364   0.00000  Uiso   1.00
N230   N     0.12944   0.37632   0.97545   0.00000  Uiso   1.00
C231   C     0.34252   0.72742   0.45666   0.00000  Uiso   1.00
C232   C     0.26195   0.76028   0.38251   0.00000  Uiso   1.00
C233   C     0.21085   0.78679   0.38132   0.00000  Uiso   1.00
C234   C     0.13990   0.81468   0.30743   0.00000  Uiso   1.00
C235   C     0.01770   0.86556   0.20297   0.00000  Uiso   1.00
C236   C     0.39014   0.80348   0.46205   0.00000  Uiso   1.00
C237   C     0.44684   0.86631   0.52774   0.00000  Uiso   1.00
C238   C     0.48381   0.93056   0.52081   0.00000  Uiso   1.00
C239   C     0.56069   0.04845   0.53985   0.00000  Uiso   1.00
C240   C     0.35139   0.62014   0.43695   0.00000  Uiso   1.00
C241   C     0.37552   0.52881   0.48155   0.00000  Uiso   1.00
C242   C     0.37988   0.43870   0.45350   0.00000  Uiso   1.00
C243   C     0.39658   0.27192   0.43357   0.00000  Uiso   1.00
C244   C     0.30738   0.72979   0.32755   0.00000  Uiso   1.00
C245   C     0.24287   0.76157   0.31238   0.00000  Uiso   1.00
C246   C     0.17197   0.78942   0.23847   0.00000  Uiso   1.00
C247   C     0.12078   0.81597   0.23718   0.00000  Uiso   1.00
C248   C     0.37106   0.80477   0.39192   0.00000  Uiso   1.00
C249   C     0.40797   0.86894   0.38489   0.00000  Uiso   1.00
C250   C     0.46470   0.93185   0.45055   0.00000  Uiso   1.00
C251   C     0.33231   0.62142   0.36682   0.00000  Uiso   1.00
C252   C     0.33664   0.53144   0.33870   0.00000  Uiso   1.00
C253   C     0.36077   0.43999   0.38324   0.00000  Uiso   1.00
H254   H     0.35738   0.72642   0.51126   0.00000  Uiso   1.00
H255   H     0.22564   0.78580   0.43561   0.00000  Uiso   1.00
H256   H     0.46160   0.86529   0.58200   0.00000  Uiso   1.00
H257   H     0.39028   0.52784   0.53582   0.00000  Uiso   1.00
H258   H     0.07117   0.85223   0.32081   0.00000  Uiso   1.00
H259   H     0.56872   0.01982   0.62951   0.00000  Uiso   1.00
H260   H     0.41835   0.30825   0.53211   0.00000  Uiso   1.00
H261   H     0.29253   0.73080   0.27295   0.00000  Uiso   1.00
H262   H     0.15722   0.79041   0.18421   0.00000  Uiso   1.00
H263   H     0.39318   0.86991   0.33062   0.00000  Uiso   1.00
H264   H     0.32187   0.53246   0.28443   0.00000  Uiso   1.00
H265   H     0.01564   0.85598   0.11677   0.00000  Uiso   1.00
H266   H     0.51320   0.02357   0.42547   0.00000  Uiso   1.00
H267   H     0.36282   0.31200   0.32808   0.00000  Uiso   1.00
O268   O     0.95558   0.89328   0.16472   0.00000  Uiso   1.00
O269   O     0.60836   0.11313   0.56973   0.00000  Uiso   1.00
O270   O     0.41106   0.17957   0.44195   0.00000  Uiso   1.00
N271   N     0.07667   0.84491   0.28496   0.00000  Uiso   1.00
N272   N     0.54184   0.00161   0.57357   0.00000  Uiso   1.00
N273   N     0.40127   0.33636   0.48253   0.00000  Uiso   1.00
N274   N     0.04679   0.84693   0.17517   0.00000  Uiso   1.00
N275   N     0.51196   0.00363   0.46378   0.00000  Uiso   1.00
N276   N     0.37139   0.33838   0.37274   0.00000  Uiso   1.00
C277   C     0.65778   0.26517   0.89086   0.00000  Uiso   1.00
C278   C     0.73834   0.29821   0.96492   0.00000  Uiso   1.00
C279   C     0.78935   0.32473   0.96599   0.00000  Uiso   1.00
C280   C     0.86030   0.35280   0.03980   0.00000  Uiso   1.00
C281   C     0.98246   0.40392   0.14411   0.00000  Uiso   1.00
C282   C     0.61013   0.34122   0.88545   0.00000  Uiso   1.00
C283   C     0.55335   0.40389   0.81969   0.00000  Uiso   1.00
C284   C     0.51637   0.46815   0.82660   0.00000  Uiso   1.00
C285   C     0.43944   0.58599   0.80751   0.00000  Uiso   1.00
C286   C     0.64905   0.15794   0.91075   0.00000  Uiso   1.00
C287   C     0.62497   0.06651   0.86627   0.00000  Uiso   1.00
C288   C     0.62074   0.97646   0.89448   0.00000  Uiso   1.00
C289   C     0.60425   0.80972   0.91468   0.00000  Uiso   1.00
C290   C     0.69306   0.26784   0.02006   0.00000  Uiso   1.00
C291   C     0.75750   0.29966   0.03509   0.00000  Uiso   1.00
C292   C     0.82839   0.32768   0.10893   0.00000  Uiso   1.00
C293   C     0.87950   0.35424   0.11011   0.00000  Uiso   1.00
C294   C     0.62929   0.34267   0.95562   0.00000  Uiso   1.00
C295   C     0.59238   0.40684   0.96263   0.00000  Uiso   1.00
C296   C     0.53556   0.46960   0.89690   0.00000  Uiso   1.00
C297   C     0.66822   0.15938   0.98093   0.00000  Uiso   1.00
C298   C     0.66401   0.06946   0.00921   0.00000  Uiso   1.00
C299   C     0.63994   0.97791   0.96478   0.00000  Uiso   1.00
H300   H     0.64286   0.26405   0.83623   0.00000  Uiso   1.00
H301   H     0.77450   0.32361   0.91166   0.00000  Uiso   1.00
H302   H     0.53853   0.40275   0.76539   0.00000  Uiso   1.00
H303   H     0.61015   0.06542   0.81197   0.00000  Uiso   1.00
H304   H     0.92889   0.39032   0.02625   0.00000  Uiso   1.00
H305   H     0.43131   0.55716   0.71780   0.00000  Uiso   1.00
H306   H     0.58234   0.84583   0.81601   0.00000  Uiso   1.00
H307   H     0.70798   0.26897   0.07469   0.00000  Uiso   1.00
H308   H     0.84320   0.32880   0.16322   0.00000  Uiso   1.00
H309   H     0.60722   0.40794   0.01694   0.00000  Uiso   1.00
H310   H     0.67884   0.07061   0.06352   0.00000  Uiso   1.00
H311   H     0.98465   0.39454   0.23042   0.00000  Uiso   1.00
H312   H     0.48706   0.56137   0.92197   0.00000  Uiso   1.00
H313   H     0.63809   0.85004   0.02019   0.00000  Uiso   1.00
O314   O     0.04454   0.43173   0.18226   0.00000  Uiso   1.00
O315   O     0.39172   0.65060   0.77759   0.00000  Uiso   1.00
O316   O     0.58987   0.71735   0.90645   0.00000  Uiso   1.00
N317   N     0.92346   0.38308   0.06215   0.00000  Uiso   1.00
N318   N     0.45826   0.53908   0.77378   0.00000  Uiso   1.00
N319   N     0.59944   0.87405   0.86559   0.00000  Uiso   1.00
N320   N     0.95346   0.38535   0.17202   0.00000  Uiso   1.00
N321   N     0.48826   0.54135   0.88364   0.00000  Uiso   1.00
N322   N     0.62944   0.87632   0.97545   0.00000  Uiso   1.00
C323   C     0.84252   0.22742   0.45666   0.00000  Uiso   1.00
C324   C     0.76195   0.26028   0.38251   0.00000  Uiso   1.00
C325   C     0.71085   0.28679   0.38132   0.00000  Uiso   1.00
C326   C     0.63990   0.31468   0.30743   0.00000  Uiso   1.00
C327   C     0.51770   0.36556   0.20297   0.00000  Uiso   1.00
C328   C     0.89014   0.30348   0.46205   0.00000  Uiso   1.00
C329   C     0.94684   0.36631   0.52774   0.00000  Uiso   1.00
C330   C     0.98381   0.43056   0.52081   0.00000  Uiso   1.00
C331   C     0.06069   0.54845   0.53985   0.00000  Uiso   1.00
C332   C     0.85139   0.12014   0.43695   0.00000  Uiso   1.00
C333   C     0.87552   0.02881   0.48155   0.00000  Uiso   1.00
C334   C     0.87988   0.93870   0.45350   0.00000  Uiso   1.00
C335   C     0.89658   0.77192   0.43357   0.00000  Uiso   1.00
C336   C     0.80738   0.22979   0.32755   0.00000  Uiso   1.00
C337   C     0.74287   0.26157   0.31238   0.00000  Uiso   1.00
C338   C     0.67197   0.28942   0.23847   0.00000  Uiso   1.00
C339   C     0.62078   0.31597   0.23718   0.00000  Uiso   1.00
C340   C     0.87106   0.30477   0.39192   0.00000  Uiso   1.00
C341   C     0.90797   0.36894   0.38489   0.00000  Uiso   1.00
C342   C     0.96470   0.43185   0.45055   0.00000  Uiso   1.00
C343   C     0.83231   0.12142   0.36682   0.00000  Uiso   1.00
C344   C     0.83664   0.03144   0.33870   0.00000  Uiso   1.00
C345   C     0.86077   0.93999   0.38324   0.00000  Uiso   1.00
H346   H     0.85738   0.22642   0.51126   0.00000  Uiso   1.00
H347   H     0.72564   0.28580   0.43561   0.00000  Uiso   1.00
H348   H     0.96160   0.36529   0.58200   0.00000  Uiso   1.00
H349   H     0.89028   0.02784   0.53582   0.00000  Uiso   1.00
H350   H     0.57117   0.35223   0.32081   0.00000  Uiso   1.00
H351   H     0.06872   0.51982   0.62951   0.00000  Uiso   1.00
H352   H     0.91835   0.80825   0.53211   0.00000  Uiso   1.00
H353   H     0.79253   0.23080   0.27295   0.00000  Uiso   1.00
H354   H     0.65722   0.29041   0.18421   0.00000  Uiso   1.00
H355   H     0.89318   0.36991   0.33062   0.00000  Uiso   1.00
H356   H     0.82187   0.03246   0.28443   0.00000  Uiso   1.00
H357   H     0.51564   0.35598   0.11677   0.00000  Uiso   1.00
H358   H     0.01320   0.52357   0.42547   0.00000  Uiso   1.00
H359   H     0.86282   0.81200   0.32808   0.00000  Uiso   1.00
O360   O     0.45558   0.39328   0.16472   0.00000  Uiso   1.00
O361   O     0.10836   0.61313   0.56973   0.00000  Uiso   1.00
O362   O     0.91106   0.67957   0.44195   0.00000  Uiso   1.00
N363   N     0.57667   0.34491   0.28496   0.00000  Uiso   1.00
N364   N     0.04184   0.50161   0.57357   0.00000  Uiso   1.00
N365   N     0.90127   0.83636   0.48253   0.00000  Uiso   1.00
N366   N     0.54679   0.34693   0.17517   0.00000  Uiso   1.00
N367   N     0.01196   0.50363   0.46378   0.00000  Uiso   1.00
N368   N     0.87139   0.83838   0.37274   0.00000  Uiso   1.00
