data_job_03238
_audit_creation_date              2018-12-19
_audit_creation_method            'Materials Studio'
_symmetry_space_group_name_H-M    'P1'
_symmetry_Int_Tables_number       1
_symmetry_cell_setting            triclinic
loop_
_symmetry_equiv_pos_as_xyz
  x,y,z
_cell_length_a                    10.9566
_cell_length_b                    25.7772
_cell_length_c                    19.8713
_cell_angle_alpha                 90.0000
_cell_angle_beta                  90.0000
_cell_angle_gamma                 90.0000
loop_
_atom_site_label
_atom_site_type_symbol
_atom_site_fract_x
_atom_site_fract_y
_atom_site_fract_z
_atom_site_U_iso_or_equiv
_atom_site_adp_type
_atom_site_occupancy
C1     C     0.31176   0.90951   0.26589   0.00000  Uiso   1.00
C2     C     0.39389   0.92993   0.20988   0.00000  Uiso   1.00
C3     C     0.40236   0.98124   0.18925   0.00000  Uiso   1.00
C4     C     0.48285   0.99203   0.13713   0.00000  Uiso   1.00
C5     C     0.59978   0.02969   0.05477   0.00000  Uiso   1.00
C6     C     0.23321   0.86730   0.23401   0.00000  Uiso   1.00
C7     C     0.10659   0.86595   0.23368   0.00000  Uiso   1.00
C8     C     0.05182   0.82402   0.20188   0.00000  Uiso   1.00
C9     C     0.91929   0.76443   0.15702   0.00000  Uiso   1.00
C10    C     0.39579   0.88190   0.31547   0.00000  Uiso   1.00
C11    C     0.40584   0.89282   0.38364   0.00000  Uiso   1.00
C12    C     0.48794   0.86317   0.42043   0.00000  Uiso   1.00
C13    C     0.60784   0.82624   0.50206   0.00000  Uiso   1.00
C14    C     0.43965   0.83743   0.21002   0.00000  Uiso   1.00
C15    C     0.46335   0.89078   0.17954   0.00000  Uiso   1.00
C16    C     0.54386   0.90149   0.12744   0.00000  Uiso   1.00
C17    C     0.55245   0.95281   0.10674   0.00000  Uiso   1.00
C18    C     0.30267   0.82816   0.20367   0.00000  Uiso   1.00
C19    C     0.24808   0.78621   0.17187   0.00000  Uiso   1.00
C20    C     0.12141   0.78480   0.17148   0.00000  Uiso   1.00
C21    C     0.46526   0.84275   0.28513   0.00000  Uiso   1.00
C22    C     0.54734   0.81308   0.32183   0.00000  Uiso   1.00
C23    C     0.55753   0.82395   0.39004   0.00000  Uiso   1.00
H24    H     0.25767   0.93999   0.28951   0.00000  Uiso   1.00
H25    H     0.34858   0.01152   0.21274   0.00000  Uiso   1.00
H26    H     0.05286   0.89625   0.25717   0.00000  Uiso   1.00
H27    H     0.35207   0.92312   0.40710   0.00000  Uiso   1.00
H28    H     0.47997   0.07357   0.11423   0.00000  Uiso   1.00
H29    H     0.85642   0.83050   0.20793   0.00000  Uiso   1.00
H30    H     0.48737   0.88715   0.52410   0.00000  Uiso   1.00
H31    H     0.49373   0.80695   0.18640   0.00000  Uiso   1.00
H32    H     0.59760   0.87119   0.10397   0.00000  Uiso   1.00
H33    H     0.30187   0.75592   0.14840   0.00000  Uiso   1.00
H34    H     0.60109   0.78278   0.29833   0.00000  Uiso   1.00
H35    H     0.68208   0.95967   0.02595   0.00000  Uiso   1.00
H36    H     0.05853   0.71660   0.11965   0.00000  Uiso   1.00
H37    H     0.68948   0.77325   0.43582   0.00000  Uiso   1.00
O38    O     0.64507   0.06127   0.01771   0.00000  Uiso   1.00
O39    O     0.82699   0.74238   0.14065   0.00000  Uiso   1.00
O40    O     0.65479   0.81670   0.55546   0.00000  Uiso   1.00
N41    N     0.51330   0.03795   0.10478   0.00000  Uiso   1.00
N42    N     0.93032   0.81070   0.19237   0.00000  Uiso   1.00
N43    N     0.52018   0.86365   0.48796   0.00000  Uiso   1.00
N44    N     0.62206   0.97666   0.05727   0.00000  Uiso   1.00
N45    N     0.03907   0.74941   0.14486   0.00000  Uiso   1.00
N46    N     0.62894   0.80236   0.44046   0.00000  Uiso   1.00
C47    C     0.18824   0.09049   0.26589   0.00000  Uiso   1.00
C48    C     0.10611   0.07007   0.20988   0.00000  Uiso   1.00
C49    C     0.09764   0.01876   0.18925   0.00000  Uiso   1.00
C50    C     0.01715   0.00797   0.13713   0.00000  Uiso   1.00
C51    C     0.90022   0.97031   0.05477   0.00000  Uiso   1.00
C52    C     0.26679   0.13270   0.23401   0.00000  Uiso   1.00
C53    C     0.39341   0.13405   0.23368   0.00000  Uiso   1.00
C54    C     0.44818   0.17598   0.20188   0.00000  Uiso   1.00
C55    C     0.58071   0.23557   0.15702   0.00000  Uiso   1.00
C56    C     0.10421   0.11810   0.31547   0.00000  Uiso   1.00
C57    C     0.09416   0.10718   0.38364   0.00000  Uiso   1.00
C58    C     0.01206   0.13683   0.42043   0.00000  Uiso   1.00
C59    C     0.89216   0.17376   0.50206   0.00000  Uiso   1.00
C60    C     0.06035   0.16257   0.21002   0.00000  Uiso   1.00
C61    C     0.03665   0.10922   0.17954   0.00000  Uiso   1.00
C62    C     0.95614   0.09851   0.12744   0.00000  Uiso   1.00
C63    C     0.94755   0.04719   0.10674   0.00000  Uiso   1.00
C64    C     0.19733   0.17184   0.20367   0.00000  Uiso   1.00
C65    C     0.25192   0.21379   0.17187   0.00000  Uiso   1.00
C66    C     0.37859   0.21520   0.17148   0.00000  Uiso   1.00
C67    C     0.03474   0.15725   0.28513   0.00000  Uiso   1.00
C68    C     0.95266   0.18692   0.32183   0.00000  Uiso   1.00
C69    C     0.94247   0.17605   0.39004   0.00000  Uiso   1.00
H70    H     0.24233   0.06001   0.28951   0.00000  Uiso   1.00
H71    H     0.15142   0.98848   0.21274   0.00000  Uiso   1.00
H72    H     0.44714   0.10375   0.25717   0.00000  Uiso   1.00
H73    H     0.14793   0.07688   0.40710   0.00000  Uiso   1.00
H74    H     0.02003   0.92643   0.11423   0.00000  Uiso   1.00
H75    H     0.64358   0.16950   0.20793   0.00000  Uiso   1.00
H76    H     0.01263   0.11285   0.52410   0.00000  Uiso   1.00
H77    H     0.00627   0.19305   0.18640   0.00000  Uiso   1.00
H78    H     0.90240   0.12881   0.10397   0.00000  Uiso   1.00
H79    H     0.19813   0.24408   0.14840   0.00000  Uiso   1.00
H80    H     0.89891   0.21722   0.29833   0.00000  Uiso   1.00
H81    H     0.81792   0.04033   0.02595   0.00000  Uiso   1.00
H82    H     0.44147   0.28340   0.11965   0.00000  Uiso   1.00
H83    H     0.81052   0.22675   0.43582   0.00000  Uiso   1.00
O84    O     0.85493   0.93873   0.01771   0.00000  Uiso   1.00
O85    O     0.67301   0.25762   0.14065   0.00000  Uiso   1.00
O86    O     0.84521   0.18330   0.55546   0.00000  Uiso   1.00
N87    N     0.98670   0.96205   0.10478   0.00000  Uiso   1.00
N88    N     0.56968   0.18930   0.19237   0.00000  Uiso   1.00
N89    N     0.97982   0.13635   0.48796   0.00000  Uiso   1.00
N90    N     0.87794   0.02334   0.05727   0.00000  Uiso   1.00
N91    N     0.46093   0.25059   0.14486   0.00000  Uiso   1.00
N92    N     0.87106   0.19764   0.44046   0.00000  Uiso   1.00
C93    C     0.18824   0.40951   0.23411   0.00000  Uiso   1.00
C94    C     0.10611   0.42993   0.29012   0.00000  Uiso   1.00
C95    C     0.09764   0.48124   0.31075   0.00000  Uiso   1.00
C96    C     0.01715   0.49203   0.36287   0.00000  Uiso   1.00
C97    C     0.90022   0.52969   0.44523   0.00000  Uiso   1.00
C98    C     0.26679   0.36730   0.26599   0.00000  Uiso   1.00
C99    C     0.39341   0.36595   0.26632   0.00000  Uiso   1.00
C100   C     0.44818   0.32402   0.29812   0.00000  Uiso   1.00
C101   C     0.58071   0.26443   0.34298   0.00000  Uiso   1.00
C102   C     0.10421   0.38190   0.18453   0.00000  Uiso   1.00
C103   C     0.09416   0.39282   0.11636   0.00000  Uiso   1.00
C104   C     0.01206   0.36317   0.07957   0.00000  Uiso   1.00
C105   C     0.89216   0.32624   0.99794   0.00000  Uiso   1.00
C106   C     0.06035   0.33743   0.28998   0.00000  Uiso   1.00
C107   C     0.03665   0.39078   0.32046   0.00000  Uiso   1.00
C108   C     0.95614   0.40149   0.37256   0.00000  Uiso   1.00
C109   C     0.94755   0.45281   0.39326   0.00000  Uiso   1.00
C110   C     0.19733   0.32816   0.29633   0.00000  Uiso   1.00
C111   C     0.25192   0.28621   0.32813   0.00000  Uiso   1.00
C112   C     0.37859   0.28480   0.32852   0.00000  Uiso   1.00
C113   C     0.03474   0.34275   0.21487   0.00000  Uiso   1.00
C114   C     0.95266   0.31308   0.17817   0.00000  Uiso   1.00
C115   C     0.94247   0.32395   0.10996   0.00000  Uiso   1.00
H116   H     0.24233   0.43999   0.21049   0.00000  Uiso   1.00
H117   H     0.15142   0.51152   0.28726   0.00000  Uiso   1.00
H118   H     0.44714   0.39625   0.24283   0.00000  Uiso   1.00
H119   H     0.14793   0.42312   0.09290   0.00000  Uiso   1.00
H120   H     0.02003   0.57357   0.38577   0.00000  Uiso   1.00
H121   H     0.64358   0.33050   0.29207   0.00000  Uiso   1.00
H122   H     0.01263   0.38715   0.97590   0.00000  Uiso   1.00
H123   H     0.00627   0.30695   0.31360   0.00000  Uiso   1.00
H124   H     0.90240   0.37119   0.39603   0.00000  Uiso   1.00
H125   H     0.19813   0.25592   0.35160   0.00000  Uiso   1.00
H126   H     0.89891   0.28278   0.20167   0.00000  Uiso   1.00
H127   H     0.81792   0.45967   0.47405   0.00000  Uiso   1.00
H128   H     0.44147   0.21660   0.38035   0.00000  Uiso   1.00
H129   H     0.81052   0.27325   0.06418   0.00000  Uiso   1.00
O130   O     0.85493   0.56127   0.48229   0.00000  Uiso   1.00
O131   O     0.67301   0.24238   0.35935   0.00000  Uiso   1.00
O132   O     0.84521   0.31670   0.94454   0.00000  Uiso   1.00
N133   N     0.98670   0.53795   0.39522   0.00000  Uiso   1.00
N134   N     0.56968   0.31070   0.30763   0.00000  Uiso   1.00
N135   N     0.97982   0.36365   0.01204   0.00000  Uiso   1.00
N136   N     0.87794   0.47666   0.44273   0.00000  Uiso   1.00
N137   N     0.46093   0.24941   0.35514   0.00000  Uiso   1.00
N138   N     0.87106   0.30236   0.05954   0.00000  Uiso   1.00
C139   C     0.31176   0.59049   0.23411   0.00000  Uiso   1.00
C140   C     0.39389   0.57007   0.29012   0.00000  Uiso   1.00
C141   C     0.40236   0.51876   0.31075   0.00000  Uiso   1.00
C142   C     0.48285   0.50797   0.36287   0.00000  Uiso   1.00
C143   C     0.59978   0.47031   0.44523   0.00000  Uiso   1.00
C144   C     0.23321   0.63270   0.26599   0.00000  Uiso   1.00
C145   C     0.10659   0.63405   0.26632   0.00000  Uiso   1.00
C146   C     0.05182   0.67598   0.29812   0.00000  Uiso   1.00
C147   C     0.91929   0.73557   0.34298   0.00000  Uiso   1.00
C148   C     0.39579   0.61810   0.18453   0.00000  Uiso   1.00
C149   C     0.40584   0.60718   0.11636   0.00000  Uiso   1.00
C150   C     0.48794   0.63683   0.07957   0.00000  Uiso   1.00
C151   C     0.60784   0.67376   0.99794   0.00000  Uiso   1.00
C152   C     0.43965   0.66257   0.28998   0.00000  Uiso   1.00
C153   C     0.46335   0.60922   0.32046   0.00000  Uiso   1.00
C154   C     0.54386   0.59851   0.37256   0.00000  Uiso   1.00
C155   C     0.55245   0.54719   0.39326   0.00000  Uiso   1.00
C156   C     0.30267   0.67184   0.29633   0.00000  Uiso   1.00
C157   C     0.24808   0.71379   0.32813   0.00000  Uiso   1.00
C158   C     0.12141   0.71520   0.32852   0.00000  Uiso   1.00
C159   C     0.46526   0.65725   0.21487   0.00000  Uiso   1.00
C160   C     0.54734   0.68692   0.17817   0.00000  Uiso   1.00
C161   C     0.55753   0.67605   0.10996   0.00000  Uiso   1.00
H162   H     0.25767   0.56001   0.21049   0.00000  Uiso   1.00
H163   H     0.34858   0.48848   0.28726   0.00000  Uiso   1.00
H164   H     0.05286   0.60375   0.24283   0.00000  Uiso   1.00
H165   H     0.35207   0.57688   0.09290   0.00000  Uiso   1.00
H166   H     0.47997   0.42643   0.38577   0.00000  Uiso   1.00
H167   H     0.85642   0.66950   0.29207   0.00000  Uiso   1.00
H168   H     0.48737   0.61285   0.97590   0.00000  Uiso   1.00
H169   H     0.49373   0.69305   0.31360   0.00000  Uiso   1.00
H170   H     0.59760   0.62881   0.39603   0.00000  Uiso   1.00
H171   H     0.30187   0.74408   0.35160   0.00000  Uiso   1.00
H172   H     0.60109   0.71722   0.20167   0.00000  Uiso   1.00
H173   H     0.68208   0.54033   0.47405   0.00000  Uiso   1.00
H174   H     0.05853   0.78340   0.38035   0.00000  Uiso   1.00
H175   H     0.68948   0.72675   0.06418   0.00000  Uiso   1.00
O176   O     0.64507   0.43873   0.48229   0.00000  Uiso   1.00
O177   O     0.82699   0.75762   0.35935   0.00000  Uiso   1.00
O178   O     0.65479   0.68330   0.94454   0.00000  Uiso   1.00
N179   N     0.51330   0.46205   0.39522   0.00000  Uiso   1.00
N180   N     0.93032   0.68930   0.30763   0.00000  Uiso   1.00
N181   N     0.52018   0.63635   0.01204   0.00000  Uiso   1.00
N182   N     0.62206   0.52334   0.44273   0.00000  Uiso   1.00
N183   N     0.03907   0.75059   0.35514   0.00000  Uiso   1.00
N184   N     0.62894   0.69764   0.05954   0.00000  Uiso   1.00
C185   C     0.68824   0.09049   0.73411   0.00000  Uiso   1.00
C186   C     0.60611   0.07007   0.79012   0.00000  Uiso   1.00
C187   C     0.59764   0.01876   0.81075   0.00000  Uiso   1.00
C188   C     0.51715   0.00797   0.86287   0.00000  Uiso   1.00
C189   C     0.40022   0.97031   0.94523   0.00000  Uiso   1.00
C190   C     0.76679   0.13270   0.76599   0.00000  Uiso   1.00
C191   C     0.89341   0.13405   0.76632   0.00000  Uiso   1.00
C192   C     0.94818   0.17598   0.79812   0.00000  Uiso   1.00
C193   C     0.08071   0.23557   0.84298   0.00000  Uiso   1.00
C194   C     0.60421   0.11810   0.68453   0.00000  Uiso   1.00
C195   C     0.59416   0.10718   0.61636   0.00000  Uiso   1.00
C196   C     0.51206   0.13683   0.57957   0.00000  Uiso   1.00
C197   C     0.39216   0.17376   0.49794   0.00000  Uiso   1.00
C198   C     0.56035   0.16257   0.78998   0.00000  Uiso   1.00
C199   C     0.53665   0.10922   0.82046   0.00000  Uiso   1.00
C200   C     0.45614   0.09851   0.87256   0.00000  Uiso   1.00
C201   C     0.44755   0.04719   0.89326   0.00000  Uiso   1.00
C202   C     0.69733   0.17184   0.79633   0.00000  Uiso   1.00
C203   C     0.75192   0.21379   0.82813   0.00000  Uiso   1.00
C204   C     0.87859   0.21520   0.82852   0.00000  Uiso   1.00
C205   C     0.53474   0.15725   0.71487   0.00000  Uiso   1.00
C206   C     0.45266   0.18692   0.67817   0.00000  Uiso   1.00
C207   C     0.44247   0.17605   0.60996   0.00000  Uiso   1.00
H208   H     0.74233   0.06001   0.71049   0.00000  Uiso   1.00
H209   H     0.65142   0.98848   0.78726   0.00000  Uiso   1.00
H210   H     0.94714   0.10375   0.74283   0.00000  Uiso   1.00
H211   H     0.64793   0.07688   0.59290   0.00000  Uiso   1.00
H212   H     0.52003   0.92643   0.88577   0.00000  Uiso   1.00
H213   H     0.14358   0.16950   0.79207   0.00000  Uiso   1.00
H214   H     0.51263   0.11285   0.47590   0.00000  Uiso   1.00
H215   H     0.50627   0.19305   0.81360   0.00000  Uiso   1.00
H216   H     0.40240   0.12881   0.89603   0.00000  Uiso   1.00
H217   H     0.69813   0.24408   0.85160   0.00000  Uiso   1.00
H218   H     0.39891   0.21722   0.70167   0.00000  Uiso   1.00
H219   H     0.31792   0.04033   0.97405   0.00000  Uiso   1.00
H220   H     0.94147   0.28340   0.88035   0.00000  Uiso   1.00
H221   H     0.31052   0.22675   0.56418   0.00000  Uiso   1.00
O222   O     0.35493   0.93873   0.98229   0.00000  Uiso   1.00
O223   O     0.17301   0.25762   0.85935   0.00000  Uiso   1.00
O224   O     0.34521   0.18330   0.44454   0.00000  Uiso   1.00
N225   N     0.48670   0.96205   0.89522   0.00000  Uiso   1.00
N226   N     0.06968   0.18930   0.80763   0.00000  Uiso   1.00
N227   N     0.47982   0.13635   0.51204   0.00000  Uiso   1.00
N228   N     0.37794   0.02334   0.94273   0.00000  Uiso   1.00
N229   N     0.96093   0.25059   0.85514   0.00000  Uiso   1.00
N230   N     0.37106   0.19764   0.55954   0.00000  Uiso   1.00
C231   C     0.81176   0.90951   0.73411   0.00000  Uiso   1.00
C232   C     0.89389   0.92993   0.79012   0.00000  Uiso   1.00
C233   C     0.90236   0.98124   0.81075   0.00000  Uiso   1.00
C234   C     0.98285   0.99203   0.86287   0.00000  Uiso   1.00
C235   C     0.09978   0.02969   0.94523   0.00000  Uiso   1.00
C236   C     0.73321   0.86730   0.76599   0.00000  Uiso   1.00
C237   C     0.60659   0.86595   0.76632   0.00000  Uiso   1.00
C238   C     0.55182   0.82402   0.79812   0.00000  Uiso   1.00
C239   C     0.41929   0.76443   0.84298   0.00000  Uiso   1.00
C240   C     0.89579   0.88190   0.68453   0.00000  Uiso   1.00
C241   C     0.90584   0.89282   0.61636   0.00000  Uiso   1.00
C242   C     0.98794   0.86317   0.57957   0.00000  Uiso   1.00
C243   C     0.10784   0.82624   0.49794   0.00000  Uiso   1.00
C244   C     0.93965   0.83743   0.78998   0.00000  Uiso   1.00
C245   C     0.96335   0.89078   0.82046   0.00000  Uiso   1.00
C246   C     0.04386   0.90149   0.87256   0.00000  Uiso   1.00
C247   C     0.05245   0.95281   0.89326   0.00000  Uiso   1.00
C248   C     0.80267   0.82816   0.79633   0.00000  Uiso   1.00
C249   C     0.74808   0.78621   0.82813   0.00000  Uiso   1.00
C250   C     0.62141   0.78480   0.82852   0.00000  Uiso   1.00
C251   C     0.96526   0.84275   0.71487   0.00000  Uiso   1.00
C252   C     0.04734   0.81308   0.67817   0.00000  Uiso   1.00
C253   C     0.05753   0.82395   0.60996   0.00000  Uiso   1.00
H254   H     0.75767   0.93999   0.71049   0.00000  Uiso   1.00
H255   H     0.84858   0.01152   0.78726   0.00000  Uiso   1.00
H256   H     0.55286   0.89625   0.74283   0.00000  Uiso   1.00
H257   H     0.85207   0.92312   0.59290   0.00000  Uiso   1.00
H258   H     0.97997   0.07357   0.88577   0.00000  Uiso   1.00
H259   H     0.35642   0.83050   0.79207   0.00000  Uiso   1.00
H260   H     0.98737   0.88715   0.47590   0.00000  Uiso   1.00
H261   H     0.99373   0.80695   0.81360   0.00000  Uiso   1.00
H262   H     0.09760   0.87119   0.89603   0.00000  Uiso   1.00
H263   H     0.80187   0.75592   0.85160   0.00000  Uiso   1.00
H264   H     0.10109   0.78278   0.70167   0.00000  Uiso   1.00
H265   H     0.18208   0.95967   0.97405   0.00000  Uiso   1.00
H266   H     0.55853   0.71660   0.88035   0.00000  Uiso   1.00
H267   H     0.18948   0.77325   0.56418   0.00000  Uiso   1.00
O268   O     0.14507   0.06127   0.98229   0.00000  Uiso   1.00
O269   O     0.32699   0.74238   0.85935   0.00000  Uiso   1.00
O270   O     0.15479   0.81670   0.44454   0.00000  Uiso   1.00
N271   N     0.01330   0.03795   0.89522   0.00000  Uiso   1.00
N272   N     0.43032   0.81070   0.80763   0.00000  Uiso   1.00
N273   N     0.02018   0.86365   0.51204   0.00000  Uiso   1.00
N274   N     0.12206   0.97666   0.94273   0.00000  Uiso   1.00
N275   N     0.53907   0.74941   0.85514   0.00000  Uiso   1.00
N276   N     0.12894   0.80236   0.55954   0.00000  Uiso   1.00
C277   C     0.81176   0.59049   0.76589   0.00000  Uiso   1.00
C278   C     0.89389   0.57007   0.70988   0.00000  Uiso   1.00
C279   C     0.90236   0.51876   0.68925   0.00000  Uiso   1.00
C280   C     0.98285   0.50797   0.63713   0.00000  Uiso   1.00
C281   C     0.09978   0.47031   0.55477   0.00000  Uiso   1.00
C282   C     0.73321   0.63270   0.73401   0.00000  Uiso   1.00
C283   C     0.60659   0.63405   0.73368   0.00000  Uiso   1.00
C284   C     0.55182   0.67598   0.70188   0.00000  Uiso   1.00
C285   C     0.41929   0.73557   0.65702   0.00000  Uiso   1.00
C286   C     0.89579   0.61810   0.81547   0.00000  Uiso   1.00
C287   C     0.90584   0.60718   0.88364   0.00000  Uiso   1.00
C288   C     0.98794   0.63683   0.92043   0.00000  Uiso   1.00
C289   C     0.10784   0.67376   0.00206   0.00000  Uiso   1.00
C290   C     0.93965   0.66257   0.71002   0.00000  Uiso   1.00
C291   C     0.96335   0.60922   0.67954   0.00000  Uiso   1.00
C292   C     0.04386   0.59851   0.62744   0.00000  Uiso   1.00
C293   C     0.05245   0.54719   0.60674   0.00000  Uiso   1.00
C294   C     0.80267   0.67184   0.70367   0.00000  Uiso   1.00
C295   C     0.74808   0.71379   0.67187   0.00000  Uiso   1.00
C296   C     0.62141   0.71520   0.67148   0.00000  Uiso   1.00
C297   C     0.96526   0.65725   0.78513   0.00000  Uiso   1.00
C298   C     0.04734   0.68692   0.82183   0.00000  Uiso   1.00
C299   C     0.05753   0.67605   0.89004   0.00000  Uiso   1.00
H300   H     0.75767   0.56001   0.78951   0.00000  Uiso   1.00
H301   H     0.84858   0.48848   0.71274   0.00000  Uiso   1.00
H302   H     0.55286   0.60375   0.75717   0.00000  Uiso   1.00
H303   H     0.85207   0.57688   0.90710   0.00000  Uiso   1.00
H304   H     0.97997   0.42643   0.61423   0.00000  Uiso   1.00
H305   H     0.35642   0.66950   0.70793   0.00000  Uiso   1.00
H306   H     0.98737   0.61285   0.02410   0.00000  Uiso   1.00
H307   H     0.99373   0.69305   0.68640   0.00000  Uiso   1.00
H308   H     0.09760   0.62881   0.60397   0.00000  Uiso   1.00
H309   H     0.80187   0.74408   0.64840   0.00000  Uiso   1.00
H310   H     0.10109   0.71722   0.79833   0.00000  Uiso   1.00
H311   H     0.18208   0.54033   0.52595   0.00000  Uiso   1.00
H312   H     0.55853   0.78340   0.61965   0.00000  Uiso   1.00
H313   H     0.18948   0.72675   0.93582   0.00000  Uiso   1.00
O314   O     0.14507   0.43873   0.51771   0.00000  Uiso   1.00
O315   O     0.32699   0.75762   0.64065   0.00000  Uiso   1.00
O316   O     0.15479   0.68330   0.05546   0.00000  Uiso   1.00
N317   N     0.01330   0.46205   0.60478   0.00000  Uiso   1.00
N318   N     0.43032   0.68930   0.69237   0.00000  Uiso   1.00
N319   N     0.02018   0.63635   0.98796   0.00000  Uiso   1.00
N320   N     0.12206   0.52334   0.55727   0.00000  Uiso   1.00
N321   N     0.53907   0.75059   0.64486   0.00000  Uiso   1.00
N322   N     0.12894   0.69764   0.94046   0.00000  Uiso   1.00
C323   C     0.68824   0.40951   0.76589   0.00000  Uiso   1.00
C324   C     0.60611   0.42993   0.70988   0.00000  Uiso   1.00
C325   C     0.59764   0.48124   0.68925   0.00000  Uiso   1.00
C326   C     0.51715   0.49203   0.63713   0.00000  Uiso   1.00
C327   C     0.40022   0.52969   0.55477   0.00000  Uiso   1.00
C328   C     0.76679   0.36730   0.73401   0.00000  Uiso   1.00
C329   C     0.89341   0.36595   0.73368   0.00000  Uiso   1.00
C330   C     0.94818   0.32402   0.70188   0.00000  Uiso   1.00
C331   C     0.08071   0.26443   0.65702   0.00000  Uiso   1.00
C332   C     0.60421   0.38190   0.81547   0.00000  Uiso   1.00
C333   C     0.59416   0.39282   0.88364   0.00000  Uiso   1.00
C334   C     0.51206   0.36317   0.92043   0.00000  Uiso   1.00
C335   C     0.39216   0.32624   0.00206   0.00000  Uiso   1.00
C336   C     0.56035   0.33743   0.71002   0.00000  Uiso   1.00
C337   C     0.53665   0.39078   0.67954   0.00000  Uiso   1.00
C338   C     0.45614   0.40149   0.62744   0.00000  Uiso   1.00
C339   C     0.44755   0.45281   0.60674   0.00000  Uiso   1.00
C340   C     0.69733   0.32816   0.70367   0.00000  Uiso   1.00
C341   C     0.75192   0.28621   0.67187   0.00000  Uiso   1.00
C342   C     0.87859   0.28480   0.67148   0.00000  Uiso   1.00
C343   C     0.53474   0.34275   0.78513   0.00000  Uiso   1.00
C344   C     0.45266   0.31308   0.82183   0.00000  Uiso   1.00
C345   C     0.44247   0.32395   0.89004   0.00000  Uiso   1.00
H346   H     0.74233   0.43999   0.78951   0.00000  Uiso   1.00
H347   H     0.65142   0.51152   0.71274   0.00000  Uiso   1.00
H348   H     0.94714   0.39625   0.75717   0.00000  Uiso   1.00
H349   H     0.64793   0.42312   0.90710   0.00000  Uiso   1.00
H350   H     0.52003   0.57357   0.61423   0.00000  Uiso   1.00
H351   H     0.14358   0.33050   0.70793   0.00000  Uiso   1.00
H352   H     0.51263   0.38715   0.02410   0.00000  Uiso   1.00
H353   H     0.50627   0.30695   0.68640   0.00000  Uiso   1.00
H354   H     0.40240   0.37119   0.60397   0.00000  Uiso   1.00
H355   H     0.69813   0.25592   0.64840   0.00000  Uiso   1.00
H356   H     0.39891   0.28278   0.79833   0.00000  Uiso   1.00
H357   H     0.31792   0.45967   0.52595   0.00000  Uiso   1.00
H358   H     0.94147   0.21660   0.61965   0.00000  Uiso   1.00
H359   H     0.31052   0.27325   0.93582   0.00000  Uiso   1.00
O360   O     0.35493   0.56127   0.51771   0.00000  Uiso   1.00
O361   O     0.17301   0.24238   0.64065   0.00000  Uiso   1.00
O362   O     0.34521   0.31670   0.05546   0.00000  Uiso   1.00
N363   N     0.48670   0.53795   0.60478   0.00000  Uiso   1.00
N364   N     0.06968   0.31070   0.69237   0.00000  Uiso   1.00
N365   N     0.47982   0.36365   0.98796   0.00000  Uiso   1.00
N366   N     0.37794   0.47666   0.55727   0.00000  Uiso   1.00
N367   N     0.96093   0.24941   0.64486   0.00000  Uiso   1.00
N368   N     0.37106   0.30236   0.94046   0.00000  Uiso   1.00
