data_job_06691
_audit_creation_date              2018-12-19
_audit_creation_method            'Materials Studio'
_symmetry_space_group_name_H-M    'P1'
_symmetry_Int_Tables_number       1
_symmetry_cell_setting            triclinic
loop_
_symmetry_equiv_pos_as_xyz
  x,y,z
_cell_length_a                    22.7786
_cell_length_b                    21.7143
_cell_length_c                    21.3547
_cell_angle_alpha                 106.4630
_cell_angle_beta                  107.9100
_cell_angle_gamma                 106.2960
loop_
_atom_site_label
_atom_site_type_symbol
_atom_site_fract_x
_atom_site_fract_y
_atom_site_fract_z
_atom_site_U_iso_or_equiv
_atom_site_adp_type
_atom_site_occupancy
C1     C     0.94590   0.41888   0.25022   0.00000  Uiso   1.00
C2     C     0.90760   0.46626   0.25367   0.00000  Uiso   1.00
C3     C     0.91298   0.51808   0.22720   0.00000  Uiso   1.00
C4     C     0.87370   0.55573   0.23562   0.00000  Uiso   1.00
C5     C     0.82081   0.63141   0.23588   0.00000  Uiso   1.00
C6     C     0.98326   0.42925   0.32766   0.00000  Uiso   1.00
C7     C     0.05226   0.44993   0.36340   0.00000  Uiso   1.00
C8     C     0.07667   0.45641   0.43410   0.00000  Uiso   1.00
C9     C     0.14124   0.47458   0.54921   0.00000  Uiso   1.00
C10    C     0.89248   0.34383   0.21185   0.00000  Uiso   1.00
C11    C     0.88515   0.29267   0.15021   0.00000  Uiso   1.00
C12    C     0.83313   0.22723   0.12342   0.00000  Uiso   1.00
C13    C     0.75675   0.11276   0.05871   0.00000  Uiso   1.00
C14    C     0.86657   0.39361   0.31224   0.00000  Uiso   1.00
C15    C     0.86451   0.45254   0.28735   0.00000  Uiso   1.00
C16    C     0.82521   0.49012   0.29581   0.00000  Uiso   1.00
C17    C     0.83053   0.54198   0.26936   0.00000  Uiso   1.00
C18    C     0.94017   0.41552   0.36134   0.00000  Uiso   1.00
C19    C     0.96449   0.42197   0.43201   0.00000  Uiso   1.00
C20    C     0.03350   0.44266   0.46784   0.00000  Uiso   1.00
C21    C     0.84938   0.33010   0.24553   0.00000  Uiso   1.00
C22    C     0.79737   0.26472   0.21882   0.00000  Uiso   1.00
C23    C     0.78997   0.21348   0.15716   0.00000  Uiso   1.00
H24    H     0.97945   0.42957   0.22400   0.00000  Uiso   1.00
H25    H     0.94634   0.52869   0.20114   0.00000  Uiso   1.00
H26    H     0.08559   0.46054   0.33731   0.00000  Uiso   1.00
H27    H     0.91851   0.30331   0.12416   0.00000  Uiso   1.00
H28    H     0.89064   0.63254   0.19067   0.00000  Uiso   1.00
H29    H     0.18426   0.48883   0.47779   0.00000  Uiso   1.00
H30    H     0.83193   0.15728   0.02832   0.00000  Uiso   1.00
H31    H     0.83302   0.38293   0.33846   0.00000  Uiso   1.00
H32    H     0.79186   0.47949   0.32188   0.00000  Uiso   1.00
H33    H     0.93112   0.41134   0.45805   0.00000  Uiso   1.00
H34    H     0.76404   0.25412   0.24490   0.00000  Uiso   1.00
H35    H     0.76527   0.59261   0.28867   0.00000  Uiso   1.00
H36    H     0.05889   0.44890   0.57579   0.00000  Uiso   1.00
H37    H     0.70656   0.11735   0.12632   0.00000  Uiso   1.00
O38    O     0.80354   0.67695   0.22672   0.00000  Uiso   1.00
O39    O     0.18876   0.48840   0.60340   0.00000  Uiso   1.00
O40    O     0.72651   0.05342   0.01371   0.00000  Uiso   1.00
N41    N     0.86677   0.60988   0.21600   0.00000  Uiso   1.00
N42    N     0.14129   0.47553   0.48444   0.00000  Uiso   1.00
N43    N     0.81191   0.16556   0.06424   0.00000  Uiso   1.00
N44    N     0.79931   0.58840   0.26873   0.00000  Uiso   1.00
N45    N     0.07383   0.45405   0.53717   0.00000  Uiso   1.00
N46    N     0.74444   0.14407   0.11697   0.00000  Uiso   1.00
C47    C     0.26578   0.98980   0.37083   0.00000  Uiso   1.00
C48    C     0.24961   0.92427   0.38653   0.00000  Uiso   1.00
C49    C     0.21472   0.91005   0.42731   0.00000  Uiso   1.00
C50    C     0.20510   0.84722   0.43537   0.00000  Uiso   1.00
C51    C     0.17630   0.75261   0.46459   0.00000  Uiso   1.00
C52    C     0.34215   0.02212   0.39699   0.00000  Uiso   1.00
C53    C     0.38506   0.09017   0.44656   0.00000  Uiso   1.00
C54    C     0.45334   0.10971   0.46341   0.00000  Uiso   1.00
C55    C     0.56820   0.16703   0.50883   0.00000  Uiso   1.00
C56    C     0.23642   0.96388   0.28908   0.00000  Uiso   1.00
C57    C     0.19044   0.98299   0.24792   0.00000  Uiso   1.00
C58    C     0.16972   0.95351   0.17392   0.00000  Uiso   1.00
C59    C     0.12042   0.92041   0.05180   0.00000  Uiso   1.00
C60    C     0.31076   0.90349   0.31262   0.00000  Uiso   1.00
C61    C     0.27404   0.87739   0.35491   0.00000  Uiso   1.00
C62    C     0.26448   0.81456   0.36291   0.00000  Uiso   1.00
C63    C     0.22957   0.80026   0.40370   0.00000  Uiso   1.00
C64    C     0.36658   0.97524   0.36537   0.00000  Uiso   1.00
C65    C     0.43482   0.99468   0.38216   0.00000  Uiso   1.00
C66    C     0.47782   0.06275   0.43174   0.00000  Uiso   1.00
C67    C     0.26085   0.91700   0.25746   0.00000  Uiso   1.00
C68    C     0.24020   0.88750   0.18352   0.00000  Uiso   1.00
C69    C     0.19420   0.90655   0.14225   0.00000  Uiso   1.00
H70    H     0.24677   0.02630   0.39545   0.00000  Uiso   1.00
H71    H     0.19582   0.94635   0.45178   0.00000  Uiso   1.00
H72    H     0.36614   0.12644   0.47101   0.00000  Uiso   1.00
H73    H     0.17155   0.01927   0.27240   0.00000  Uiso   1.00
H74    H     0.15014   0.83704   0.50031   0.00000  Uiso   1.00
H75    H     0.50925   0.21679   0.54085   0.00000  Uiso   1.00
H76    H     0.09892   0.99080   0.12205   0.00000  Uiso   1.00
H77    H     0.32978   0.86700   0.28800   0.00000  Uiso   1.00
H78    H     0.28339   0.77829   0.33844   0.00000  Uiso   1.00
H79    H     0.45370   0.95839   0.35767   0.00000  Uiso   1.00
H80    H     0.25912   0.85122   0.15907   0.00000  Uiso   1.00
H81    H     0.22121   0.70065   0.40832   0.00000  Uiso   1.00
H82    H     0.58032   0.08039   0.44886   0.00000  Uiso   1.00
H83    H     0.17000   0.85440   0.03006   0.00000  Uiso   1.00
O84    O     0.15368   0.71338   0.48945   0.00000  Uiso   1.00
O85    O     0.62481   0.21159   0.54263   0.00000  Uiso   1.00
O86    O     0.08648   0.91510   0.99317   0.00000  Uiso   1.00
N87    N     0.17322   0.81711   0.47173   0.00000  Uiso   1.00
N88    N     0.50897   0.17214   0.50964   0.00000  Uiso   1.00
N89    N     0.12536   0.96088   0.11809   0.00000  Uiso   1.00
N90    N     0.21146   0.74371   0.42223   0.00000  Uiso   1.00
N91    N     0.54721   0.09875   0.46014   0.00000  Uiso   1.00
N92    N     0.16361   0.88748   0.06860   0.00000  Uiso   1.00
C93    C     0.31763   0.26686   0.90025   0.00000  Uiso   1.00
C94    C     0.33976   0.25838   0.83891   0.00000  Uiso   1.00
C95    C     0.37924   0.22249   0.82534   0.00000  Uiso   1.00
C96    C     0.39397   0.22075   0.76658   0.00000  Uiso   1.00
C97    C     0.43199   0.20259   0.67798   0.00000  Uiso   1.00
C98    C     0.34207   0.34565   0.94181   0.00000  Uiso   1.00
C99    C     0.38349   0.38313   0.01477   0.00000  Uiso   1.00
C100   C     0.40016   0.45486   0.04264   0.00000  Uiso   1.00
C101   C     0.44173   0.57217   0.11381   0.00000  Uiso   1.00
C102   C     0.24087   0.23819   0.86506   0.00000  Uiso   1.00
C103   C     0.19720   0.18532   0.87349   0.00000  Uiso   1.00
C104   C     0.12866   0.16658   0.83674   0.00000  Uiso   1.00
C105   C     0.01311   0.11705   0.78873   0.00000  Uiso   1.00
C106   C     0.27356   0.32759   0.82002   0.00000  Uiso   1.00
C107   C     0.31582   0.29137   0.79533   0.00000  Uiso   1.00
C108   C     0.33049   0.28968   0.73657   0.00000  Uiso   1.00
C109   C     0.36999   0.25379   0.72292   0.00000  Uiso   1.00
C110   C     0.31814   0.37864   0.89824   0.00000  Uiso   1.00
C111   C     0.33474   0.45032   0.92600   0.00000  Uiso   1.00
C112   C     0.37618   0.48790   0.99898   0.00000  Uiso   1.00
C113   C     0.21693   0.27117   0.82147   0.00000  Uiso   1.00
C114   C     0.14845   0.25251   0.78471   0.00000  Uiso   1.00
C115   C     0.10468   0.19963   0.79308   0.00000  Uiso   1.00
H116   H     0.33627   0.24119   0.93418   0.00000  Uiso   1.00
H117   H     0.39776   0.19698   0.85908   0.00000  Uiso   1.00
H118   H     0.40200   0.35759   0.04848   0.00000  Uiso   1.00
H119   H     0.21574   0.15981   0.90721   0.00000  Uiso   1.00
H120   H     0.45540   0.16253   0.75662   0.00000  Uiso   1.00
H121   H     0.46433   0.50119   0.15598   0.00000  Uiso   1.00
H122   H     0.07156   0.08413   0.85809   0.00000  Uiso   1.00
H123   H     0.25493   0.35328   0.78609   0.00000  Uiso   1.00
H124   H     0.31196   0.31521   0.70286   0.00000  Uiso   1.00
H125   H     0.31620   0.47583   0.89226   0.00000  Uiso   1.00
H126   H     0.12994   0.27805   0.75100   0.00000  Uiso   1.00
H127   H     0.38577   0.25849   0.62982   0.00000  Uiso   1.00
H128   H     0.39469   0.59715   0.02919   0.00000  Uiso   1.00
H129   H     0.00192   0.18010   0.73130   0.00000  Uiso   1.00
O130   O     0.45959   0.18347   0.64115   0.00000  Uiso   1.00
O131   O     0.47129   0.62777   0.16511   0.00000  Uiso   1.00
O132   O     0.95598   0.08060   0.77428   0.00000  Uiso   1.00
N133   N     0.43118   0.19032   0.73819   0.00000  Uiso   1.00
N134   N     0.43953   0.50695   0.11157   0.00000  Uiso   1.00
N135   N     0.07232   0.11705   0.83309   0.00000  Uiso   1.00
N136   N     0.39370   0.24196   0.66996   0.00000  Uiso   1.00
N137   N     0.40206   0.55859   0.04334   0.00000  Uiso   1.00
N138   N     0.03485   0.16869   0.76486   0.00000  Uiso   1.00
C139   C     0.39860   0.75906   0.84511   0.00000  Uiso   1.00
C140   C     0.34654   0.74243   0.87552   0.00000  Uiso   1.00
C141   C     0.34459   0.70414   0.91756   0.00000  Uiso   1.00
C142   C     0.29292   0.69471   0.94010   0.00000  Uiso   1.00
C143   C     0.21939   0.66467   0.99023   0.00000  Uiso   1.00
C144   C     0.42998   0.83876   0.87208   0.00000  Uiso   1.00
C145   C     0.49819   0.88147   0.91122   0.00000  Uiso   1.00
C146   C     0.51676   0.95313   0.93084   0.00000  Uiso   1.00
C147   C     0.57277   0.07265   0.97558   0.00000  Uiso   1.00
C148   C     0.35879   0.73117   0.76391   0.00000  Uiso   1.00
C149   C     0.36716   0.68342   0.71209   0.00000  Uiso   1.00
C150   C     0.32580   0.66450   0.64064   0.00000  Uiso   1.00
C151   C     0.27128   0.61696   0.51743   0.00000  Uiso   1.00
C152   C     0.31029   0.81038   0.81036   0.00000  Uiso   1.00
C153   C     0.29857   0.77031   0.85665   0.00000  Uiso   1.00
C154   C     0.24689   0.76092   0.87912   0.00000  Uiso   1.00
C155   C     0.24487   0.72263   0.92119   0.00000  Uiso   1.00
C156   C     0.38201   0.86664   0.85321   0.00000  Uiso   1.00
C157   C     0.40049   0.93825   0.87277   0.00000  Uiso   1.00
C158   C     0.46871   0.98106   0.91193   0.00000  Uiso   1.00
C159   C     0.31082   0.75904   0.74503   0.00000  Uiso   1.00
C160   C     0.26945   0.74020   0.67365   0.00000  Uiso   1.00
C161   C     0.27775   0.69243   0.62173   0.00000  Uiso   1.00
H162   H     0.43595   0.73736   0.85980   0.00000  Uiso   1.00
H163   H     0.38173   0.68258   0.93217   0.00000  Uiso   1.00
H164   H     0.53530   0.85988   0.92581   0.00000  Uiso   1.00
H165   H     0.40428   0.66186   0.72672   0.00000  Uiso   1.00
H166   H     0.30047   0.63417   0.00409   0.00000  Uiso   1.00
H167   H     0.62429   0.00801   0.99067   0.00000  Uiso   1.00
H168   H     0.34801   0.59044   0.57084   0.00000  Uiso   1.00
H169   H     0.27295   0.83208   0.79566   0.00000  Uiso   1.00
H170   H     0.20978   0.78250   0.86450   0.00000  Uiso   1.00
H171   H     0.36335   0.95980   0.85815   0.00000  Uiso   1.00
H172   H     0.23233   0.76178   0.65906   0.00000  Uiso   1.00
H173   H     0.16091   0.71527   0.94918   0.00000  Uiso   1.00
H174   H     0.48473   0.08911   0.93576   0.00000  Uiso   1.00
H175   H     0.20845   0.67154   0.51593   0.00000  Uiso   1.00
O176   O     0.19209   0.64041   0.02310   0.00000  Uiso   1.00
O177   O     0.61692   0.13087   0.00548   0.00000  Uiso   1.00
O178   O     0.25446   0.58303   0.45468   0.00000  Uiso   1.00
N179   N     0.27629   0.66005   0.98171   0.00000  Uiso   1.00
N180   N     0.57903   0.00957   0.96917   0.00000  Uiso   1.00
N181   N     0.32075   0.61919   0.57667   0.00000  Uiso   1.00
N182   N     0.20119   0.70369   0.95216   0.00000  Uiso   1.00
N183   N     0.50394   0.05321   0.93962   0.00000  Uiso   1.00
N184   N     0.24566   0.66283   0.54712   0.00000  Uiso   1.00
C185   C     0.70721   0.89534   0.39162   0.00000  Uiso   1.00
C186   C     0.70219   0.91987   0.33069   0.00000  Uiso   1.00
C187   C     0.67155   0.96436   0.31651   0.00000  Uiso   1.00
C188   C     0.67229   0.98056   0.25828   0.00000  Uiso   1.00
C189   C     0.65991   0.02284   0.17015   0.00000  Uiso   1.00
C190   C     0.78213   0.91628   0.43456   0.00000  Uiso   1.00
C191   C     0.81870   0.95773   0.50771   0.00000  Uiso   1.00
C192   C     0.88672   0.97089   0.53691   0.00000  Uiso   1.00
C193   C     0.99844   0.00755   0.61005   0.00000  Uiso   1.00
C194   C     0.67555   0.81537   0.35602   0.00000  Uiso   1.00
C195   C     0.62252   0.77196   0.36316   0.00000  Uiso   1.00
C196   C     0.60083   0.70016   0.32626   0.00000  Uiso   1.00
C197   C     0.54707   0.58014   0.27747   0.00000  Uiso   1.00
C198   C     0.76299   0.84499   0.31342   0.00000  Uiso   1.00
C199   C     0.73249   0.89253   0.28822   0.00000  Uiso   1.00
C200   C     0.73327   0.90866   0.22999   0.00000  Uiso   1.00
C201   C     0.70264   0.95316   0.21572   0.00000  Uiso   1.00
C202   C     0.81242   0.88893   0.39209   0.00000  Uiso   1.00
C203   C     0.88041   0.90203   0.42119   0.00000  Uiso   1.00
C204   C     0.91708   0.94349   0.49436   0.00000  Uiso   1.00
C205   C     0.70585   0.78802   0.31355   0.00000  Uiso   1.00
C206   C     0.68423   0.71627   0.27664   0.00000  Uiso   1.00
C207   C     0.63118   0.67277   0.28371   0.00000  Uiso   1.00
H208   H     0.68363   0.91663   0.42469   0.00000  Uiso   1.00
H209   H     0.64812   0.98551   0.34939   0.00000  Uiso   1.00
H210   H     0.79524   0.97888   0.54056   0.00000  Uiso   1.00
H211   H     0.59909   0.79314   0.39603   0.00000  Uiso   1.00
H212   H     0.62213   0.04985   0.24720   0.00000  Uiso   1.00
H213   H     0.93233   0.03583   0.65029   0.00000  Uiso   1.00
H214   H     0.51872   0.64418   0.34553   0.00000  Uiso   1.00
H215   H     0.78658   0.82370   0.28035   0.00000  Uiso   1.00
H216   H     0.75672   0.88749   0.19713   0.00000  Uiso   1.00
H217   H     0.90384   0.88086   0.38831   0.00000  Uiso   1.00
H218   H     0.70769   0.69513   0.24378   0.00000  Uiso   1.00
H219   H     0.71028   0.97030   0.12362   0.00000  Uiso   1.00
H220   H     0.02048   0.95628   0.52672   0.00000  Uiso   1.00
H221   H     0.60687   0.56463   0.22195   0.00000  Uiso   1.00
O222   O     0.64472   0.05373   0.13329   0.00000  Uiso   1.00
O223   O     0.05169   0.03533   0.66213   0.00000  Uiso   1.00
O224   O     0.50904   0.52150   0.26228   0.00000  Uiso   1.00
N225   N     0.64696   0.02236   0.22953   0.00000  Uiso   1.00
N226   N     0.93699   0.00927   0.60639   0.00000  Uiso   1.00
N227   N     0.55030   0.64310   0.32148   0.00000  Uiso   1.00
N228   N     0.69439   0.97955   0.16303   0.00000  Uiso   1.00
N229   N     0.98442   0.96646   0.53990   0.00000  Uiso   1.00
N230   N     0.59773   0.60030   0.25498   0.00000  Uiso   1.00
C231   C     0.78931   0.50943   0.75178   0.00000  Uiso   1.00
C232   C     0.83083   0.47293   0.72579   0.00000  Uiso   1.00
C233   C     0.86897   0.49354   0.68994   0.00000  Uiso   1.00
C234   C     0.90334   0.45320   0.67069   0.00000  Uiso   1.00
C235   C     0.96841   0.40549   0.62791   0.00000  Uiso   1.00
C236   C     0.81490   0.52751   0.83234   0.00000  Uiso   1.00
C237   C     0.83963   0.59401   0.88609   0.00000  Uiso   1.00
C238   C     0.86057   0.59962   0.95653   0.00000  Uiso   1.00
C239   C     0.90084   0.63664   0.07918   0.00000  Uiso   1.00
C240   C     0.71755   0.45364   0.71748   0.00000  Uiso   1.00
C241   C     0.66042   0.45804   0.67466   0.00000  Uiso   1.00
C242   C     0.59939   0.40146   0.64841   0.00000  Uiso   1.00
C243   C     0.48852   0.32380   0.59272   0.00000  Uiso   1.00
C244   C     0.78252   0.40115   0.78133   0.00000  Uiso   1.00
C245   C     0.82715   0.41412   0.74184   0.00000  Uiso   1.00
C246   C     0.86146   0.37373   0.72263   0.00000  Uiso   1.00
C247   C     0.89964   0.39428   0.68676   0.00000  Uiso   1.00
C248   C     0.81121   0.46870   0.84840   0.00000  Uiso   1.00
C249   C     0.83211   0.47421   0.91878   0.00000  Uiso   1.00
C250   C     0.85687   0.54070   0.97261   0.00000  Uiso   1.00
C251   C     0.71386   0.39483   0.73353   0.00000  Uiso   1.00
C252   C     0.65291   0.33824   0.70735   0.00000  Uiso   1.00
C253   C     0.59570   0.34254   0.66449   0.00000  Uiso   1.00
H254   H     0.79218   0.55522   0.73929   0.00000  Uiso   1.00
H255   H     0.87182   0.53906   0.67753   0.00000  Uiso   1.00
H256   H     0.84247   0.63951   0.87365   0.00000  Uiso   1.00
H257   H     0.66329   0.50356   0.66225   0.00000  Uiso   1.00
H258   H     0.95850   0.49522   0.61616   0.00000  Uiso   1.00
H259   H     0.89660   0.70703   0.02968   0.00000  Uiso   1.00
H260   H     0.51876   0.42035   0.58391   0.00000  Uiso   1.00
H261   H     0.77965   0.35535   0.79383   0.00000  Uiso   1.00
H262   H     0.85860   0.32822   0.73506   0.00000  Uiso   1.00
H263   H     0.82925   0.42868   0.93118   0.00000  Uiso   1.00
H264   H     0.65007   0.29273   0.71978   0.00000  Uiso   1.00
H265   H     0.94778   0.32410   0.66286   0.00000  Uiso   1.00
H266   H     0.88587   0.53591   0.07638   0.00000  Uiso   1.00
H267   H     0.50804   0.24923   0.63060   0.00000  Uiso   1.00
O268   O     0.00532   0.39543   0.59989   0.00000  Uiso   1.00
O269   O     0.92409   0.67332   0.14240   0.00000  Uiso   1.00
O270   O     0.42839   0.29720   0.55756   0.00000  Uiso   1.00
N271   N     0.94513   0.45866   0.63521   0.00000  Uiso   1.00
N272   N     0.88726   0.65670   0.02182   0.00000  Uiso   1.00
N273   N     0.53402   0.38868   0.60508   0.00000  Uiso   1.00
N274   N     0.93936   0.36658   0.66033   0.00000  Uiso   1.00
N275   N     0.88149   0.56462   0.04695   0.00000  Uiso   1.00
N276   N     0.52825   0.29660   0.63020   0.00000  Uiso   1.00
C277   C     0.01617   0.69197   0.73923   0.00000  Uiso   1.00
C278   C     0.05653   0.64658   0.73888   0.00000  Uiso   1.00
C279   C     0.05666   0.60057   0.77263   0.00000  Uiso   1.00
C280   C     0.09696   0.56382   0.76594   0.00000  Uiso   1.00
C281   C     0.15371   0.49194   0.77130   0.00000  Uiso   1.00
C282   C     0.97353   0.67331   0.66045   0.00000  Uiso   1.00
C283   C     0.90387   0.64979   0.62827   0.00000  Uiso   1.00
C284   C     0.87431   0.63554   0.55556   0.00000  Uiso   1.00
C285   C     0.80220   0.60521   0.43918   0.00000  Uiso   1.00
C286   C     0.06734   0.76736   0.76909   0.00000  Uiso   1.00
C287   C     0.07655   0.82292   0.82823   0.00000  Uiso   1.00
C288   C     0.12596   0.88786   0.84697   0.00000  Uiso   1.00
C289   C     0.19951   0.00356   0.89926   0.00000  Uiso   1.00
C290   C     0.08752   0.70851   0.66733   0.00000  Uiso   1.00
C291   C     0.09528   0.65556   0.69982   0.00000  Uiso   1.00
C292   C     0.13560   0.61887   0.69308   0.00000  Uiso   1.00
C293   C     0.13579   0.57282   0.72682   0.00000  Uiso   1.00
C294   C     0.01228   0.68229   0.62140   0.00000  Uiso   1.00
C295   C     0.98282   0.66808   0.54872   0.00000  Uiso   1.00
C296   C     0.91314   0.64454   0.51644   0.00000  Uiso   1.00
C297   C     0.10610   0.77634   0.73003   0.00000  Uiso   1.00
C298   C     0.15550   0.84121   0.74868   0.00000  Uiso   1.00
C299   C     0.16479   0.89686   0.80785   0.00000  Uiso   1.00
H300   H     0.98599   0.68498   0.76963   0.00000  Uiso   1.00
H301   H     0.02665   0.59363   0.80284   0.00000  Uiso   1.00
H302   H     0.87390   0.64285   0.65851   0.00000  Uiso   1.00
H303   H     0.04655   0.81595   0.85844   0.00000  Uiso   1.00
H304   H     0.08881   0.49630   0.82242   0.00000  Uiso   1.00
H305   H     0.76671   0.60009   0.51809   0.00000  Uiso   1.00
H306   H     0.13079   0.96511   0.93968   0.00000  Uiso   1.00
H307   H     0.11769   0.71550   0.63693   0.00000  Uiso   1.00
H308   H     0.16558   0.62583   0.66286   0.00000  Uiso   1.00
H309   H     0.01282   0.67504   0.51852   0.00000  Uiso   1.00
H310   H     0.18548   0.84814   0.71845   0.00000  Uiso   1.00
H311   H     0.20156   0.52243   0.70880   0.00000  Uiso   1.00
H312   H     0.87947   0.62622   0.40447   0.00000  Uiso   1.00
H313   H     0.24354   0.99124   0.82606   0.00000  Uiso   1.00
O314   O     0.17429   0.44980   0.78504   0.00000  Uiso   1.00
O315   O     0.75172   0.58599   0.38577   0.00000  Uiso   1.00
O316   O     0.22938   0.06489   0.93889   0.00000  Uiso   1.00
N317   N     0.10878   0.51476   0.79213   0.00000  Uiso   1.00
N318   N     0.80764   0.61180   0.50760   0.00000  Uiso   1.00
N319   N     0.14801   0.95306   0.90174   0.00000  Uiso   1.00
N320   N     0.16946   0.52882   0.73099   0.00000  Uiso   1.00
N321   N     0.86832   0.62586   0.44646   0.00000  Uiso   1.00
N322   N     0.20868   0.96712   0.84060   0.00000  Uiso   1.00
C323   C     0.65238   0.06031   0.76400   0.00000  Uiso   1.00
C324   C     0.70097   0.08961   0.73374   0.00000  Uiso   1.00
C325   C     0.76404   0.08779   0.74831   0.00000  Uiso   1.00
C326   C     0.80078   0.11740   0.71532   0.00000  Uiso   1.00
C327   C     0.88010   0.15824   0.67529   0.00000  Uiso   1.00
C328   C     0.58667   0.00836   0.69904   0.00000  Uiso   1.00
C329   C     0.55363   0.93823   0.68446   0.00000  Uiso   1.00
C330   C     0.49414   0.89945   0.62227   0.00000  Uiso   1.00
C331   C     0.39598   0.81417   0.52840   0.00000  Uiso   1.00
C332   C     0.63735   0.12122   0.80129   0.00000  Uiso   1.00
C333   C     0.64690   0.14597   0.87268   0.00000  Uiso   1.00
C334   C     0.63007   0.20220   0.89657   0.00000  Uiso   1.00
C335   C     0.61060   0.29215   0.96146   0.00000  Uiso   1.00
C336   C     0.60549   0.11613   0.67949   0.00000  Uiso   1.00
C337   C     0.67550   0.11992   0.68783   0.00000  Uiso   1.00
C338   C     0.71216   0.14955   0.65481   0.00000  Uiso   1.00
C339   C     0.77527   0.14777   0.66934   0.00000  Uiso   1.00
C340   C     0.56120   0.03868   0.65314   0.00000  Uiso   1.00
C341   C     0.50175   0.99999   0.59096   0.00000  Uiso   1.00
C342   C     0.46863   0.92982   0.57628   0.00000  Uiso   1.00
C343   C     0.61188   0.15154   0.75539   0.00000  Uiso   1.00
C344   C     0.59503   0.20773   0.77918   0.00000  Uiso   1.00
C345   C     0.60456   0.23257   0.85059   0.00000  Uiso   1.00
H346   H     0.67220   0.03670   0.79973   0.00000  Uiso   1.00
H347   H     0.78373   0.06431   0.78383   0.00000  Uiso   1.00
H348   H     0.57334   0.91478   0.71999   0.00000  Uiso   1.00
H349   H     0.66661   0.12250   0.90818   0.00000  Uiso   1.00
H350   H     0.89614   0.10827   0.74595   0.00000  Uiso   1.00
H351   H     0.45252   0.79299   0.61135   0.00000  Uiso   1.00
H352   H     0.64918   0.23099   0.00818   0.00000  Uiso   1.00
H353   H     0.58565   0.13974   0.64375   0.00000  Uiso   1.00
H354   H     0.69244   0.17301   0.61929   0.00000  Uiso   1.00
H355   H     0.48205   0.02347   0.55545   0.00000  Uiso   1.00
H356   H     0.57532   0.23118   0.74364   0.00000  Uiso   1.00
H357   H     0.82204   0.19649   0.61240   0.00000  Uiso   1.00
H358   H     0.37842   0.88120   0.47780   0.00000  Uiso   1.00
H359   H     0.57509   0.31920   0.87464   0.00000  Uiso   1.00
O360   O     0.93089   0.17238   0.66588   0.00000  Uiso   1.00
O361   O     0.34887   0.75875   0.48930   0.00000  Uiso   1.00
O362   O     0.60690   0.33339   0.00994   0.00000  Uiso   1.00
N363   N     0.86405   0.12448   0.71788   0.00000  Uiso   1.00
N364   N     0.44930   0.82970   0.59204   0.00000  Uiso   1.00
N365   N     0.63315   0.23918   0.96304   0.00000  Uiso   1.00
N366   N     0.82418   0.17195   0.64602   0.00000  Uiso   1.00
N367   N     0.40943   0.87717   0.52018   0.00000  Uiso   1.00
N368   N     0.59328   0.28665   0.89118   0.00000  Uiso   1.00
C369   C     0.65471   0.78462   0.97198   0.00000  Uiso   1.00
C370   C     0.61534   0.77510   0.01728   0.00000  Uiso   1.00
C371   C     0.58233   0.81629   0.03837   0.00000  Uiso   1.00
C372   C     0.54915   0.79906   0.07968   0.00000  Uiso   1.00
C373   C     0.48801   0.79284   0.14702   0.00000  Uiso   1.00
C374   C     0.62322   0.71472   0.90704   0.00000  Uiso   1.00
C375   C     0.59684   0.70515   0.83545   0.00000  Uiso   1.00
C376   C     0.57031   0.63708   0.78397   0.00000  Uiso   1.00
C377   C     0.52145   0.53712   0.68017   0.00000  Uiso   1.00
C378   C     0.72543   0.79285   0.01618   0.00000  Uiso   1.00
C379   C     0.78499   0.84896   0.03634   0.00000  Uiso   1.00
C380   C     0.84451   0.84666   0.07673   0.00000  Uiso   1.00
C381   C     0.95433   0.86801   0.14239   0.00000  Uiso   1.00
C382   C     0.65451   0.68076   0.00783   0.00000  Uiso   1.00
C383   C     0.61523   0.71869   0.03675   0.00000  Uiso   1.00
C384   C     0.58210   0.70138   0.07804   0.00000  Uiso   1.00
C385   C     0.54905   0.74254   0.09919   0.00000  Uiso   1.00
C386   C     0.62311   0.65831   0.92651   0.00000  Uiso   1.00
C387   C     0.59662   0.59024   0.87512   0.00000  Uiso   1.00
C388   C     0.57020   0.58056   0.80348   0.00000  Uiso   1.00
C389   C     0.72532   0.73644   0.03566   0.00000  Uiso   1.00
C390   C     0.78476   0.73405   0.07602   0.00000  Uiso   1.00
C391   C     0.84440   0.79014   0.09624   0.00000  Uiso   1.00
H392   H     0.65479   0.82853   0.95681   0.00000  Uiso   1.00
H393   H     0.58242   0.85994   0.02328   0.00000  Uiso   1.00
H394   H     0.59694   0.74881   0.82040   0.00000  Uiso   1.00
H395   H     0.78505   0.89260   0.02126   0.00000  Uiso   1.00
H396   H     0.50211   0.86987   0.10554   0.00000  Uiso   1.00
H397   H     0.53274   0.63555   0.67775   0.00000  Uiso   1.00
H398   H     0.92942   0.93876   0.10131   0.00000  Uiso   1.00
H399   H     0.65442   0.63683   0.02299   0.00000  Uiso   1.00
H400   H     0.58203   0.65773   0.09310   0.00000  Uiso   1.00
H401   H     0.59655   0.54659   0.89021   0.00000  Uiso   1.00
H402   H     0.78466   0.69038   0.09108   0.00000  Uiso   1.00
H403   H     0.50179   0.70574   0.16221   0.00000  Uiso   1.00
H404   H     0.53243   0.47142   0.73441   0.00000  Uiso   1.00
H405   H     0.92910   0.77463   0.15798   0.00000  Uiso   1.00
O406   O     0.45431   0.80499   0.17878   0.00000  Uiso   1.00
O407   O     0.49452   0.49758   0.61753   0.00000  Uiso   1.00
O408   O     0.01494   0.89538   0.17324   0.00000  Uiso   1.00
N409   N     0.51198   0.82839   0.10927   0.00000  Uiso   1.00
N410   N     0.54061   0.60931   0.70931   0.00000  Uiso   1.00
N411   N     0.91147   0.89277   0.10529   0.00000  Uiso   1.00
N412   N     0.51181   0.74007   0.13976   0.00000  Uiso   1.00
N413   N     0.54044   0.52099   0.73980   0.00000  Uiso   1.00
N414   N     0.91130   0.80445   0.13578   0.00000  Uiso   1.00
C415   C     0.53191   0.21699   0.27850   0.00000  Uiso   1.00
C416   C     0.55102   0.26616   0.24260   0.00000  Uiso   1.00
C417   C     0.53941   0.32672   0.25018   0.00000  Uiso   1.00
C418   C     0.56068   0.36450   0.21286   0.00000  Uiso   1.00
C419   C     0.58550   0.44418   0.16368   0.00000  Uiso   1.00
C420   C     0.48774   0.14450   0.21770   0.00000  Uiso   1.00
C421   C     0.42293   0.10275   0.20435   0.00000  Uiso   1.00
C422   C     0.39093   0.03811   0.14608   0.00000  Uiso   1.00
C423   C     0.31752   0.92888   0.05828   0.00000  Uiso   1.00
C424   C     0.59699   0.21251   0.32055   0.00000  Uiso   1.00
C425   C     0.62403   0.22794   0.39367   0.00000  Uiso   1.00
C426   C     0.68401   0.22055   0.42199   0.00000  Uiso   1.00
C427   C     0.78024   0.21693   0.49387   0.00000  Uiso   1.00
C428   C     0.59033   0.17642   0.19876   0.00000  Uiso   1.00
C429   C     0.58275   0.24412   0.19929   0.00000  Uiso   1.00
C430   C     0.60405   0.28183   0.16196   0.00000  Uiso   1.00
C431   C     0.59247   0.34243   0.16948   0.00000  Uiso   1.00
C432   C     0.51947   0.12246   0.17439   0.00000  Uiso   1.00
C433   C     0.48756   0.05786   0.11613   0.00000  Uiso   1.00
C434   C     0.42272   0.01603   0.10270   0.00000  Uiso   1.00
C435   C     0.62872   0.19048   0.27724   0.00000  Uiso   1.00
C436   C     0.68867   0.18306   0.30545   0.00000  Uiso   1.00
C437   C     0.71580   0.19847   0.37860   0.00000  Uiso   1.00
H438   H     0.50720   0.23415   0.31221   0.00000  Uiso   1.00
H439   H     0.51485   0.34375   0.28369   0.00000  Uiso   1.00
H440   H     0.39839   0.11982   0.23788   0.00000  Uiso   1.00
H441   H     0.59946   0.24500   0.42717   0.00000  Uiso   1.00
H442   H     0.53730   0.45553   0.23295   0.00000  Uiso   1.00
H443   H     0.29174   0.98335   0.13637   0.00000  Uiso   1.00
H444   H     0.71575   0.24731   0.53552   0.00000  Uiso   1.00
H445   H     0.61503   0.15926   0.16504   0.00000  Uiso   1.00
H446   H     0.62860   0.26476   0.12845   0.00000  Uiso   1.00
H447   H     0.51213   0.04082   0.08263   0.00000  Uiso   1.00
H448   H     0.71321   0.16600   0.27192   0.00000  Uiso   1.00
H449   H     0.62962   0.39142   0.10694   0.00000  Uiso   1.00
H450   H     0.38406   0.91923   0.01036   0.00000  Uiso   1.00
H451   H     0.80807   0.18319   0.40951   0.00000  Uiso   1.00
O452   O     0.59042   0.49421   0.14851   0.00000  Uiso   1.00
O453   O     0.26826   0.87472   0.02181   0.00000  Uiso   1.00
O454   O     0.82455   0.22103   0.54548   0.00000  Uiso   1.00
N455   N     0.55718   0.42597   0.20833   0.00000  Uiso   1.00
N456   N     0.32759   0.98451   0.11802   0.00000  Uiso   1.00
N457   N     0.72399   0.23127   0.49119   0.00000  Uiso   1.00
N458   N     0.60685   0.39147   0.14053   0.00000  Uiso   1.00
N459   N     0.37727   0.95001   0.05022   0.00000  Uiso   1.00
N460   N     0.77367   0.19677   0.42339   0.00000  Uiso   1.00
C461   C     0.20553   0.14541   0.49452   0.00000  Uiso   1.00
C462   C     0.21247   0.12478   0.55816   0.00000  Uiso   1.00
C463   C     0.24894   0.08676   0.57846   0.00000  Uiso   1.00
C464   C     0.24902   0.07325   0.63825   0.00000  Uiso   1.00
C465   C     0.26511   0.03758   0.73126   0.00000  Uiso   1.00
C466   C     0.13006   0.11628   0.44800   0.00000  Uiso   1.00
C467   C     0.09725   0.07113   0.37567   0.00000  Uiso   1.00
C468   C     0.02797   0.05047   0.34272   0.00000  Uiso   1.00
C469   C     0.91613   0.00165   0.26468   0.00000  Uiso   1.00
C470   C     0.22971   0.22507   0.52544   0.00000  Uiso   1.00
C471   C     0.28068   0.27138   0.51821   0.00000  Uiso   1.00
C472   C     0.29529   0.34232   0.55046   0.00000  Uiso   1.00
C473   C     0.33817   0.46239   0.59266   0.00000  Uiso   1.00
C474   C     0.14082   0.18904   0.56463   0.00000  Uiso   1.00
C475   C     0.17732   0.14847   0.59624   0.00000  Uiso   1.00
C476   C     0.17735   0.13502   0.65602   0.00000  Uiso   1.00
C477   C     0.21382   0.09699   0.67640   0.00000  Uiso   1.00
C478   C     0.09492   0.13997   0.48607   0.00000  Uiso   1.00
C479   C     0.02567   0.11939   0.45323   0.00000  Uiso   1.00
C480   C     0.99276   0.07421   0.38087   0.00000  Uiso   1.00
C481   C     0.19457   0.24876   0.56352   0.00000  Uiso   1.00
C482   C     0.20909   0.31964   0.59578   0.00000  Uiso   1.00
C483   C     0.26008   0.36605   0.58860   0.00000  Uiso   1.00
H484   H     0.23289   0.12697   0.46487   0.00000  Uiso   1.00
H485   H     0.27613   0.06843   0.54897   0.00000  Uiso   1.00
H486   H     0.12446   0.05280   0.34621   0.00000  Uiso   1.00
H487   H     0.30787   0.25302   0.48874   0.00000  Uiso   1.00
H488   H     0.30854   0.01396   0.65899   0.00000  Uiso   1.00
H489   H     0.98876   0.98103   0.23145   0.00000  Uiso   1.00
H490   H     0.37550   0.40323   0.53200   0.00000  Uiso   1.00
H491   H     0.11346   0.20748   0.59427   0.00000  Uiso   1.00
H492   H     0.15015   0.15337   0.68548   0.00000  Uiso   1.00
H493   H     0.99849   0.13774   0.48271   0.00000  Uiso   1.00
H494   H     0.18189   0.33796   0.62524   0.00000  Uiso   1.00
H495   H     0.20629   0.08289   0.76978   0.00000  Uiso   1.00
H496   H     0.88651   0.04997   0.34224   0.00000  Uiso   1.00
H497   H     0.27325   0.47217   0.64279   0.00000  Uiso   1.00
O498   O     0.28369   0.01135   0.77203   0.00000  Uiso   1.00
O499   O     0.86415   0.96816   0.21111   0.00000  Uiso   1.00
O500   O     0.37154   0.52208   0.60543   0.00000  Uiso   1.00
N501   N     0.27946   0.03762   0.67256   0.00000  Uiso   1.00
N502   N     0.98048   0.00682   0.27283   0.00000  Uiso   1.00
N503   N     0.34203   0.40155   0.55381   0.00000  Uiso   1.00
N504   N     0.22444   0.07471   0.73217   0.00000  Uiso   1.00
N505   N     0.92546   0.04392   0.33245   0.00000  Uiso   1.00
N506   N     0.28701   0.43864   0.61342   0.00000  Uiso   1.00
C507   C     0.09653   0.58387   0.22570   0.00000  Uiso   1.00
C508   C     0.08393   0.65080   0.23924   0.00000  Uiso   1.00
C509   C     0.05505   0.67470   0.28431   0.00000  Uiso   1.00
C510   C     0.04785   0.73711   0.28939   0.00000  Uiso   1.00
C511   C     0.02506   0.83537   0.31627   0.00000  Uiso   1.00
C512   C     0.06041   0.54115   0.14452   0.00000  Uiso   1.00
C513   C     0.01177   0.47285   0.10996   0.00000  Uiso   1.00
C514   C     0.98478   0.44296   0.03530   0.00000  Uiso   1.00
C515   C     0.92552   0.37097   0.91513   0.00000  Uiso   1.00
C516   C     0.17168   0.60649   0.24458   0.00000  Uiso   1.00
C517   C     0.21660   0.59311   0.29413   0.00000  Uiso   1.00
C518   C     0.28329   0.61821   0.30370   0.00000  Uiso   1.00
C519   C     0.39678   0.64767   0.33889   0.00000  Uiso   1.00
C520   C     0.13509   0.65221   0.15457   0.00000  Uiso   1.00
C521   C     0.10487   0.68792   0.20061   0.00000  Uiso   1.00
C522   C     0.09772   0.75031   0.20562   0.00000  Uiso   1.00
C523   C     0.06884   0.77430   0.25069   0.00000  Uiso   1.00
C524   C     0.08135   0.57827   0.10589   0.00000  Uiso   1.00
C525   C     0.05443   0.54847   0.03127   0.00000  Uiso   1.00
C526   C     0.00577   0.48014   0.99660   0.00000  Uiso   1.00
C527   C     0.19262   0.64361   0.20595   0.00000  Uiso   1.00
C528   C     0.25926   0.66873   0.21544   0.00000  Uiso   1.00
C529   C     0.30427   0.65540   0.26500   0.00000  Uiso   1.00
H530   H     0.08022   0.55496   0.25577   0.00000  Uiso   1.00
H531   H     0.03884   0.64595   0.31420   0.00000  Uiso   1.00
H532   H     0.99558   0.44414   0.13987   0.00000  Uiso   1.00
H533   H     0.20037   0.56438   0.32402   0.00000  Uiso   1.00
H534   H     0.00218   0.76318   0.36191   0.00000  Uiso   1.00
H535   H     0.91097   0.33764   0.99434   0.00000  Uiso   1.00
H536   H     0.34281   0.59119   0.38265   0.00000  Uiso   1.00
H537   H     0.15140   0.68111   0.12449   0.00000  Uiso   1.00
H538   H     0.11393   0.77903   0.17572   0.00000  Uiso   1.00
H539   H     0.07066   0.57721   0.00139   0.00000  Uiso   1.00
H540   H     0.27545   0.69745   0.18554   0.00000  Uiso   1.00
H541   H     0.06312   0.87119   0.24951   0.00000  Uiso   1.00
H542   H     0.97191   0.44564   0.88194   0.00000  Uiso   1.00
H543   H     0.40375   0.69920   0.27025   0.00000  Uiso   1.00
O544   O     0.00670   0.87931   0.34176   0.00000  Uiso   1.00
O545   O     0.88704   0.32101   0.85952   0.00000  Uiso   1.00
O546   O     0.45360   0.65367   0.36897   0.00000  Uiso   1.00
N547   N     0.02168   0.77517   0.32844   0.00000  Uiso   1.00
N548   N     0.93639   0.37732   0.98478   0.00000  Uiso   1.00
N549   N     0.34013   0.61435   0.34780   0.00000  Uiso   1.00
N550   N     0.05447   0.83329   0.26796   0.00000  Uiso   1.00
N551   N     0.96918   0.43544   0.92430   0.00000  Uiso   1.00
N552   N     0.37292   0.67247   0.28732   0.00000  Uiso   1.00
