data_job_07058
_audit_creation_date              2018-12-19
_audit_creation_method            'Materials Studio'
_symmetry_space_group_name_H-M    'P1'
_symmetry_Int_Tables_number       1
_symmetry_cell_setting            triclinic
loop_
_symmetry_equiv_pos_as_xyz
  x,y,z
_cell_length_a                    21.5931
_cell_length_b                    22.9926
_cell_length_c                    23.0307
_cell_angle_alpha                 72.2044
_cell_angle_beta                  75.5063
_cell_angle_gamma                 71.6390
loop_
_atom_site_label
_atom_site_type_symbol
_atom_site_fract_x
_atom_site_fract_y
_atom_site_fract_z
_atom_site_U_iso_or_equiv
_atom_site_adp_type
_atom_site_occupancy
C1     C     0.33180   0.35566   0.79608   0.00000  Uiso   1.00
C2     C     0.27009   0.37563   0.84236   0.00000  Uiso   1.00
C3     C     0.22440   0.34064   0.87325   0.00000  Uiso   1.00
C4     C     0.17127   0.36717   0.91371   0.00000  Uiso   1.00
C5     C     0.07651   0.38916   0.98415   0.00000  Uiso   1.00
C6     C     0.32632   0.40825   0.73672   0.00000  Uiso   1.00
C7     C     0.32791   0.40067   0.67880   0.00000  Uiso   1.00
C8     C     0.32213   0.45466   0.63033   0.00000  Uiso   1.00
C9     C     0.31472   0.52728   0.53676   0.00000  Uiso   1.00
C10    C     0.39002   0.35803   0.82073   0.00000  Uiso   1.00
C11    C     0.44519   0.30823   0.83343   0.00000  Uiso   1.00
C12    C     0.49305   0.31994   0.85568   0.00000  Uiso   1.00
C13    C     0.58455   0.31459   0.89255   0.00000  Uiso   1.00
C14    C     0.31871   0.46500   0.81298   0.00000  Uiso   1.00
C15    C     0.26298   0.43502   0.85153   0.00000  Uiso   1.00
C16    C     0.20991   0.46161   0.89195   0.00000  Uiso   1.00
C17    C     0.16415   0.42666   0.92291   0.00000  Uiso   1.00
C18    C     0.31920   0.46764   0.74590   0.00000  Uiso   1.00
C19    C     0.31343   0.52165   0.69750   0.00000  Uiso   1.00
C20    C     0.31501   0.51416   0.63952   0.00000  Uiso   1.00
C21    C     0.38291   0.41742   0.82991   0.00000  Uiso   1.00
C22    C     0.43070   0.42921   0.85214   0.00000  Uiso   1.00
C23    C     0.48593   0.37944   0.86488   0.00000  Uiso   1.00
H24    H     0.33734   0.30942   0.78892   0.00000  Uiso   1.00
H25    H     0.22992   0.29468   0.86613   0.00000  Uiso   1.00
H26    H     0.33342   0.35470   0.67171   0.00000  Uiso   1.00
H27    H     0.45068   0.26228   0.82632   0.00000  Uiso   1.00
H28    H     0.10767   0.30453   0.95576   0.00000  Uiso   1.00
H29    H     0.32594   0.43110   0.54580   0.00000  Uiso   1.00
H30    H     0.57320   0.23620   0.87184   0.00000  Uiso   1.00
H31    H     0.31317   0.51124   0.82012   0.00000  Uiso   1.00
H32    H     0.20442   0.50758   0.89905   0.00000  Uiso   1.00
H33    H     0.30793   0.56760   0.70462   0.00000  Uiso   1.00
H34    H     0.42518   0.47518   0.85924   0.00000  Uiso   1.00
H35    H     0.08697   0.47733   0.98248   0.00000  Uiso   1.00
H36    H     0.30525   0.60390   0.57251   0.00000  Uiso   1.00
H37    H     0.55250   0.40900   0.89855   0.00000  Uiso   1.00
O38    O     0.02621   0.38489   0.02046   0.00000  Uiso   1.00
O39    O     0.31259   0.55093   0.48261   0.00000  Uiso   1.00
O40    O     0.63697   0.29523   0.91036   0.00000  Uiso   1.00
N41    N     0.11773   0.34570   0.95123   0.00000  Uiso   1.00
N42    N     0.32179   0.46403   0.56794   0.00000  Uiso   1.00
N43    N     0.55296   0.28183   0.87274   0.00000  Uiso   1.00
N44    N     0.10659   0.43868   0.96560   0.00000  Uiso   1.00
N45    N     0.31066   0.55701   0.58232   0.00000  Uiso   1.00
N46    N     0.54183   0.37481   0.88712   0.00000  Uiso   1.00
C47    C     0.93496   0.42905   0.22194   0.00000  Uiso   1.00
C48    C     0.99270   0.37181   0.23820   0.00000  Uiso   1.00
C49    C     0.03580   0.33736   0.19748   0.00000  Uiso   1.00
C50    C     0.08543   0.28660   0.22136   0.00000  Uiso   1.00
C51    C     0.17412   0.20009   0.23712   0.00000  Uiso   1.00
C52    C     0.87354   0.41300   0.26581   0.00000  Uiso   1.00
C53    C     0.81646   0.41319   0.24831   0.00000  Uiso   1.00
C54    C     0.76577   0.39711   0.29544   0.00000  Uiso   1.00
C55    C     0.66945   0.37459   0.35408   0.00000  Uiso   1.00
C56    C     0.94649   0.48253   0.24051   0.00000  Uiso   1.00
C57    C     0.95073   0.54120   0.20173   0.00000  Uiso   1.00
C58    C     0.96145   0.58368   0.22756   0.00000  Uiso   1.00
C59    C     0.97840   0.66913   0.24691   0.00000  Uiso   1.00
C60    C     0.94644   0.40016   0.33677   0.00000  Uiso   1.00
C61    C     0.99893   0.35612   0.30057   0.00000  Uiso   1.00
C62    C     0.04851   0.30540   0.32452   0.00000  Uiso   1.00
C63    C     0.09168   0.27089   0.28384   0.00000  Uiso   1.00
C64    C     0.87978   0.39731   0.32818   0.00000  Uiso   1.00
C65    C     0.82916   0.38123   0.37535   0.00000  Uiso   1.00
C66    C     0.77202   0.38139   0.35793   0.00000  Uiso   1.00
C67    C     0.95273   0.46685   0.30288   0.00000  Uiso   1.00
C68    C     0.96344   0.50924   0.32878   0.00000  Uiso   1.00
C69    C     0.96770   0.56796   0.29005   0.00000  Uiso   1.00
H70    H     0.93010   0.44126   0.17338   0.00000  Uiso   1.00
H71    H     0.03095   0.34951   0.14921   0.00000  Uiso   1.00
H72    H     0.81164   0.42534   0.20004   0.00000  Uiso   1.00
H73    H     0.94590   0.55333   0.15347   0.00000  Uiso   1.00
H74    H     0.14551   0.24086   0.14992   0.00000  Uiso   1.00
H75    H     0.68307   0.40076   0.25709   0.00000  Uiso   1.00
H76    H     0.96618   0.67066   0.15889   0.00000  Uiso   1.00
H77    H     0.95129   0.38795   0.38533   0.00000  Uiso   1.00
H78    H     0.05332   0.29327   0.37279   0.00000  Uiso   1.00
H79    H     0.83401   0.36910   0.42362   0.00000  Uiso   1.00
H80    H     0.96826   0.49709   0.37705   0.00000  Uiso   1.00
H81    H     0.16366   0.19521   0.33139   0.00000  Uiso   1.00
H82    H     0.70122   0.35511   0.43856   0.00000  Uiso   1.00
H83    H     0.98433   0.62501   0.34035   0.00000  Uiso   1.00
O84    O     0.22131   0.15671   0.22859   0.00000  Uiso   1.00
O85    O     0.61460   0.36650   0.36919   0.00000  Uiso   1.00
O86    O     0.98603   0.72060   0.24034   0.00000  Uiso   1.00
N87    N     0.13579   0.24312   0.19435   0.00000  Uiso   1.00
N88    N     0.70344   0.39260   0.29455   0.00000  Uiso   1.00
N89    N     0.96810   0.64494   0.20274   0.00000  Uiso   1.00
N90    N     0.14556   0.21856   0.29199   0.00000  Uiso   1.00
N91    N     0.71321   0.36804   0.39219   0.00000  Uiso   1.00
N92    N     0.97787   0.62038   0.30038   0.00000  Uiso   1.00
C93    C     0.39980   0.99020   0.22811   0.00000  Uiso   1.00
C94    C     0.43970   0.03840   0.19337   0.00000  Uiso   1.00
C95    C     0.41834   0.09426   0.15022   0.00000  Uiso   1.00
C96    C     0.46223   0.13196   0.12358   0.00000  Uiso   1.00
C97    C     0.51462   0.20946   0.06719   0.00000  Uiso   1.00
C98    C     0.44201   0.92733   0.21438   0.00000  Uiso   1.00
C99    C     0.42258   0.88979   0.18890   0.00000  Uiso   1.00
C100   C     0.46842   0.83398   0.17996   0.00000  Uiso   1.00
C101   C     0.52438   0.73902   0.15623   0.00000  Uiso   1.00
C102   C     0.39713   0.98268   0.29674   0.00000  Uiso   1.00
C103   C     0.33998   0.99167   0.34051   0.00000  Uiso   1.00
C104   C     0.34803   0.98245   0.40091   0.00000  Uiso   1.00
C105   C     0.33431   0.97344   0.50505   0.00000  Uiso   1.00
C106   C     0.51573   0.95783   0.25754   0.00000  Uiso   1.00
C107   C     0.50267   0.02082   0.20936   0.00000  Uiso   1.00
C108   C     0.54661   0.05845   0.18278   0.00000  Uiso   1.00
C109   C     0.52531   0.11435   0.13960   0.00000  Uiso   1.00
C110   C     0.50498   0.90975   0.23037   0.00000  Uiso   1.00
C111   C     0.55085   0.85398   0.22147   0.00000  Uiso   1.00
C112   C     0.53150   0.81637   0.19597   0.00000  Uiso   1.00
C113   C     0.46010   0.96510   0.31273   0.00000  Uiso   1.00
C114   C     0.46825   0.95587   0.37307   0.00000  Uiso   1.00
C115   C     0.41111   0.96484   0.41693   0.00000  Uiso   1.00
H116   H     0.35077   0.00388   0.21566   0.00000  Uiso   1.00
H117   H     0.36960   0.10784   0.13786   0.00000  Uiso   1.00
H118   H     0.37385   0.90340   0.17654   0.00000  Uiso   1.00
H119   H     0.29125   0.00527   0.32812   0.00000  Uiso   1.00
H120   H     0.41826   0.21534   0.05863   0.00000  Uiso   1.00
H121   H     0.42720   0.78426   0.14021   0.00000  Uiso   1.00
H122   H     0.25304   0.99907   0.45986   0.00000  Uiso   1.00
H123   H     0.56476   0.94414   0.26999   0.00000  Uiso   1.00
H124   H     0.59533   0.04483   0.19516   0.00000  Uiso   1.00
H125   H     0.59958   0.84039   0.23385   0.00000  Uiso   1.00
H126   H     0.51698   0.94226   0.38543   0.00000  Uiso   1.00
H127   H     0.60147   0.16419   0.10514   0.00000  Uiso   1.00
H128   H     0.61041   0.73311   0.18672   0.00000  Uiso   1.00
H129   H     0.43625   0.94793   0.50637   0.00000  Uiso   1.00
O130   O     0.52613   0.25707   0.03166   0.00000  Uiso   1.00
O131   O     0.53785   0.69151   0.13871   0.00000  Uiso   1.00
O132   O     0.30935   0.97333   0.55807   0.00000  Uiso   1.00
N133   N     0.45718   0.18949   0.07985   0.00000  Uiso   1.00
N134   N     0.46554   0.78646   0.15612   0.00000  Uiso   1.00
N135   N     0.30271   0.98727   0.45496   0.00000  Uiso   1.00
N136   N     0.55576   0.16197   0.10488   0.00000  Uiso   1.00
N137   N     0.56413   0.75894   0.18115   0.00000  Uiso   1.00
N138   N     0.40130   0.95976   0.47999   0.00000  Uiso   1.00
C139   C     0.84924   0.41607   0.79225   0.00000  Uiso   1.00
C140   C     0.78634   0.46063   0.81754   0.00000  Uiso   1.00
C141   C     0.73446   0.49675   0.78597   0.00000  Uiso   1.00
C142   C     0.68132   0.53450   0.81717   0.00000  Uiso   1.00
C143   C     0.58382   0.60342   0.84723   0.00000  Uiso   1.00
C144   C     0.85318   0.35151   0.83783   0.00000  Uiso   1.00
C145   C     0.85751   0.29589   0.82331   0.00000  Uiso   1.00
C146   C     0.86064   0.24179   0.87160   0.00000  Uiso   1.00
C147   C     0.86697   0.14130   0.93316   0.00000  Uiso   1.00
C148   C     0.90673   0.43800   0.79783   0.00000  Uiso   1.00
C149   C     0.95609   0.45508   0.74968   0.00000  Uiso   1.00
C150   C     0.00431   0.47377   0.76429   0.00000  Uiso   1.00
C151   C     0.09377   0.50757   0.76373   0.00000  Uiso   1.00
C152   C     0.84711   0.41888   0.90381   0.00000  Uiso   1.00
C153   C     0.78519   0.46215   0.87813   0.00000  Uiso   1.00
C154   C     0.73211   0.49985   0.90939   0.00000  Uiso   1.00
C155   C     0.68016   0.53603   0.87787   0.00000  Uiso   1.00
C156   C     0.85203   0.35303   0.89842   0.00000  Uiso   1.00
C157   C     0.85516   0.29900   0.94674   0.00000  Uiso   1.00
C158   C     0.85949   0.24331   0.93230   0.00000  Uiso   1.00
C159   C     0.90557   0.43952   0.85842   0.00000  Uiso   1.00
C160   C     0.95373   0.45819   0.87311   0.00000  Uiso   1.00
C161   C     0.00315   0.47530   0.82499   0.00000  Uiso   1.00
H162   H     0.85014   0.41488   0.74508   0.00000  Uiso   1.00
H163   H     0.73537   0.49555   0.73907   0.00000  Uiso   1.00
H164   H     0.85841   0.29473   0.77642   0.00000  Uiso   1.00
H165   H     0.95697   0.45389   0.70279   0.00000  Uiso   1.00
H166   H     0.60762   0.58565   0.75915   0.00000  Uiso   1.00
H167   H     0.86707   0.16219   0.83789   0.00000  Uiso   1.00
H168   H     0.07490   0.49782   0.68264   0.00000  Uiso   1.00
H169   H     0.84621   0.42006   0.95098   0.00000  Uiso   1.00
H170   H     0.73122   0.50102   0.95628   0.00000  Uiso   1.00
H171   H     0.85426   0.30019   0.99363   0.00000  Uiso   1.00
H172   H     0.95282   0.45936   0.92000   0.00000  Uiso   1.00
H173   H     0.60425   0.59008   0.93545   0.00000  Uiso   1.00
H174   H     0.86371   0.16663   0.01418   0.00000  Uiso   1.00
H175   H     0.07153   0.50226   0.85893   0.00000  Uiso   1.00
O176   O     0.53035   0.64101   0.84708   0.00000  Uiso   1.00
O177   O     0.87076   0.08546   0.95037   0.00000  Uiso   1.00
O178   O     0.14343   0.52580   0.74669   0.00000  Uiso   1.00
N179   N     0.62261   0.57559   0.79991   0.00000  Uiso   1.00
N180   N     0.86517   0.17969   0.87353   0.00000  Uiso   1.00
N181   N     0.05949   0.49346   0.72838   0.00000  Uiso   1.00
N182   N     0.62080   0.57798   0.89477   0.00000  Uiso   1.00
N183   N     0.86336   0.18207   0.96839   0.00000  Uiso   1.00
N184   N     0.05767   0.49584   0.82324   0.00000  Uiso   1.00
C185   C     0.39663   0.01050   0.74787   0.00000  Uiso   1.00
C186   C     0.44470   0.03306   0.69051   0.00000  Uiso   1.00
C187   C     0.50289   0.99533   0.66524   0.00000  Uiso   1.00
C188   C     0.54001   0.02495   0.61264   0.00000  Uiso   1.00
C189   C     0.61773   0.05009   0.52757   0.00000  Uiso   1.00
C190   C     0.32944   0.03010   0.72758   0.00000  Uiso   1.00
C191   C     0.29071   0.98989   0.73348   0.00000  Uiso   1.00
C192   C     0.23081   0.01703   0.71209   0.00000  Uiso   1.00
C193   C     0.12956   0.03758   0.68461   0.00000  Uiso   1.00
C194   C     0.39003   0.05036   0.79230   0.00000  Uiso   1.00
C195   C     0.40224   0.02717   0.85262   0.00000  Uiso   1.00
C196   C     0.39334   0.07137   0.88573   0.00000  Uiso   1.00
C197   C     0.38618   0.12337   0.95873   0.00000  Uiso   1.00
C198   C     0.35910   0.13020   0.69940   0.00000  Uiso   1.00
C199   C     0.42431   0.09808   0.66419   0.00000  Uiso   1.00
C200   C     0.46136   0.12777   0.61161   0.00000  Uiso   1.00
C201   C     0.51959   0.09008   0.58627   0.00000  Uiso   1.00
C202   C     0.30905   0.09512   0.70125   0.00000  Uiso   1.00
C203   C     0.24919   0.12233   0.67985   0.00000  Uiso   1.00
C204   C     0.21038   0.08216   0.68572   0.00000  Uiso   1.00
C205   C     0.36965   0.11538   0.76597   0.00000  Uiso   1.00
C206   C     0.36072   0.15961   0.79899   0.00000  Uiso   1.00
C207   C     0.37292   0.13650   0.85936   0.00000  Uiso   1.00
H208   H     0.41250   0.95988   0.76837   0.00000  Uiso   1.00
H209   H     0.51864   0.94501   0.68563   0.00000  Uiso   1.00
H210   H     0.30650   0.93958   0.75386   0.00000  Uiso   1.00
H211   H     0.41802   0.97686   0.87298   0.00000  Uiso   1.00
H212   H     0.62732   0.95720   0.58227   0.00000  Uiso   1.00
H213   H     0.17999   0.94574   0.72617   0.00000  Uiso   1.00
H214   H     0.41515   0.02435   0.97736   0.00000  Uiso   1.00
H215   H     0.34322   0.18082   0.67890   0.00000  Uiso   1.00
H216   H     0.44557   0.17808   0.59125   0.00000  Uiso   1.00
H217   H     0.23342   0.17264   0.65949   0.00000  Uiso   1.00
H218   H     0.34494   0.20992   0.77860   0.00000  Uiso   1.00
H219   H     0.56801   0.14636   0.50567   0.00000  Uiso   1.00
H220   H     0.12068   0.13491   0.64957   0.00000  Uiso   1.00
H221   H     0.35584   0.21352   0.90076   0.00000  Uiso   1.00
O222   O     0.66623   0.04599   0.48791   0.00000  Uiso   1.00
O223   O     0.07935   0.03096   0.67671   0.00000  Uiso   1.00
O224   O     0.38787   0.13409   0.00626   0.00000  Uiso   1.00
N225   N     0.59932   0.00210   0.57628   0.00000  Uiso   1.00
N226   N     0.18110   0.99138   0.71080   0.00000  Uiso   1.00
N227   N     0.40094   0.06488   0.94565   0.00000  Uiso   1.00
N228   N     0.56741   0.10389   0.53506   0.00000  Uiso   1.00
N229   N     0.14919   0.09317   0.66959   0.00000  Uiso   1.00
N230   N     0.36902   0.16667   0.90443   0.00000  Uiso   1.00
C231   C     0.95884   0.95951   0.25351   0.00000  Uiso   1.00
C232   C     0.98469   0.88984   0.28457   0.00000  Uiso   1.00
C233   C     0.94605   0.84918   0.32036   0.00000  Uiso   1.00
C234   C     0.97913   0.78716   0.34468   0.00000  Uiso   1.00
C235   C     0.00873   0.68210   0.39457   0.00000  Uiso   1.00
C236   C     0.98763   0.96704   0.18485   0.00000  Uiso   1.00
C237   C     0.95146   0.99130   0.13681   0.00000  Uiso   1.00
C238   C     0.98702   0.99428   0.07719   0.00000  Uiso   1.00
C239   C     0.02120   0.00913   0.97226   0.00000  Uiso   1.00
C240   C     0.99155   0.99571   0.27708   0.00000  Uiso   1.00
C241   C     0.95867   0.04410   0.30658   0.00000  Uiso   1.00
C242   C     0.99753   0.07123   0.32460   0.00000  Uiso   1.00
C243   C     0.03779   0.13059   0.36288   0.00000  Uiso   1.00
C244   C     0.08631   0.92167   0.23304   0.00000  Uiso   1.00
C245   C     0.05392   0.86929   0.27345   0.00000  Uiso   1.00
C246   C     0.08707   0.80732   0.29772   0.00000  Uiso   1.00
C247   C     0.04849   0.76657   0.33355   0.00000  Uiso   1.00
C248   C     0.05686   0.94649   0.17373   0.00000  Uiso   1.00
C249   C     0.09249   0.94944   0.11416   0.00000  Uiso   1.00
C250   C     0.05638   0.97370   0.06605   0.00000  Uiso   1.00
C251   C     0.06078   0.97516   0.26597   0.00000  Uiso   1.00
C252   C     0.09970   0.00223   0.28394   0.00000  Uiso   1.00
C253   C     0.06689   0.05064   0.31346   0.00000  Uiso   1.00
H254   H     0.90494   0.97551   0.26216   0.00000  Uiso   1.00
H255   H     0.89247   0.86510   0.32895   0.00000  Uiso   1.00
H256   H     0.89788   0.00721   0.14543   0.00000  Uiso   1.00
H257   H     0.90509   0.05999   0.31518   0.00000  Uiso   1.00
H258   H     0.90917   0.73362   0.39808   0.00000  Uiso   1.00
H259   H     0.92059   0.03329   0.01111   0.00000  Uiso   1.00
H260   H     0.93580   0.14459   0.36905   0.00000  Uiso   1.00
H261   H     0.14021   0.90567   0.22438   0.00000  Uiso   1.00
H262   H     0.14065   0.79143   0.28911   0.00000  Uiso   1.00
H263   H     0.14607   0.93354   0.10558   0.00000  Uiso   1.00
H264   H     0.15328   0.98632   0.27533   0.00000  Uiso   1.00
H265   H     0.11061   0.67382   0.36574   0.00000  Uiso   1.00
H266   H     0.12203   0.97349   0.97876   0.00000  Uiso   1.00
H267   H     0.13724   0.08479   0.33671   0.00000  Uiso   1.00
O268   O     0.00594   0.62982   0.42515   0.00000  Uiso   1.00
O269   O     0.02092   0.02299   0.91745   0.00000  Uiso   1.00
O270   O     0.04087   0.16900   0.38707   0.00000  Uiso   1.00
N271   N     0.95652   0.73523   0.38160   0.00000  Uiso   1.00
N272   N     0.96720   0.01539   0.01980   0.00000  Uiso   1.00
N273   N     0.98141   0.11946   0.35443   0.00000  Uiso   1.00
N274   N     0.06491   0.70305   0.36420   0.00000  Uiso   1.00
N275   N     0.07559   0.98321   0.00240   0.00000  Uiso   1.00
N276   N     0.08980   0.08728   0.33703   0.00000  Uiso   1.00
C277   C     0.76089   0.90771   0.09113   0.00000  Uiso   1.00
C278   C     0.81646   0.89179   0.03817   0.00000  Uiso   1.00
C279   C     0.85720   0.93017   0.00160   0.00000  Uiso   1.00
C280   C     0.90512   0.90706   0.95552   0.00000  Uiso   1.00
C281   C     0.99038   0.89136   0.87468   0.00000  Uiso   1.00
C282   C     0.77645   0.85391   0.14798   0.00000  Uiso   1.00
C283   C     0.78353   0.86045   0.20375   0.00000  Uiso   1.00
C284   C     0.79775   0.80545   0.25011   0.00000  Uiso   1.00
C285   C     0.82085   0.73095   0.33978   0.00000  Uiso   1.00
C286   C     0.69843   0.90253   0.07574   0.00000  Uiso   1.00
C287   C     0.63991   0.94993   0.07079   0.00000  Uiso   1.00
C288   C     0.58844   0.93586   0.05635   0.00000  Uiso   1.00
C289   C     0.49040   0.93683   0.03386   0.00000  Uiso   1.00
C290   C     0.77353   0.79842   0.07433   0.00000  Uiso   1.00
C291   C     0.82332   0.83243   0.02904   0.00000  Uiso   1.00
C292   C     0.87119   0.80926   0.98301   0.00000  Uiso   1.00
C293   C     0.91199   0.84759   0.94638   0.00000  Uiso   1.00
C294   C     0.78331   0.79455   0.13886   0.00000  Uiso   1.00
C295   C     0.79752   0.73954   0.18516   0.00000  Uiso   1.00
C296   C     0.80463   0.74598   0.24097   0.00000  Uiso   1.00
C297   C     0.70529   0.84317   0.06662   0.00000  Uiso   1.00
C298   C     0.65390   0.82902   0.05219   0.00000  Uiso   1.00
C299   C     0.59532   0.87639   0.04721   0.00000  Uiso   1.00
H300   H     0.75555   0.95392   0.09824   0.00000  Uiso   1.00
H301   H     0.85188   0.97610   0.00868   0.00000  Uiso   1.00
H302   H     0.77821   0.90639   0.21079   0.00000  Uiso   1.00
H303   H     0.63462   0.99586   0.07785   0.00000  Uiso   1.00
H304   H     0.96173   0.97450   0.90537   0.00000  Uiso   1.00
H305   H     0.80638   0.82752   0.33155   0.00000  Uiso   1.00
H306   H     0.50357   0.01618   0.05121   0.00000  Uiso   1.00
H307   H     0.77887   0.75221   0.06723   0.00000  Uiso   1.00
H308   H     0.87649   0.76332   0.97596   0.00000  Uiso   1.00
H309   H     0.80282   0.69361   0.17808   0.00000  Uiso   1.00
H310   H     0.65923   0.78308   0.04513   0.00000  Uiso   1.00
H311   H     0.98170   0.80180   0.87881   0.00000  Uiso   1.00
H312   H     0.82635   0.65482   0.30500   0.00000  Uiso   1.00
H313   H     0.52355   0.84347   0.02466   0.00000  Uiso   1.00
O314   O     0.03552   0.89909   0.83262   0.00000  Uiso   1.00
O315   O     0.83170   0.70626   0.39176   0.00000  Uiso   1.00
O316   O     0.43443   0.95377   0.02396   0.00000  Uiso   1.00
N317   N     0.95302   0.93234   0.91164   0.00000  Uiso   1.00
N318   N     0.80779   0.79492   0.31009   0.00000  Uiso   1.00
N319   N     0.52469   0.97129   0.04801   0.00000  Uiso   1.00
N320   N     0.96377   0.83941   0.89735   0.00000  Uiso   1.00
N321   N     0.81854   0.70199   0.29580   0.00000  Uiso   1.00
N322   N     0.53544   0.87836   0.03372   0.00000  Uiso   1.00
C323   C     0.21482   0.80351   0.56262   0.00000  Uiso   1.00
C324   C     0.16258   0.86535   0.54493   0.00000  Uiso   1.00
C325   C     0.13207   0.90843   0.58106   0.00000  Uiso   1.00
C326   C     0.08558   0.96217   0.55660   0.00000  Uiso   1.00
C327   C     0.00683   0.05664   0.53802   0.00000  Uiso   1.00
C328   C     0.27470   0.80655   0.51103   0.00000  Uiso   1.00
C329   C     0.33845   0.80018   0.51867   0.00000  Uiso   1.00
C330   C     0.38635   0.80441   0.46567   0.00000  Uiso   1.00
C331   C     0.48167   0.80756   0.39447   0.00000  Uiso   1.00
C332   C     0.18779   0.75154   0.55810   0.00000  Uiso   1.00
C333   C     0.17849   0.69891   0.60529   0.00000  Uiso   1.00
C334   C     0.15324   0.65682   0.59192   0.00000  Uiso   1.00
C335   C     0.11363   0.57455   0.59379   0.00000  Uiso   1.00
C336   C     0.18652   0.82234   0.45493   0.00000  Uiso   1.00
C337   C     0.14721   0.87557   0.48644   0.00000  Uiso   1.00
C338   C     0.10076   0.92926   0.46192   0.00000  Uiso   1.00
C339   C     0.07018   0.97241   0.49801   0.00000  Uiso   1.00
C340   C     0.25933   0.81678   0.45254   0.00000  Uiso   1.00
C341   C     0.30714   0.82101   0.39953   0.00000  Uiso   1.00
C342   C     0.37095   0.81466   0.40708   0.00000  Uiso   1.00
C343   C     0.17242   0.76177   0.49960   0.00000  Uiso   1.00
C344   C     0.14718   0.71974   0.48615   0.00000  Uiso   1.00
C345   C     0.13784   0.66706   0.53332   0.00000  Uiso   1.00
H346   H     0.22679   0.79555   0.60816   0.00000  Uiso   1.00
H347   H     0.14398   0.90050   0.62632   0.00000  Uiso   1.00
H348   H     0.35033   0.79227   0.56394   0.00000  Uiso   1.00
H349   H     0.19039   0.69102   0.65055   0.00000  Uiso   1.00
H350   H     0.04541   0.02138   0.62066   0.00000  Uiso   1.00
H351   H     0.48052   0.79314   0.48912   0.00000  Uiso   1.00
H352   H     0.14326   0.57963   0.67176   0.00000  Uiso   1.00
H353   H     0.17455   0.83030   0.40939   0.00000  Uiso   1.00
H354   H     0.08887   0.93716   0.41665   0.00000  Uiso   1.00
H355   H     0.29523   0.82892   0.35427   0.00000  Uiso   1.00
H356   H     0.13529   0.72767   0.44088   0.00000  Uiso   1.00
H357   H     0.00069   0.05113   0.45048   0.00000  Uiso   1.00
H358   H     0.43580   0.82288   0.31895   0.00000  Uiso   1.00
H359   H     0.09854   0.60938   0.50159   0.00000  Uiso   1.00
O360   O     0.96765   0.10593   0.54393   0.00000  Uiso   1.00
O361   O     0.53850   0.80647   0.37136   0.00000  Uiso   1.00
O362   O     0.09602   0.52636   0.61098   0.00000  Uiso   1.00
N363   N     0.04663   0.01371   0.57962   0.00000  Uiso   1.00
N364   N     0.45344   0.80033   0.45664   0.00000  Uiso   1.00
N365   N     0.13814   0.60070   0.62739   0.00000  Uiso   1.00
N366   N     0.02257   0.02972   0.48805   0.00000  Uiso   1.00
N367   N     0.42937   0.81633   0.36507   0.00000  Uiso   1.00
N368   N     0.11408   0.61671   0.53581   0.00000  Uiso   1.00
C369   C     0.71011   0.21181   0.70348   0.00000  Uiso   1.00
C370   C     0.66760   0.16558   0.73683   0.00000  Uiso   1.00
C371   C     0.68115   0.11510   0.78756   0.00000  Uiso   1.00
C372   C     0.63611   0.07836   0.81140   0.00000  Uiso   1.00
C373   C     0.57869   0.00457   0.86718   0.00000  Uiso   1.00
C374   C     0.66476   0.27752   0.70496   0.00000  Uiso   1.00
C375   C     0.67594   0.32117   0.72889   0.00000  Uiso   1.00
C376   C     0.62851   0.37866   0.72589   0.00000  Uiso   1.00
C377   C     0.56671   0.47868   0.73214   0.00000  Uiso   1.00
C378   C     0.72664   0.20913   0.63582   0.00000  Uiso   1.00
C379   C     0.78984   0.19529   0.60161   0.00000  Uiso   1.00
C380   C     0.79451   0.19523   0.54039   0.00000  Uiso   1.00
C381   C     0.82878   0.18906   0.43930   0.00000  Uiso   1.00
C382   C     0.60603   0.23631   0.65560   0.00000  Uiso   1.00
C383   C     0.61106   0.17889   0.71083   0.00000  Uiso   1.00
C384   C     0.56599   0.14222   0.73459   0.00000  Uiso   1.00
C385   C     0.57948   0.09170   0.78535   0.00000  Uiso   1.00
C386   C     0.60823   0.29083   0.67896   0.00000  Uiso   1.00
C387   C     0.56078   0.34828   0.67592   0.00000  Uiso   1.00
C388   C     0.57188   0.39200   0.69984   0.00000  Uiso   1.00
C389   C     0.67011   0.22244   0.60982   0.00000  Uiso   1.00
C390   C     0.67468   0.22240   0.54864   0.00000  Uiso   1.00
C391   C     0.73788   0.20856   0.51434   0.00000  Uiso   1.00
H392   H     0.75412   0.20145   0.72372   0.00000  Uiso   1.00
H393   H     0.72491   0.10482   0.80768   0.00000  Uiso   1.00
H394   H     0.71969   0.31085   0.74901   0.00000  Uiso   1.00
H395   H     0.83358   0.18500   0.62175   0.00000  Uiso   1.00
H396   H     0.66757   0.00358   0.88931   0.00000  Uiso   1.00
H397   H     0.65659   0.43801   0.76557   0.00000  Uiso   1.00
H398   H     0.89674   0.17262   0.49722   0.00000  Uiso   1.00
H399   H     0.56201   0.24668   0.63535   0.00000  Uiso   1.00
H400   H     0.52225   0.15253   0.71446   0.00000  Uiso   1.00
H401   H     0.51704   0.35856   0.65579   0.00000  Uiso   1.00
H402   H     0.63092   0.23270   0.52853   0.00000  Uiso   1.00
H403   H     0.50308   0.04230   0.81365   0.00000  Uiso   1.00
H404   H     0.49211   0.47673   0.68991   0.00000  Uiso   1.00
H405   H     0.73226   0.21134   0.42157   0.00000  Uiso   1.00
O406   O     0.56262   0.96020   0.90513   0.00000  Uiso   1.00
O407   O     0.54823   0.53016   0.74278   0.00000  Uiso   1.00
O408   O     0.86330   0.18197   0.39072   0.00000  Uiso   1.00
N409   N     0.63432   0.02560   0.86064   0.00000  Uiso   1.00
N410   N     0.62405   0.43177   0.74496   0.00000  Uiso   1.00
N411   N     0.84857   0.18367   0.49407   0.00000  Uiso   1.00
N412   N     0.54581   0.04644   0.81993   0.00000  Uiso   1.00
N413   N     0.53554   0.45260   0.70425   0.00000  Uiso   1.00
N414   N     0.76006   0.20450   0.45336   0.00000  Uiso   1.00
C415   C     0.25062   0.84930   0.04964   0.00000  Uiso   1.00
C416   C     0.31429   0.80635   0.02335   0.00000  Uiso   1.00
C417   C     0.36692   0.77109   0.05421   0.00000  Uiso   1.00
C418   C     0.42070   0.73479   0.02214   0.00000  Uiso   1.00
C419   C     0.51941   0.66827   0.99053   0.00000  Uiso   1.00
C420   C     0.24472   0.91444   0.00483   0.00000  Uiso   1.00
C421   C     0.23886   0.97005   0.02012   0.00000  Uiso   1.00
C422   C     0.23406   0.02474   0.97246   0.00000  Uiso   1.00
C423   C     0.22472   0.12604   0.91212   0.00000  Uiso   1.00
C424   C     0.19415   0.82590   0.04411   0.00000  Uiso   1.00
C425   C     0.14576   0.80709   0.09243   0.00000  Uiso   1.00
C426   C     0.09838   0.78724   0.07784   0.00000  Uiso   1.00
C427   C     0.01053   0.75107   0.07849   0.00000  Uiso   1.00
C428   C     0.25252   0.84753   0.93781   0.00000  Uiso   1.00
C429   C     0.31532   0.80540   0.96260   0.00000  Uiso   1.00
C430   C     0.36902   0.76913   0.93047   0.00000  Uiso   1.00
C431   C     0.42173   0.73382   0.96128   0.00000  Uiso   1.00
C432   C     0.24575   0.91348   0.94409   0.00000  Uiso   1.00
C433   C     0.24096   0.96810   0.89639   0.00000  Uiso   1.00
C434   C     0.23509   0.02378   0.91161   0.00000  Uiso   1.00
C435   C     0.19518   0.82494   0.98337   0.00000  Uiso   1.00
C436   C     0.14786   0.80513   0.96870   0.00000  Uiso   1.00
C437   C     0.09941   0.78628   0.01699   0.00000  Uiso   1.00
H438   H     0.24981   0.85005   0.09694   0.00000  Uiso   1.00
H439   H     0.36611   0.77185   0.10122   0.00000  Uiso   1.00
H440   H     0.23805   0.97078   0.06714   0.00000  Uiso   1.00
H441   H     0.14498   0.80784   0.13944   0.00000  Uiso   1.00
H442   H     0.49551   0.68474   0.07917   0.00000  Uiso   1.00
H443   H     0.22547   0.10421   0.00731   0.00000  Uiso   1.00
H444   H     0.02920   0.76061   0.15977   0.00000  Uiso   1.00
H445   H     0.25332   0.84679   0.89051   0.00000  Uiso   1.00
H446   H     0.36981   0.76840   0.88347   0.00000  Uiso   1.00
H447   H     0.24175   0.96734   0.84939   0.00000  Uiso   1.00
H448   H     0.14867   0.80439   0.92169   0.00000  Uiso   1.00
H449   H     0.49851   0.68195   0.90243   0.00000  Uiso   1.00
H450   H     0.22847   0.10141   0.83058   0.00000  Uiso   1.00
H451   H     0.03220   0.75781   0.98303   0.00000  Uiso   1.00
O452   O     0.57358   0.63186   0.98988   0.00000  Uiso   1.00
O453   O     0.21930   0.18218   0.89562   0.00000  Uiso   1.00
O454   O     0.96179   0.73138   0.09563   0.00000  Uiso   1.00
N455   N     0.48022   0.69483   0.03854   0.00000  Uiso   1.00
N456   N     0.22777   0.08700   0.97136   0.00000  Uiso   1.00
N457   N     0.04425   0.76578   0.11389   0.00000  Uiso   1.00
N458   N     0.48184   0.69333   0.94344   0.00000  Uiso   1.00
N459   N     0.22938   0.08550   0.87626   0.00000  Uiso   1.00
N460   N     0.04587   0.76428   0.01879   0.00000  Uiso   1.00
C461   C     0.76092   0.24483   0.13510   0.00000  Uiso   1.00
C462   C     0.73244   0.22223   0.20314   0.00000  Uiso   1.00
C463   C     0.68507   0.25947   0.23918   0.00000  Uiso   1.00
C464   C     0.66548   0.22990   0.30044   0.00000  Uiso   1.00
C465   C     0.61718   0.20463   0.40241   0.00000  Uiso   1.00
C466   C     0.83577   0.22797   0.13135   0.00000  Uiso   1.00
C467   C     0.87528   0.27003   0.10701   0.00000  Uiso   1.00
C468   C     0.94268   0.24529   0.10782   0.00000  Uiso   1.00
C469   C     0.05481   0.22891   0.09829   0.00000  Uiso   1.00
C470   C     0.74847   0.20294   0.10144   0.00000  Uiso   1.00
C471   C     0.71459   0.22395   0.05194   0.00000  Uiso   1.00
C472   C     0.70850   0.17813   0.02757   0.00000  Uiso   1.00
C473   C     0.68509   0.12289   0.97159   0.00000  Uiso   1.00
C474   C     0.81038   0.12611   0.17980   0.00000  Uiso   1.00
C475   C     0.75930   0.15775   0.22742   0.00000  Uiso   1.00
C476   C     0.73978   0.12812   0.28864   0.00000  Uiso   1.00
C477   C     0.69239   0.16530   0.32476   0.00000  Uiso   1.00
C478   C     0.86263   0.16349   0.15562   0.00000  Uiso   1.00
C479   C     0.92999   0.13868   0.15647   0.00000  Uiso   1.00
C480   C     0.96959   0.18069   0.13215   0.00000  Uiso   1.00
C481   C     0.77533   0.13845   0.12572   0.00000  Uiso   1.00
C482   C     0.76930   0.09260   0.10140   0.00000  Uiso   1.00
C483   C     0.73541   0.11353   0.05189   0.00000  Uiso   1.00
H484   H     0.74002   0.29504   0.11619   0.00000  Uiso   1.00
H485   H     0.66429   0.30937   0.22038   0.00000  Uiso   1.00
H486   H     0.85447   0.31992   0.08822   0.00000  Uiso   1.00
H487   H     0.69381   0.27385   0.03317   0.00000  Uiso   1.00
H488   H     0.59220   0.29683   0.34660   0.00000  Uiso   1.00
H489   H     0.99321   0.31908   0.06792   0.00000  Uiso   1.00
H490   H     0.65442   0.22193   0.95183   0.00000  Uiso   1.00
H491   H     0.83130   0.07590   0.19870   0.00000  Uiso   1.00
H492   H     0.76058   0.07821   0.30742   0.00000  Uiso   1.00
H493   H     0.95076   0.08877   0.17526   0.00000  Uiso   1.00
H494   H     0.79009   0.04270   0.12020   0.00000  Uiso   1.00
H495   H     0.67036   0.10922   0.41724   0.00000  Uiso   1.00
H496   H     0.07137   0.13147   0.13856   0.00000  Uiso   1.00
H497   H     0.73257   0.03432   0.02247   0.00000  Uiso   1.00
O498   O     0.58313   0.20850   0.45195   0.00000  Uiso   1.00
O499   O     0.10924   0.23770   0.08633   0.00000  Uiso   1.00
O500   O     0.66474   0.11023   0.93402   0.00000  Uiso   1.00
N501   N     0.62029   0.25236   0.34830   0.00000  Uiso   1.00
N502   N     0.99521   0.27316   0.08776   0.00000  Uiso   1.00
N503   N     0.67848   0.18233   0.97921   0.00000  Uiso   1.00
N504   N     0.66235   0.15140   0.38631   0.00000  Uiso   1.00
N505   N     0.03726   0.17221   0.12578   0.00000  Uiso   1.00
N506   N     0.72053   0.08138   0.01723   0.00000  Uiso   1.00
C507   C     0.20054   0.29600   0.58192   0.00000  Uiso   1.00
C508   C     0.18018   0.36346   0.54279   0.00000  Uiso   1.00
C509   C     0.22199   0.40273   0.51300   0.00000  Uiso   1.00
C510   C     0.19380   0.46280   0.47949   0.00000  Uiso   1.00
C511   C     0.17247   0.56451   0.41930   0.00000  Uiso   1.00
C512   C     0.15646   0.29491   0.64513   0.00000  Uiso   1.00
C513   C     0.17832   0.27655   0.70139   0.00000  Uiso   1.00
C514   C     0.13015   0.27891   0.75403   0.00000  Uiso   1.00
C515   C     0.07198   0.27416   0.85273   0.00000  Uiso   1.00
C516   C     0.17973   0.25487   0.55334   0.00000  Uiso   1.00
C517   C     0.22115   0.20282   0.53244   0.00000  Uiso   1.00
C518   C     0.19257   0.17146   0.50782   0.00000  Uiso   1.00
C519   C     0.17053   0.10454   0.46401   0.00000  Uiso   1.00
C520   C     0.07613   0.33284   0.57536   0.00000  Uiso   1.00
C521   C     0.11261   0.38347   0.53923   0.00000  Uiso   1.00
C522   C     0.08435   0.44349   0.50575   0.00000  Uiso   1.00
C523   C     0.12611   0.48284   0.47592   0.00000  Uiso   1.00
C524   C     0.08889   0.31492   0.64157   0.00000  Uiso   1.00
C525   C     0.04068   0.31730   0.69414   0.00000  Uiso   1.00
C526   C     0.06246   0.29895   0.75047   0.00000  Uiso   1.00
C527   C     0.11215   0.27488   0.54978   0.00000  Uiso   1.00
C528   C     0.08351   0.24359   0.52519   0.00000  Uiso   1.00
C529   C     0.12488   0.19151   0.50426   0.00000  Uiso   1.00
H530   H     0.25314   0.28042   0.58469   0.00000  Uiso   1.00
H531   H     0.27428   0.38723   0.51577   0.00000  Uiso   1.00
H532   H     0.23061   0.26106   0.70413   0.00000  Uiso   1.00
H533   H     0.27343   0.18735   0.53521   0.00000  Uiso   1.00
H534   H     0.26791   0.51448   0.43781   0.00000  Uiso   1.00
H535   H     0.17583   0.24842   0.83498   0.00000  Uiso   1.00
H536   H     0.26613   0.09300   0.47877   0.00000  Uiso   1.00
H537   H     0.02352   0.34842   0.57260   0.00000  Uiso   1.00
H538   H     0.03206   0.45896   0.50301   0.00000  Uiso   1.00
H539   H     0.98839   0.33279   0.69137   0.00000  Uiso   1.00
H540   H     0.03122   0.25908   0.52245   0.00000  Uiso   1.00
H541   H     0.07131   0.57270   0.42745   0.00000  Uiso   1.00
H542   H     0.97924   0.30664   0.82462   0.00000  Uiso   1.00
H543   H     0.06954   0.15122   0.46842   0.00000  Uiso   1.00
O544   O     0.17936   0.61509   0.38709   0.00000  Uiso   1.00
O545   O     0.05856   0.26602   0.90816   0.00000  Uiso   1.00
O546   O     0.17704   0.06211   0.44082   0.00000  Uiso   1.00
N547   N     0.22047   0.51301   0.44491   0.00000  Uiso   1.00
N548   N     0.13438   0.26427   0.81624   0.00000  Uiso   1.00
N549   N     0.21881   0.11895   0.48323   0.00000  Uiso   1.00
N550   N     0.11468   0.54433   0.43934   0.00000  Uiso   1.00
N551   N     0.02860   0.29560   0.81067   0.00000  Uiso   1.00
N552   N     0.11302   0.15028   0.47766   0.00000  Uiso   1.00
