data_job_02378
_audit_creation_date              2018-12-19
_audit_creation_method            'Materials Studio'
_symmetry_space_group_name_H-M    'P1'
_symmetry_Int_Tables_number       1
_symmetry_cell_setting            triclinic
loop_
_symmetry_equiv_pos_as_xyz
  x,y,z
_cell_length_a                    18.5517
_cell_length_b                    34.8704
_cell_length_c                    8.5752
_cell_angle_alpha                 90.0000
_cell_angle_beta                  90.0000
_cell_angle_gamma                 90.0000
loop_
_atom_site_label
_atom_site_type_symbol
_atom_site_fract_x
_atom_site_fract_y
_atom_site_fract_z
_atom_site_U_iso_or_equiv
_atom_site_adp_type
_atom_site_occupancy
C1     C     0.24242   0.40435   0.77058   0.00000  Uiso   1.00
C2     C     0.28303   0.43778   0.84418   0.00000  Uiso   1.00
C3     C     0.29374   0.47349   0.77661   0.00000  Uiso   1.00
C4     C     0.33234   0.50022   0.86283   0.00000  Uiso   1.00
C5     C     0.39134   0.55345   0.95451   0.00000  Uiso   1.00
C6     C     0.29494   0.37071   0.76896   0.00000  Uiso   1.00
C7     C     0.31565   0.35002   0.63816   0.00000  Uiso   1.00
C8     C     0.36427   0.32028   0.66107   0.00000  Uiso   1.00
C9     C     0.44171   0.26936   0.63599   0.00000  Uiso   1.00
C10    C     0.18322   0.39355   0.88585   0.00000  Uiso   1.00
C11    C     0.10999   0.39206   0.85332   0.00000  Uiso   1.00
C12    C     0.06454   0.38154   0.97464   0.00000  Uiso   1.00
C13    C     0.96851   0.36609   0.13104   0.00000  Uiso   1.00
C14    C     0.29192   0.38830   0.04385   0.00000  Uiso   1.00
C15    C     0.30992   0.42906   0.99261   0.00000  Uiso   1.00
C16    C     0.34851   0.45574   0.07896   0.00000  Uiso   1.00
C17    C     0.35927   0.49149   0.01153   0.00000  Uiso   1.00
C18    C     0.32183   0.36199   0.91739   0.00000  Uiso   1.00
C19    C     0.37042   0.33227   0.94050   0.00000  Uiso   1.00
C20    C     0.39120   0.31154   0.80977   0.00000  Uiso   1.00
C21    C     0.21010   0.38483   0.03429   0.00000  Uiso   1.00
C22    C     0.16475   0.37431   0.15567   0.00000  Uiso   1.00
C23    C     0.09147   0.37280   0.12334   0.00000  Uiso   1.00
H24    H     0.22149   0.41113   0.65502   0.00000  Uiso   1.00
H25    H     0.27293   0.48023   0.66174   0.00000  Uiso   1.00
H26    H     0.29483   0.35677   0.52331   0.00000  Uiso   1.00
H27    H     0.08920   0.39880   0.73845   0.00000  Uiso   1.00
H28    H     0.34184   0.55299   0.73462   0.00000  Uiso   1.00
H29    H     0.38800   0.29266   0.44275   0.00000  Uiso   1.00
H30    H     0.95439   0.38130   0.89640   0.00000  Uiso   1.00
H31    H     0.31285   0.38151   0.15941   0.00000  Uiso   1.00
H32    H     0.36930   0.44899   0.19382   0.00000  Uiso   1.00
H33    H     0.39121   0.32553   0.05538   0.00000  Uiso   1.00
H34    H     0.18558   0.36756   0.27052   0.00000  Uiso   1.00
H35    H     0.42007   0.52763   0.16647   0.00000  Uiso   1.00
H36    H     0.46622   0.26731   0.87460   0.00000  Uiso   1.00
H37    H     0.03261   0.35594   0.32825   0.00000  Uiso   1.00
O38    O     0.41647   0.58523   0.96406   0.00000  Uiso   1.00
O39    O     0.47701   0.24369   0.58114   0.00000  Uiso   1.00
O40    O     0.90812   0.35998   0.17631   0.00000  Uiso   1.00
N41    N     0.35249   0.53776   0.83155   0.00000  Uiso   1.00
N42    N     0.39566   0.29438   0.55866   0.00000  Uiso   1.00
N43    N     0.99027   0.37724   0.98278   0.00000  Uiso   1.00
N44    N     0.39458   0.52412   0.06393   0.00000  Uiso   1.00
N45    N     0.43775   0.28074   0.79104   0.00000  Uiso   1.00
N46    N     0.03236   0.36359   0.21515   0.00000  Uiso   1.00
C47    C     0.25758   0.59565   0.27058   0.00000  Uiso   1.00
C48    C     0.21697   0.56222   0.34418   0.00000  Uiso   1.00
C49    C     0.20626   0.52651   0.27661   0.00000  Uiso   1.00
C50    C     0.16766   0.49978   0.36283   0.00000  Uiso   1.00
C51    C     0.10866   0.44655   0.45451   0.00000  Uiso   1.00
C52    C     0.20506   0.62929   0.26896   0.00000  Uiso   1.00
C53    C     0.18435   0.64998   0.13816   0.00000  Uiso   1.00
C54    C     0.13573   0.67972   0.16107   0.00000  Uiso   1.00
C55    C     0.05829   0.73064   0.13599   0.00000  Uiso   1.00
C56    C     0.31678   0.60645   0.38585   0.00000  Uiso   1.00
C57    C     0.39001   0.60794   0.35332   0.00000  Uiso   1.00
C58    C     0.43546   0.61846   0.47464   0.00000  Uiso   1.00
C59    C     0.53149   0.63391   0.63104   0.00000  Uiso   1.00
C60    C     0.20808   0.61170   0.54385   0.00000  Uiso   1.00
C61    C     0.19008   0.57094   0.49261   0.00000  Uiso   1.00
C62    C     0.15149   0.54426   0.57896   0.00000  Uiso   1.00
C63    C     0.14073   0.50851   0.51153   0.00000  Uiso   1.00
C64    C     0.17817   0.63801   0.41739   0.00000  Uiso   1.00
C65    C     0.12958   0.66773   0.44050   0.00000  Uiso   1.00
C66    C     0.10880   0.68846   0.30977   0.00000  Uiso   1.00
C67    C     0.28990   0.61517   0.53429   0.00000  Uiso   1.00
C68    C     0.33525   0.62569   0.65567   0.00000  Uiso   1.00
C69    C     0.40853   0.62720   0.62334   0.00000  Uiso   1.00
H70    H     0.27851   0.58887   0.15502   0.00000  Uiso   1.00
H71    H     0.22707   0.51977   0.16174   0.00000  Uiso   1.00
H72    H     0.20517   0.64323   0.02331   0.00000  Uiso   1.00
H73    H     0.41080   0.60120   0.23845   0.00000  Uiso   1.00
H74    H     0.15816   0.44701   0.23462   0.00000  Uiso   1.00
H75    H     0.11200   0.70734   0.94275   0.00000  Uiso   1.00
H76    H     0.54561   0.61870   0.39640   0.00000  Uiso   1.00
H77    H     0.18715   0.61849   0.65941   0.00000  Uiso   1.00
H78    H     0.13070   0.55101   0.69382   0.00000  Uiso   1.00
H79    H     0.10879   0.67447   0.55538   0.00000  Uiso   1.00
H80    H     0.31442   0.63244   0.77052   0.00000  Uiso   1.00
H81    H     0.07993   0.47237   0.66647   0.00000  Uiso   1.00
H82    H     0.03378   0.73269   0.37460   0.00000  Uiso   1.00
H83    H     0.46739   0.64406   0.82825   0.00000  Uiso   1.00
O84    O     0.08353   0.41477   0.46406   0.00000  Uiso   1.00
O85    O     0.02299   0.75631   0.08114   0.00000  Uiso   1.00
O86    O     0.59188   0.64002   0.67631   0.00000  Uiso   1.00
N87    N     0.14751   0.46224   0.33155   0.00000  Uiso   1.00
N88    N     0.10434   0.70562   0.05866   0.00000  Uiso   1.00
N89    N     0.50973   0.62276   0.48278   0.00000  Uiso   1.00
N90    N     0.10542   0.47588   0.56393   0.00000  Uiso   1.00
N91    N     0.06225   0.71926   0.29104   0.00000  Uiso   1.00
N92    N     0.46764   0.63641   0.71515   0.00000  Uiso   1.00
C93    C     0.75758   0.90435   0.72942   0.00000  Uiso   1.00
C94    C     0.71697   0.93778   0.65582   0.00000  Uiso   1.00
C95    C     0.70626   0.97349   0.72339   0.00000  Uiso   1.00
C96    C     0.66766   0.00022   0.63717   0.00000  Uiso   1.00
C97    C     0.60866   0.05345   0.54549   0.00000  Uiso   1.00
C98    C     0.70506   0.87071   0.73104   0.00000  Uiso   1.00
C99    C     0.68435   0.85002   0.86184   0.00000  Uiso   1.00
C100   C     0.63573   0.82028   0.83893   0.00000  Uiso   1.00
C101   C     0.55829   0.76936   0.86401   0.00000  Uiso   1.00
C102   C     0.81678   0.89355   0.61415   0.00000  Uiso   1.00
C103   C     0.89001   0.89206   0.64668   0.00000  Uiso   1.00
C104   C     0.93546   0.88154   0.52536   0.00000  Uiso   1.00
C105   C     0.03149   0.86609   0.36896   0.00000  Uiso   1.00
C106   C     0.70808   0.88830   0.45615   0.00000  Uiso   1.00
C107   C     0.69008   0.92906   0.50739   0.00000  Uiso   1.00
C108   C     0.65149   0.95574   0.42104   0.00000  Uiso   1.00
C109   C     0.64073   0.99149   0.48847   0.00000  Uiso   1.00
C110   C     0.67817   0.86199   0.58261   0.00000  Uiso   1.00
C111   C     0.62958   0.83227   0.55950   0.00000  Uiso   1.00
C112   C     0.60880   0.81154   0.69023   0.00000  Uiso   1.00
C113   C     0.78990   0.88483   0.46571   0.00000  Uiso   1.00
C114   C     0.83525   0.87431   0.34433   0.00000  Uiso   1.00
C115   C     0.90853   0.87280   0.37666   0.00000  Uiso   1.00
H116   H     0.77851   0.91113   0.84498   0.00000  Uiso   1.00
H117   H     0.72707   0.98023   0.83826   0.00000  Uiso   1.00
H118   H     0.70517   0.85677   0.97669   0.00000  Uiso   1.00
H119   H     0.91080   0.89880   0.76155   0.00000  Uiso   1.00
H120   H     0.65816   0.05299   0.76538   0.00000  Uiso   1.00
H121   H     0.61200   0.79266   0.05725   0.00000  Uiso   1.00
H122   H     0.04561   0.88130   0.60360   0.00000  Uiso   1.00
H123   H     0.68715   0.88151   0.34059   0.00000  Uiso   1.00
H124   H     0.63070   0.94899   0.30618   0.00000  Uiso   1.00
H125   H     0.60879   0.82553   0.44462   0.00000  Uiso   1.00
H126   H     0.81442   0.86756   0.22948   0.00000  Uiso   1.00
H127   H     0.57993   0.02763   0.33353   0.00000  Uiso   1.00
H128   H     0.53378   0.76731   0.62540   0.00000  Uiso   1.00
H129   H     0.96739   0.85594   0.17175   0.00000  Uiso   1.00
O130   O     0.58353   0.08523   0.53594   0.00000  Uiso   1.00
O131   O     0.52299   0.74369   0.91886   0.00000  Uiso   1.00
O132   O     0.09188   0.85998   0.32369   0.00000  Uiso   1.00
N133   N     0.64751   0.03776   0.66845   0.00000  Uiso   1.00
N134   N     0.60434   0.79438   0.94134   0.00000  Uiso   1.00
N135   N     0.00973   0.87724   0.51722   0.00000  Uiso   1.00
N136   N     0.60542   0.02412   0.43607   0.00000  Uiso   1.00
N137   N     0.56225   0.78074   0.70896   0.00000  Uiso   1.00
N138   N     0.96764   0.86359   0.28485   0.00000  Uiso   1.00
C139   C     0.74242   0.09565   0.22942   0.00000  Uiso   1.00
C140   C     0.78303   0.06222   0.15582   0.00000  Uiso   1.00
C141   C     0.79374   0.02651   0.22339   0.00000  Uiso   1.00
C142   C     0.83234   0.99978   0.13717   0.00000  Uiso   1.00
C143   C     0.89134   0.94655   0.04549   0.00000  Uiso   1.00
C144   C     0.79494   0.12929   0.23104   0.00000  Uiso   1.00
C145   C     0.81565   0.14998   0.36184   0.00000  Uiso   1.00
C146   C     0.86427   0.17972   0.33893   0.00000  Uiso   1.00
C147   C     0.94171   0.23064   0.36401   0.00000  Uiso   1.00
C148   C     0.68322   0.10645   0.11415   0.00000  Uiso   1.00
C149   C     0.60999   0.10794   0.14668   0.00000  Uiso   1.00
C150   C     0.56454   0.11846   0.02536   0.00000  Uiso   1.00
C151   C     0.46851   0.13391   0.86896   0.00000  Uiso   1.00
C152   C     0.79192   0.11170   0.95615   0.00000  Uiso   1.00
C153   C     0.80992   0.07094   0.00739   0.00000  Uiso   1.00
C154   C     0.84851   0.04426   0.92104   0.00000  Uiso   1.00
C155   C     0.85927   0.00851   0.98847   0.00000  Uiso   1.00
C156   C     0.82183   0.13801   0.08261   0.00000  Uiso   1.00
C157   C     0.87042   0.16773   0.05950   0.00000  Uiso   1.00
C158   C     0.89120   0.18846   0.19023   0.00000  Uiso   1.00
C159   C     0.71010   0.11517   0.96571   0.00000  Uiso   1.00
C160   C     0.66475   0.12569   0.84433   0.00000  Uiso   1.00
C161   C     0.59147   0.12720   0.87666   0.00000  Uiso   1.00
H162   H     0.72149   0.08887   0.34498   0.00000  Uiso   1.00
H163   H     0.77293   0.01977   0.33826   0.00000  Uiso   1.00
H164   H     0.79483   0.14323   0.47669   0.00000  Uiso   1.00
H165   H     0.58920   0.10120   0.26155   0.00000  Uiso   1.00
H166   H     0.84184   0.94701   0.26538   0.00000  Uiso   1.00
H167   H     0.88800   0.20734   0.55725   0.00000  Uiso   1.00
H168   H     0.45439   0.11870   0.10360   0.00000  Uiso   1.00
H169   H     0.81285   0.11849   0.84059   0.00000  Uiso   1.00
H170   H     0.86930   0.05101   0.80618   0.00000  Uiso   1.00
H171   H     0.89121   0.17447   0.94462   0.00000  Uiso   1.00
H172   H     0.68558   0.13244   0.72948   0.00000  Uiso   1.00
H173   H     0.92007   0.97237   0.83353   0.00000  Uiso   1.00
H174   H     0.96622   0.23269   0.12540   0.00000  Uiso   1.00
H175   H     0.53261   0.14406   0.67175   0.00000  Uiso   1.00
O176   O     0.91647   0.91477   0.03594   0.00000  Uiso   1.00
O177   O     0.97701   0.25631   0.41886   0.00000  Uiso   1.00
O178   O     0.40812   0.14002   0.82369   0.00000  Uiso   1.00
N179   N     0.85249   0.96224   0.16845   0.00000  Uiso   1.00
N180   N     0.89566   0.20562   0.44134   0.00000  Uiso   1.00
N181   N     0.49027   0.12276   0.01722   0.00000  Uiso   1.00
N182   N     0.89458   0.97588   0.93607   0.00000  Uiso   1.00
N183   N     0.93775   0.21926   0.20896   0.00000  Uiso   1.00
N184   N     0.53236   0.13641   0.78485   0.00000  Uiso   1.00
C185   C     0.75758   0.59565   0.22942   0.00000  Uiso   1.00
C186   C     0.71697   0.56222   0.15582   0.00000  Uiso   1.00
C187   C     0.70626   0.52651   0.22339   0.00000  Uiso   1.00
C188   C     0.66766   0.49978   0.13717   0.00000  Uiso   1.00
C189   C     0.60866   0.44655   0.04549   0.00000  Uiso   1.00
C190   C     0.70506   0.62929   0.23104   0.00000  Uiso   1.00
C191   C     0.68435   0.64998   0.36184   0.00000  Uiso   1.00
C192   C     0.63573   0.67972   0.33893   0.00000  Uiso   1.00
C193   C     0.55829   0.73064   0.36401   0.00000  Uiso   1.00
C194   C     0.81678   0.60645   0.11415   0.00000  Uiso   1.00
C195   C     0.89001   0.60794   0.14668   0.00000  Uiso   1.00
C196   C     0.93546   0.61846   0.02536   0.00000  Uiso   1.00
C197   C     0.03149   0.63391   0.86896   0.00000  Uiso   1.00
C198   C     0.70808   0.61170   0.95615   0.00000  Uiso   1.00
C199   C     0.69008   0.57094   0.00739   0.00000  Uiso   1.00
C200   C     0.65149   0.54426   0.92104   0.00000  Uiso   1.00
C201   C     0.64073   0.50851   0.98847   0.00000  Uiso   1.00
C202   C     0.67817   0.63801   0.08261   0.00000  Uiso   1.00
C203   C     0.62958   0.66773   0.05950   0.00000  Uiso   1.00
C204   C     0.60880   0.68846   0.19023   0.00000  Uiso   1.00
C205   C     0.78990   0.61517   0.96571   0.00000  Uiso   1.00
C206   C     0.83525   0.62569   0.84433   0.00000  Uiso   1.00
C207   C     0.90853   0.62720   0.87666   0.00000  Uiso   1.00
H208   H     0.77851   0.58887   0.34498   0.00000  Uiso   1.00
H209   H     0.72707   0.51977   0.33826   0.00000  Uiso   1.00
H210   H     0.70517   0.64323   0.47669   0.00000  Uiso   1.00
H211   H     0.91080   0.60120   0.26155   0.00000  Uiso   1.00
H212   H     0.65816   0.44701   0.26538   0.00000  Uiso   1.00
H213   H     0.61200   0.70734   0.55725   0.00000  Uiso   1.00
H214   H     0.04561   0.61870   0.10360   0.00000  Uiso   1.00
H215   H     0.68715   0.61849   0.84059   0.00000  Uiso   1.00
H216   H     0.63070   0.55101   0.80618   0.00000  Uiso   1.00
H217   H     0.60879   0.67447   0.94462   0.00000  Uiso   1.00
H218   H     0.81442   0.63244   0.72948   0.00000  Uiso   1.00
H219   H     0.57993   0.47237   0.83353   0.00000  Uiso   1.00
H220   H     0.53378   0.73269   0.12540   0.00000  Uiso   1.00
H221   H     0.96739   0.64406   0.67175   0.00000  Uiso   1.00
O222   O     0.58353   0.41477   0.03594   0.00000  Uiso   1.00
O223   O     0.52299   0.75631   0.41886   0.00000  Uiso   1.00
O224   O     0.09188   0.64002   0.82369   0.00000  Uiso   1.00
N225   N     0.64751   0.46224   0.16845   0.00000  Uiso   1.00
N226   N     0.60434   0.70562   0.44134   0.00000  Uiso   1.00
N227   N     0.00973   0.62276   0.01722   0.00000  Uiso   1.00
N228   N     0.60542   0.47588   0.93607   0.00000  Uiso   1.00
N229   N     0.56225   0.71926   0.20896   0.00000  Uiso   1.00
N230   N     0.96764   0.63641   0.78485   0.00000  Uiso   1.00
C231   C     0.74242   0.40435   0.72942   0.00000  Uiso   1.00
C232   C     0.78303   0.43778   0.65582   0.00000  Uiso   1.00
C233   C     0.79374   0.47349   0.72339   0.00000  Uiso   1.00
C234   C     0.83234   0.50022   0.63717   0.00000  Uiso   1.00
C235   C     0.89134   0.55345   0.54549   0.00000  Uiso   1.00
C236   C     0.79494   0.37071   0.73104   0.00000  Uiso   1.00
C237   C     0.81565   0.35002   0.86184   0.00000  Uiso   1.00
C238   C     0.86427   0.32028   0.83893   0.00000  Uiso   1.00
C239   C     0.94171   0.26936   0.86401   0.00000  Uiso   1.00
C240   C     0.68322   0.39355   0.61415   0.00000  Uiso   1.00
C241   C     0.60999   0.39206   0.64668   0.00000  Uiso   1.00
C242   C     0.56454   0.38154   0.52536   0.00000  Uiso   1.00
C243   C     0.46851   0.36609   0.36896   0.00000  Uiso   1.00
C244   C     0.79192   0.38830   0.45615   0.00000  Uiso   1.00
C245   C     0.80992   0.42906   0.50739   0.00000  Uiso   1.00
C246   C     0.84851   0.45574   0.42104   0.00000  Uiso   1.00
C247   C     0.85927   0.49149   0.48847   0.00000  Uiso   1.00
C248   C     0.82183   0.36199   0.58261   0.00000  Uiso   1.00
C249   C     0.87042   0.33227   0.55950   0.00000  Uiso   1.00
C250   C     0.89120   0.31154   0.69023   0.00000  Uiso   1.00
C251   C     0.71010   0.38483   0.46571   0.00000  Uiso   1.00
C252   C     0.66475   0.37431   0.34433   0.00000  Uiso   1.00
C253   C     0.59147   0.37280   0.37666   0.00000  Uiso   1.00
H254   H     0.72149   0.41113   0.84498   0.00000  Uiso   1.00
H255   H     0.77293   0.48023   0.83826   0.00000  Uiso   1.00
H256   H     0.79483   0.35677   0.97669   0.00000  Uiso   1.00
H257   H     0.58920   0.39880   0.76155   0.00000  Uiso   1.00
H258   H     0.84184   0.55299   0.76538   0.00000  Uiso   1.00
H259   H     0.88800   0.29266   0.05725   0.00000  Uiso   1.00
H260   H     0.45439   0.38130   0.60360   0.00000  Uiso   1.00
H261   H     0.81285   0.38151   0.34059   0.00000  Uiso   1.00
H262   H     0.86930   0.44899   0.30618   0.00000  Uiso   1.00
H263   H     0.89121   0.32553   0.44462   0.00000  Uiso   1.00
H264   H     0.68558   0.36756   0.22948   0.00000  Uiso   1.00
H265   H     0.92007   0.52763   0.33353   0.00000  Uiso   1.00
H266   H     0.96622   0.26731   0.62540   0.00000  Uiso   1.00
H267   H     0.53261   0.35594   0.17175   0.00000  Uiso   1.00
O268   O     0.91647   0.58523   0.53594   0.00000  Uiso   1.00
O269   O     0.97701   0.24369   0.91886   0.00000  Uiso   1.00
O270   O     0.40812   0.35998   0.32369   0.00000  Uiso   1.00
N271   N     0.85249   0.53776   0.66845   0.00000  Uiso   1.00
N272   N     0.89566   0.29438   0.94134   0.00000  Uiso   1.00
N273   N     0.49027   0.37724   0.51722   0.00000  Uiso   1.00
N274   N     0.89458   0.52412   0.43607   0.00000  Uiso   1.00
N275   N     0.93775   0.28074   0.70896   0.00000  Uiso   1.00
N276   N     0.53236   0.36359   0.28485   0.00000  Uiso   1.00
C277   C     0.24242   0.09565   0.27058   0.00000  Uiso   1.00
C278   C     0.28303   0.06222   0.34418   0.00000  Uiso   1.00
C279   C     0.29374   0.02651   0.27661   0.00000  Uiso   1.00
C280   C     0.33234   0.99978   0.36283   0.00000  Uiso   1.00
C281   C     0.39134   0.94655   0.45451   0.00000  Uiso   1.00
C282   C     0.29494   0.12929   0.26896   0.00000  Uiso   1.00
C283   C     0.31565   0.14998   0.13816   0.00000  Uiso   1.00
C284   C     0.36427   0.17972   0.16107   0.00000  Uiso   1.00
C285   C     0.44171   0.23064   0.13599   0.00000  Uiso   1.00
C286   C     0.18322   0.10645   0.38585   0.00000  Uiso   1.00
C287   C     0.10999   0.10794   0.35332   0.00000  Uiso   1.00
C288   C     0.06454   0.11846   0.47464   0.00000  Uiso   1.00
C289   C     0.96851   0.13391   0.63104   0.00000  Uiso   1.00
C290   C     0.29192   0.11170   0.54385   0.00000  Uiso   1.00
C291   C     0.30992   0.07094   0.49261   0.00000  Uiso   1.00
C292   C     0.34851   0.04426   0.57896   0.00000  Uiso   1.00
C293   C     0.35927   0.00851   0.51153   0.00000  Uiso   1.00
C294   C     0.32183   0.13801   0.41739   0.00000  Uiso   1.00
C295   C     0.37042   0.16773   0.44050   0.00000  Uiso   1.00
C296   C     0.39120   0.18846   0.30977   0.00000  Uiso   1.00
C297   C     0.21010   0.11517   0.53429   0.00000  Uiso   1.00
C298   C     0.16475   0.12569   0.65567   0.00000  Uiso   1.00
C299   C     0.09147   0.12720   0.62334   0.00000  Uiso   1.00
H300   H     0.22149   0.08887   0.15502   0.00000  Uiso   1.00
H301   H     0.27293   0.01977   0.16174   0.00000  Uiso   1.00
H302   H     0.29483   0.14323   0.02331   0.00000  Uiso   1.00
H303   H     0.08920   0.10120   0.23845   0.00000  Uiso   1.00
H304   H     0.34184   0.94701   0.23462   0.00000  Uiso   1.00
H305   H     0.38800   0.20734   0.94275   0.00000  Uiso   1.00
H306   H     0.95439   0.11870   0.39640   0.00000  Uiso   1.00
H307   H     0.31285   0.11849   0.65941   0.00000  Uiso   1.00
H308   H     0.36930   0.05101   0.69382   0.00000  Uiso   1.00
H309   H     0.39121   0.17447   0.55538   0.00000  Uiso   1.00
H310   H     0.18558   0.13244   0.77052   0.00000  Uiso   1.00
H311   H     0.42007   0.97237   0.66647   0.00000  Uiso   1.00
H312   H     0.46622   0.23269   0.37460   0.00000  Uiso   1.00
H313   H     0.03261   0.14406   0.82825   0.00000  Uiso   1.00
O314   O     0.41647   0.91477   0.46406   0.00000  Uiso   1.00
O315   O     0.47701   0.25631   0.08114   0.00000  Uiso   1.00
O316   O     0.90812   0.14002   0.67631   0.00000  Uiso   1.00
N317   N     0.35249   0.96224   0.33155   0.00000  Uiso   1.00
N318   N     0.39566   0.20562   0.05866   0.00000  Uiso   1.00
N319   N     0.99027   0.12276   0.48278   0.00000  Uiso   1.00
N320   N     0.39458   0.97588   0.56393   0.00000  Uiso   1.00
N321   N     0.43775   0.21926   0.29104   0.00000  Uiso   1.00
N322   N     0.03236   0.13641   0.71515   0.00000  Uiso   1.00
C323   C     0.25758   0.90435   0.77058   0.00000  Uiso   1.00
C324   C     0.21697   0.93778   0.84418   0.00000  Uiso   1.00
C325   C     0.20626   0.97349   0.77661   0.00000  Uiso   1.00
C326   C     0.16766   0.00022   0.86283   0.00000  Uiso   1.00
C327   C     0.10866   0.05345   0.95451   0.00000  Uiso   1.00
C328   C     0.20506   0.87071   0.76896   0.00000  Uiso   1.00
C329   C     0.18435   0.85002   0.63816   0.00000  Uiso   1.00
C330   C     0.13573   0.82028   0.66107   0.00000  Uiso   1.00
C331   C     0.05829   0.76936   0.63599   0.00000  Uiso   1.00
C332   C     0.31678   0.89355   0.88585   0.00000  Uiso   1.00
C333   C     0.39001   0.89206   0.85332   0.00000  Uiso   1.00
C334   C     0.43546   0.88154   0.97464   0.00000  Uiso   1.00
C335   C     0.53149   0.86609   0.13104   0.00000  Uiso   1.00
C336   C     0.20808   0.88830   0.04385   0.00000  Uiso   1.00
C337   C     0.19008   0.92906   0.99261   0.00000  Uiso   1.00
C338   C     0.15149   0.95574   0.07896   0.00000  Uiso   1.00
C339   C     0.14073   0.99149   0.01153   0.00000  Uiso   1.00
C340   C     0.17817   0.86199   0.91739   0.00000  Uiso   1.00
C341   C     0.12958   0.83227   0.94050   0.00000  Uiso   1.00
C342   C     0.10880   0.81154   0.80977   0.00000  Uiso   1.00
C343   C     0.28990   0.88483   0.03429   0.00000  Uiso   1.00
C344   C     0.33525   0.87431   0.15567   0.00000  Uiso   1.00
C345   C     0.40853   0.87280   0.12334   0.00000  Uiso   1.00
H346   H     0.27851   0.91113   0.65502   0.00000  Uiso   1.00
H347   H     0.22707   0.98023   0.66174   0.00000  Uiso   1.00
H348   H     0.20517   0.85677   0.52331   0.00000  Uiso   1.00
H349   H     0.41080   0.89880   0.73845   0.00000  Uiso   1.00
H350   H     0.15816   0.05299   0.73462   0.00000  Uiso   1.00
H351   H     0.11200   0.79266   0.44275   0.00000  Uiso   1.00
H352   H     0.54561   0.88130   0.89640   0.00000  Uiso   1.00
H353   H     0.18715   0.88151   0.15941   0.00000  Uiso   1.00
H354   H     0.13070   0.94899   0.19382   0.00000  Uiso   1.00
H355   H     0.10879   0.82553   0.05538   0.00000  Uiso   1.00
H356   H     0.31442   0.86756   0.27052   0.00000  Uiso   1.00
H357   H     0.07993   0.02763   0.16647   0.00000  Uiso   1.00
H358   H     0.03378   0.76731   0.87460   0.00000  Uiso   1.00
H359   H     0.46739   0.85594   0.32825   0.00000  Uiso   1.00
O360   O     0.08353   0.08523   0.96406   0.00000  Uiso   1.00
O361   O     0.02299   0.74369   0.58114   0.00000  Uiso   1.00
O362   O     0.59188   0.85998   0.17631   0.00000  Uiso   1.00
N363   N     0.14751   0.03776   0.83155   0.00000  Uiso   1.00
N364   N     0.10434   0.79438   0.55866   0.00000  Uiso   1.00
N365   N     0.50973   0.87724   0.98278   0.00000  Uiso   1.00
N366   N     0.10542   0.02412   0.06393   0.00000  Uiso   1.00
N367   N     0.06225   0.78074   0.79104   0.00000  Uiso   1.00
N368   N     0.46764   0.86359   0.21515   0.00000  Uiso   1.00
