data_job_04913
_audit_creation_date              2018-12-19
_audit_creation_method            'Materials Studio'
_symmetry_space_group_name_H-M    'P1'
_symmetry_Int_Tables_number       1
_symmetry_cell_setting            triclinic
loop_
_symmetry_equiv_pos_as_xyz
  x,y,z
_cell_length_a                    12.3239
_cell_length_b                    15.5829
_cell_length_c                    22.1236
_cell_angle_alpha                 90.0000
_cell_angle_beta                  141.9847
_cell_angle_gamma                 90.0000
loop_
_atom_site_label
_atom_site_type_symbol
_atom_site_fract_x
_atom_site_fract_y
_atom_site_fract_z
_atom_site_U_iso_or_equiv
_atom_site_adp_type
_atom_site_occupancy
C1     C     0.27829   0.21484   0.50181   0.00000  Uiso   1.00
C2     C     0.11481   0.17078   0.40472   0.00000  Uiso   1.00
C3     C     0.09572   0.08328   0.38668   0.00000  Uiso   1.00
C4     C     0.93592   0.05564   0.29302   0.00000  Uiso   1.00
C5     C     0.70275   0.97842   0.15335   0.00000  Uiso   1.00
C6     C     0.33212   0.28174   0.47863   0.00000  Uiso   1.00
C7     C     0.49575   0.28753   0.52274   0.00000  Uiso   1.00
C8     C     0.51887   0.35331   0.49131   0.00000  Uiso   1.00
C9     C     0.62312   0.44839   0.46643   0.00000  Uiso   1.00
C10    C     0.21672   0.26501   0.53006   0.00000  Uiso   1.00
C11    C     0.28335   0.25677   0.61743   0.00000  Uiso   1.00
C12    C     0.20934   0.30848   0.62931   0.00000  Uiso   1.00
C13    C     0.13441   0.37759   0.68430   0.00000  Uiso   1.00
C14    C     0.02842   0.32136   0.36755   0.00000  Uiso   1.00
C15    C     0.97909   0.22863   0.33180   0.00000  Uiso   1.00
C16    C     0.81927   0.20112   0.23815   0.00000  Uiso   1.00
C17    C     0.79995   0.11359   0.21997   0.00000  Uiso   1.00
C18    C     0.19640   0.33959   0.40571   0.00000  Uiso   1.00
C19    C     0.21929   0.40538   0.37421   0.00000  Uiso   1.00
C20    C     0.38291   0.41127   0.41825   0.00000  Uiso   1.00
C21    C     0.08099   0.32287   0.45714   0.00000  Uiso   1.00
C22    C     0.00688   0.37461   0.46889   0.00000  Uiso   1.00
C23    C     0.07338   0.36644   0.55626   0.00000  Uiso   1.00
H24    H     0.38396   0.16981   0.55858   0.00000  Uiso   1.00
H25    H     0.20080   0.03853   0.44313   0.00000  Uiso   1.00
H26    H     0.60075   0.24276   0.57918   0.00000  Uiso   1.00
H27    H     0.38837   0.21199   0.67385   0.00000  Uiso   1.00
H28    H     0.93789   0.91849   0.28296   0.00000  Uiso   1.00
H29    H     0.78125   0.34914   0.56985   0.00000  Uiso   1.00
H30    H     0.33342   0.28427   0.76949   0.00000  Uiso   1.00
H31    H     0.92275   0.36640   0.31078   0.00000  Uiso   1.00
H32    H     0.71427   0.24590   0.18173   0.00000  Uiso   1.00
H33    H     0.11424   0.45014   0.31778   0.00000  Uiso   1.00
H34    H     0.90186   0.41937   0.41245   0.00000  Uiso   1.00
H35    H     0.54301   0.08681   0.07080   0.00000  Uiso   1.00
H36    H     0.38638   0.51746   0.35769   0.00000  Uiso   1.00
H37    H     0.93854   0.45259   0.55732   0.00000  Uiso   1.00
O38    O     0.61165   0.91984   0.09645   0.00000  Uiso   1.00
O39    O     0.71811   0.48485   0.47285   0.00000  Uiso   1.00
O40    O     0.13056   0.39973   0.73476   0.00000  Uiso   1.00
N41    N     0.87355   0.97464   0.25075   0.00000  Uiso   1.00
N42    N     0.66204   0.37727   0.51896   0.00000  Uiso   1.00
N43    N     0.24338   0.31663   0.70561   0.00000  Uiso   1.00
N44    N     0.66107   0.06521   0.13659   0.00000  Uiso   1.00
N45    N     0.44956   0.46784   0.40480   0.00000  Uiso   1.00
N46    N     0.03090   0.40720   0.59145   0.00000  Uiso   1.00
C47    C     0.72171   0.21484   0.99819   0.00000  Uiso   1.00
C48    C     0.88519   0.17078   0.09528   0.00000  Uiso   1.00
C49    C     0.90428   0.08328   0.11332   0.00000  Uiso   1.00
C50    C     0.06408   0.05564   0.20698   0.00000  Uiso   1.00
C51    C     0.29725   0.97842   0.34665   0.00000  Uiso   1.00
C52    C     0.66788   0.28174   0.02137   0.00000  Uiso   1.00
C53    C     0.50425   0.28753   0.97726   0.00000  Uiso   1.00
C54    C     0.48113   0.35331   0.00869   0.00000  Uiso   1.00
C55    C     0.37688   0.44839   0.03357   0.00000  Uiso   1.00
C56    C     0.78328   0.26501   0.96994   0.00000  Uiso   1.00
C57    C     0.71665   0.25677   0.88257   0.00000  Uiso   1.00
C58    C     0.79066   0.30848   0.87069   0.00000  Uiso   1.00
C59    C     0.86559   0.37759   0.81570   0.00000  Uiso   1.00
C60    C     0.97158   0.32136   0.13245   0.00000  Uiso   1.00
C61    C     0.02091   0.22863   0.16820   0.00000  Uiso   1.00
C62    C     0.18073   0.20112   0.26185   0.00000  Uiso   1.00
C63    C     0.20005   0.11359   0.28003   0.00000  Uiso   1.00
C64    C     0.80360   0.33959   0.09429   0.00000  Uiso   1.00
C65    C     0.78071   0.40538   0.12579   0.00000  Uiso   1.00
C66    C     0.61709   0.41127   0.08175   0.00000  Uiso   1.00
C67    C     0.91901   0.32287   0.04286   0.00000  Uiso   1.00
C68    C     0.99312   0.37461   0.03111   0.00000  Uiso   1.00
C69    C     0.92662   0.36644   0.94374   0.00000  Uiso   1.00
H70    H     0.61604   0.16981   0.94142   0.00000  Uiso   1.00
H71    H     0.79920   0.03853   0.05687   0.00000  Uiso   1.00
H72    H     0.39925   0.24276   0.92082   0.00000  Uiso   1.00
H73    H     0.61163   0.21199   0.82615   0.00000  Uiso   1.00
H74    H     0.06211   0.91849   0.21704   0.00000  Uiso   1.00
H75    H     0.21875   0.34914   0.93015   0.00000  Uiso   1.00
H76    H     0.66658   0.28427   0.73051   0.00000  Uiso   1.00
H77    H     0.07725   0.36640   0.18922   0.00000  Uiso   1.00
H78    H     0.28573   0.24590   0.31827   0.00000  Uiso   1.00
H79    H     0.88576   0.45014   0.18222   0.00000  Uiso   1.00
H80    H     0.09814   0.41937   0.08755   0.00000  Uiso   1.00
H81    H     0.45699   0.08681   0.42920   0.00000  Uiso   1.00
H82    H     0.61362   0.51746   0.14231   0.00000  Uiso   1.00
H83    H     0.06146   0.45259   0.94268   0.00000  Uiso   1.00
O84    O     0.38835   0.91984   0.40355   0.00000  Uiso   1.00
O85    O     0.28189   0.48485   0.02715   0.00000  Uiso   1.00
O86    O     0.86944   0.39973   0.76524   0.00000  Uiso   1.00
N87    N     0.12645   0.97464   0.24925   0.00000  Uiso   1.00
N88    N     0.33796   0.37727   0.98104   0.00000  Uiso   1.00
N89    N     0.75662   0.31663   0.79439   0.00000  Uiso   1.00
N90    N     0.33893   0.06521   0.36341   0.00000  Uiso   1.00
N91    N     0.55044   0.46784   0.09520   0.00000  Uiso   1.00
N92    N     0.96910   0.40720   0.90855   0.00000  Uiso   1.00
C93    C     0.72171   0.78516   0.49819   0.00000  Uiso   1.00
C94    C     0.88519   0.82922   0.59528   0.00000  Uiso   1.00
C95    C     0.90428   0.91672   0.61332   0.00000  Uiso   1.00
C96    C     0.06408   0.94436   0.70698   0.00000  Uiso   1.00
C97    C     0.29725   0.02158   0.84665   0.00000  Uiso   1.00
C98    C     0.66788   0.71826   0.52137   0.00000  Uiso   1.00
C99    C     0.50425   0.71247   0.47726   0.00000  Uiso   1.00
C100   C     0.48113   0.64669   0.50869   0.00000  Uiso   1.00
C101   C     0.37688   0.55161   0.53357   0.00000  Uiso   1.00
C102   C     0.78328   0.73499   0.46994   0.00000  Uiso   1.00
C103   C     0.71665   0.74323   0.38257   0.00000  Uiso   1.00
C104   C     0.79066   0.69152   0.37069   0.00000  Uiso   1.00
C105   C     0.86559   0.62241   0.31570   0.00000  Uiso   1.00
C106   C     0.97158   0.67864   0.63245   0.00000  Uiso   1.00
C107   C     0.02091   0.77137   0.66820   0.00000  Uiso   1.00
C108   C     0.18073   0.79888   0.76185   0.00000  Uiso   1.00
C109   C     0.20005   0.88641   0.78003   0.00000  Uiso   1.00
C110   C     0.80360   0.66041   0.59429   0.00000  Uiso   1.00
C111   C     0.78071   0.59462   0.62579   0.00000  Uiso   1.00
C112   C     0.61709   0.58873   0.58175   0.00000  Uiso   1.00
C113   C     0.91901   0.67713   0.54286   0.00000  Uiso   1.00
C114   C     0.99312   0.62539   0.53111   0.00000  Uiso   1.00
C115   C     0.92662   0.63356   0.44374   0.00000  Uiso   1.00
H116   H     0.61604   0.83019   0.44142   0.00000  Uiso   1.00
H117   H     0.79920   0.96147   0.55687   0.00000  Uiso   1.00
H118   H     0.39925   0.75724   0.42082   0.00000  Uiso   1.00
H119   H     0.61163   0.78801   0.32615   0.00000  Uiso   1.00
H120   H     0.06211   0.08151   0.71704   0.00000  Uiso   1.00
H121   H     0.21875   0.65086   0.43015   0.00000  Uiso   1.00
H122   H     0.66658   0.71573   0.23051   0.00000  Uiso   1.00
H123   H     0.07725   0.63360   0.68922   0.00000  Uiso   1.00
H124   H     0.28573   0.75410   0.81827   0.00000  Uiso   1.00
H125   H     0.88576   0.54986   0.68222   0.00000  Uiso   1.00
H126   H     0.09814   0.58063   0.58755   0.00000  Uiso   1.00
H127   H     0.45699   0.91319   0.92920   0.00000  Uiso   1.00
H128   H     0.61362   0.48254   0.64231   0.00000  Uiso   1.00
H129   H     0.06146   0.54741   0.44268   0.00000  Uiso   1.00
O130   O     0.38835   0.08016   0.90355   0.00000  Uiso   1.00
O131   O     0.28189   0.51515   0.52715   0.00000  Uiso   1.00
O132   O     0.86944   0.60027   0.26524   0.00000  Uiso   1.00
N133   N     0.12645   0.02536   0.74925   0.00000  Uiso   1.00
N134   N     0.33796   0.62273   0.48104   0.00000  Uiso   1.00
N135   N     0.75662   0.68337   0.29439   0.00000  Uiso   1.00
N136   N     0.33893   0.93479   0.86341   0.00000  Uiso   1.00
N137   N     0.55044   0.53216   0.59520   0.00000  Uiso   1.00
N138   N     0.96910   0.59280   0.40855   0.00000  Uiso   1.00
C139   C     0.27829   0.78516   0.00181   0.00000  Uiso   1.00
C140   C     0.11481   0.82922   0.90472   0.00000  Uiso   1.00
C141   C     0.09572   0.91672   0.88668   0.00000  Uiso   1.00
C142   C     0.93592   0.94436   0.79302   0.00000  Uiso   1.00
C143   C     0.70275   0.02158   0.65335   0.00000  Uiso   1.00
C144   C     0.33212   0.71826   0.97863   0.00000  Uiso   1.00
C145   C     0.49575   0.71247   0.02274   0.00000  Uiso   1.00
C146   C     0.51887   0.64669   0.99131   0.00000  Uiso   1.00
C147   C     0.62312   0.55161   0.96643   0.00000  Uiso   1.00
C148   C     0.21672   0.73499   0.03006   0.00000  Uiso   1.00
C149   C     0.28335   0.74323   0.11743   0.00000  Uiso   1.00
C150   C     0.20934   0.69152   0.12931   0.00000  Uiso   1.00
C151   C     0.13441   0.62241   0.18430   0.00000  Uiso   1.00
C152   C     0.02842   0.67864   0.86755   0.00000  Uiso   1.00
C153   C     0.97909   0.77137   0.83180   0.00000  Uiso   1.00
C154   C     0.81927   0.79888   0.73815   0.00000  Uiso   1.00
C155   C     0.79995   0.88641   0.71997   0.00000  Uiso   1.00
C156   C     0.19640   0.66041   0.90571   0.00000  Uiso   1.00
C157   C     0.21929   0.59462   0.87421   0.00000  Uiso   1.00
C158   C     0.38291   0.58873   0.91825   0.00000  Uiso   1.00
C159   C     0.08099   0.67713   0.95714   0.00000  Uiso   1.00
C160   C     0.00688   0.62539   0.96889   0.00000  Uiso   1.00
C161   C     0.07338   0.63356   0.05626   0.00000  Uiso   1.00
H162   H     0.38396   0.83019   0.05858   0.00000  Uiso   1.00
H163   H     0.20080   0.96147   0.94313   0.00000  Uiso   1.00
H164   H     0.60075   0.75724   0.07918   0.00000  Uiso   1.00
H165   H     0.38837   0.78801   0.17385   0.00000  Uiso   1.00
H166   H     0.93789   0.08151   0.78296   0.00000  Uiso   1.00
H167   H     0.78125   0.65086   0.06985   0.00000  Uiso   1.00
H168   H     0.33342   0.71573   0.26949   0.00000  Uiso   1.00
H169   H     0.92275   0.63360   0.81078   0.00000  Uiso   1.00
H170   H     0.71427   0.75410   0.68173   0.00000  Uiso   1.00
H171   H     0.11424   0.54986   0.81778   0.00000  Uiso   1.00
H172   H     0.90186   0.58063   0.91245   0.00000  Uiso   1.00
H173   H     0.54301   0.91319   0.57080   0.00000  Uiso   1.00
H174   H     0.38638   0.48254   0.85769   0.00000  Uiso   1.00
H175   H     0.93854   0.54741   0.05732   0.00000  Uiso   1.00
O176   O     0.61165   0.08016   0.59645   0.00000  Uiso   1.00
O177   O     0.71811   0.51515   0.97285   0.00000  Uiso   1.00
O178   O     0.13056   0.60027   0.23476   0.00000  Uiso   1.00
N179   N     0.87355   0.02536   0.75075   0.00000  Uiso   1.00
N180   N     0.66204   0.62273   0.01896   0.00000  Uiso   1.00
N181   N     0.24338   0.68337   0.20561   0.00000  Uiso   1.00
N182   N     0.66107   0.93479   0.63659   0.00000  Uiso   1.00
N183   N     0.44956   0.53216   0.90480   0.00000  Uiso   1.00
N184   N     0.03090   0.59280   0.09145   0.00000  Uiso   1.00
