data_job_06184
_audit_creation_date              2018-12-19
_audit_creation_method            'Materials Studio'
_symmetry_space_group_name_H-M    'P1'
_symmetry_Int_Tables_number       1
_symmetry_cell_setting            triclinic
loop_
_symmetry_equiv_pos_as_xyz
  x,y,z
_cell_length_a                    17.1517
_cell_length_b                    16.7794
_cell_length_c                    16.2003
_cell_angle_alpha                 104.1320
_cell_angle_beta                  104.2920
_cell_angle_gamma                 103.8190
loop_
_atom_site_label
_atom_site_type_symbol
_atom_site_fract_x
_atom_site_fract_y
_atom_site_fract_z
_atom_site_U_iso_or_equiv
_atom_site_adp_type
_atom_site_occupancy
C1     C     0.96082   0.41648   0.76626   0.00000  Uiso   1.00
C2     C     0.89979   0.42542   0.81967   0.00000  Uiso   1.00
C3     C     0.91956   0.48495   0.90411   0.00000  Uiso   1.00
C4     C     0.85486   0.48272   0.94166   0.00000  Uiso   1.00
C5     C     0.77251   0.50564   0.03151   0.00000  Uiso   1.00
C6     C     0.96026   0.32265   0.74596   0.00000  Uiso   1.00
C7     C     0.03088   0.29578   0.76842   0.00000  Uiso   1.00
C8     C     0.01708   0.20703   0.74392   0.00000  Uiso   1.00
C9     C     0.02863   0.07041   0.71928   0.00000  Uiso   1.00
C10    C     0.91957   0.42610   0.67597   0.00000  Uiso   1.00
C11    C     0.95598   0.48619   0.63955   0.00000  Uiso   1.00
C12    C     0.90793   0.48452   0.55611   0.00000  Uiso   1.00
C13    C     0.85629   0.50852   0.42279   0.00000  Uiso   1.00
C14    C     0.81076   0.30665   0.68281   0.00000  Uiso   1.00
C15    C     0.81829   0.36577   0.77434   0.00000  Uiso   1.00
C16    C     0.75354   0.36344   0.81177   0.00000  Uiso   1.00
C17    C     0.77321   0.42296   0.89625   0.00000  Uiso   1.00
C18    C     0.87876   0.26300   0.70064   0.00000  Uiso   1.00
C19    C     0.86486   0.17427   0.67609   0.00000  Uiso   1.00
C20    C     0.93543   0.14727   0.69851   0.00000  Uiso   1.00
C21    C     0.83806   0.36645   0.63064   0.00000  Uiso   1.00
C22    C     0.78995   0.36468   0.54723   0.00000  Uiso   1.00
C23    C     0.82628   0.42476   0.51070   0.00000  Uiso   1.00
H24    H     0.02427   0.46292   0.80155   0.00000  Uiso   1.00
H25    H     0.98265   0.53110   0.93917   0.00000  Uiso   1.00
H26    H     0.09394   0.34196   0.80349   0.00000  Uiso   1.00
H27    H     0.01905   0.53234   0.67465   0.00000  Uiso   1.00
H28    H     0.90056   0.58036   0.07176   0.00000  Uiso   1.00
H29    H     0.13524   0.18155   0.78566   0.00000  Uiso   1.00
H30    H     0.97732   0.58301   0.51397   0.00000  Uiso   1.00
H31    H     0.74730   0.26021   0.64751   0.00000  Uiso   1.00
H32    H     0.69047   0.31727   0.77668   0.00000  Uiso   1.00
H33    H     0.80178   0.12813   0.64101   0.00000  Uiso   1.00
H34    H     0.72688   0.31851   0.51217   0.00000  Uiso   1.00
H35    H     0.66342   0.40681   0.93989   0.00000  Uiso   1.00
H36    H     0.89811   0.00799   0.65378   0.00000  Uiso   1.00
H37    H     0.74018   0.40945   0.38210   0.00000  Uiso   1.00
O38    O     0.74961   0.53476   0.09359   0.00000  Uiso   1.00
O39    O     0.05751   0.01153   0.71822   0.00000  Uiso   1.00
O40    O     0.85031   0.53824   0.36177   0.00000  Uiso   1.00
N41    N     0.85254   0.53170   0.02299   0.00000  Uiso   1.00
N42    N     0.07196   0.15883   0.75552   0.00000  Uiso   1.00
N43    N     0.92432   0.53415   0.50150   0.00000  Uiso   1.00
N44    N     0.72494   0.43831   0.95203   0.00000  Uiso   1.00
N45    N     0.94436   0.06544   0.68455   0.00000  Uiso   1.00
N46    N     0.79672   0.44076   0.43054   0.00000  Uiso   1.00
C47    C     0.76219   0.96098   0.41587   0.00000  Uiso   1.00
C48    C     0.81265   0.89826   0.42485   0.00000  Uiso   1.00
C49    C     0.89245   0.91814   0.48648   0.00000  Uiso   1.00
C50    C     0.92793   0.85173   0.48389   0.00000  Uiso   1.00
C51    C     0.01282   0.76702   0.50724   0.00000  Uiso   1.00
C52    C     0.74267   0.96018   0.31854   0.00000  Uiso   1.00
C53    C     0.76361   0.03213   0.29079   0.00000  Uiso   1.00
C54    C     0.74016   0.01783   0.19870   0.00000  Uiso   1.00
C55    C     0.71634   0.02926   0.05700   0.00000  Uiso   1.00
C56    C     0.67721   0.91945   0.42596   0.00000  Uiso   1.00
C57    C     0.64310   0.95716   0.48851   0.00000  Uiso   1.00
C58    C     0.56453   0.90858   0.48686   0.00000  Uiso   1.00
C59    C     0.43907   0.85677   0.51195   0.00000  Uiso   1.00
C60    C     0.68331   0.80768   0.30168   0.00000  Uiso   1.00
C61    C     0.76980   0.81499   0.36282   0.00000  Uiso   1.00
C62    C     0.80517   0.74853   0.36014   0.00000  Uiso   1.00
C63    C     0.88500   0.76831   0.42176   0.00000  Uiso   1.00
C64    C     0.69982   0.87692   0.25651   0.00000  Uiso   1.00
C65    C     0.67633   0.86252   0.16445   0.00000  Uiso   1.00
C66    C     0.69724   0.93442   0.13656   0.00000  Uiso   1.00
C67    C     0.63436   0.83618   0.36394   0.00000  Uiso   1.00
C68    C     0.55582   0.78754   0.36218   0.00000  Uiso   1.00
C69    C     0.52160   0.82517   0.42472   0.00000  Uiso   1.00
H70    H     0.79555   0.02581   0.46415   0.00000  Uiso   1.00
H71    H     0.92559   0.98260   0.53446   0.00000  Uiso   1.00
H72    H     0.79676   0.09655   0.33880   0.00000  Uiso   1.00
H73    H     0.67627   0.02160   0.53650   0.00000  Uiso   1.00
H74    H     0.05088   0.89797   0.58504   0.00000  Uiso   1.00
H75    H     0.77921   0.13827   0.17248   0.00000  Uiso   1.00
H76    H     0.52513   0.98020   0.58937   0.00000  Uiso   1.00
H77    H     0.64994   0.74285   0.25339   0.00000  Uiso   1.00
H78    H     0.77200   0.68410   0.31214   0.00000  Uiso   1.00
H79    H     0.64317   0.79807   0.11647   0.00000  Uiso   1.00
H80    H     0.52268   0.72311   0.31417   0.00000  Uiso   1.00
H81    H     0.92622   0.65570   0.40459   0.00000  Uiso   1.00
H82    H     0.65455   0.89601   0.99202   0.00000  Uiso   1.00
H83    H     0.40047   0.73794   0.40891   0.00000  Uiso   1.00
O84    O     0.07148   0.74330   0.53724   0.00000  Uiso   1.00
O85    O     0.71504   0.05857   0.99598   0.00000  Uiso   1.00
O86    O     0.38171   0.85119   0.54293   0.00000  Uiso   1.00
N87    N     0.00479   0.84901   0.53452   0.00000  Uiso   1.00
N88    N     0.75080   0.07367   0.14880   0.00000  Uiso   1.00
N89    N     0.51325   0.92591   0.53854   0.00000  Uiso   1.00
N90    N     0.93770   0.71865   0.43742   0.00000  Uiso   1.00
N91    N     0.68372   0.94331   0.05170   0.00000  Uiso   1.00
N92    N     0.44617   0.79555   0.44144   0.00000  Uiso   1.00
C93    C     0.41690   0.76394   0.96227   0.00000  Uiso   1.00
C94    C     0.42502   0.81522   0.89729   0.00000  Uiso   1.00
C95    C     0.48307   0.89648   0.91799   0.00000  Uiso   1.00
C96    C     0.48029   0.93251   0.84917   0.00000  Uiso   1.00
C97    C     0.50180   0.01881   0.76143   0.00000  Uiso   1.00
C98    C     0.32521   0.74462   0.96162   0.00000  Uiso   1.00
C99    C     0.29933   0.76651   0.03641   0.00000  Uiso   1.00
C100   C     0.21253   0.74310   0.02174   0.00000  Uiso   1.00
C101   C     0.07908   0.71974   0.03389   0.00000  Uiso   1.00
C102   C     0.42636   0.67681   0.91890   0.00000  Uiso   1.00
C103   C     0.48553   0.64166   0.95779   0.00000  Uiso   1.00
C104   C     0.48387   0.56115   0.90717   0.00000  Uiso   1.00
C105   C     0.50749   0.43250   0.85299   0.00000  Uiso   1.00
C106   C     0.30876   0.68344   0.80322   0.00000  Uiso   1.00
C107   C     0.36628   0.77150   0.81090   0.00000  Uiso   1.00
C108   C     0.36341   0.80742   0.74203   0.00000  Uiso   1.00
C109   C     0.42144   0.88871   0.76263   0.00000  Uiso   1.00
C110   C     0.26646   0.70090   0.87524   0.00000  Uiso   1.00
C111   C     0.17968   0.67745   0.86045   0.00000  Uiso   1.00
C112   C     0.15368   0.69930   0.93520   0.00000  Uiso   1.00
C113   C     0.36762   0.63309   0.83252   0.00000  Uiso   1.00
C114   C     0.36587   0.55260   0.78183   0.00000  Uiso   1.00
C115   C     0.42502   0.51735   0.82063   0.00000  Uiso   1.00
H116   H     0.46263   0.79798   0.02952   0.00000  Uiso   1.00
H117   H     0.52851   0.93030   0.98485   0.00000  Uiso   1.00
H118   H     0.34480   0.80034   0.10326   0.00000  Uiso   1.00
H119   H     0.53097   0.67552   0.02464   0.00000  Uiso   1.00
H120   H     0.57562   0.05773   0.89724   0.00000  Uiso   1.00
H121   H     0.18827   0.78368   0.14691   0.00000  Uiso   1.00
H122   H     0.58084   0.52047   0.98114   0.00000  Uiso   1.00
H123   H     0.26302   0.64940   0.73597   0.00000  Uiso   1.00
H124   H     0.31795   0.77356   0.67519   0.00000  Uiso   1.00
H125   H     0.13424   0.64361   0.79359   0.00000  Uiso   1.00
H126   H     0.32041   0.51879   0.71498   0.00000  Uiso   1.00
H127   H     0.40472   0.93052   0.64591   0.00000  Uiso   1.00
H128   H     0.01736   0.65646   0.89557   0.00000  Uiso   1.00
H129   H     0.40994   0.39326   0.72980   0.00000  Uiso   1.00
O130   O     0.52989   0.07850   0.73690   0.00000  Uiso   1.00
O131   O     0.02170   0.71894   0.06445   0.00000  Uiso   1.00
O132   O     0.53674   0.37362   0.84697   0.00000  Uiso   1.00
N133   N     0.52787   0.01074   0.84643   0.00000  Uiso   1.00
N134   N     0.16572   0.75453   0.07985   0.00000  Uiso   1.00
N135   N     0.53273   0.50844   0.92488   0.00000  Uiso   1.00
N136   N     0.43591   0.94229   0.71119   0.00000  Uiso   1.00
N137   N     0.07376   0.68608   0.94461   0.00000  Uiso   1.00
N138   N     0.44077   0.43999   0.78964   0.00000  Uiso   1.00
C139   C     0.03918   0.58352   0.23374   0.00000  Uiso   1.00
C140   C     0.10021   0.57458   0.18033   0.00000  Uiso   1.00
C141   C     0.08044   0.51505   0.09590   0.00000  Uiso   1.00
C142   C     0.14514   0.51728   0.05834   0.00000  Uiso   1.00
C143   C     0.22749   0.49436   0.96849   0.00000  Uiso   1.00
C144   C     0.03974   0.67735   0.25404   0.00000  Uiso   1.00
C145   C     0.96912   0.70422   0.23158   0.00000  Uiso   1.00
C146   C     0.98292   0.79297   0.25608   0.00000  Uiso   1.00
C147   C     0.97137   0.92959   0.28072   0.00000  Uiso   1.00
C148   C     0.08043   0.57390   0.32403   0.00000  Uiso   1.00
C149   C     0.04402   0.51381   0.36045   0.00000  Uiso   1.00
C150   C     0.09207   0.51548   0.44389   0.00000  Uiso   1.00
C151   C     0.14371   0.49148   0.57721   0.00000  Uiso   1.00
C152   C     0.18924   0.69334   0.31719   0.00000  Uiso   1.00
C153   C     0.18171   0.63424   0.22566   0.00000  Uiso   1.00
C154   C     0.24646   0.63656   0.18823   0.00000  Uiso   1.00
C155   C     0.22679   0.57704   0.10375   0.00000  Uiso   1.00
C156   C     0.12124   0.73700   0.29936   0.00000  Uiso   1.00
C157   C     0.13514   0.82573   0.32391   0.00000  Uiso   1.00
C158   C     0.06457   0.85273   0.30149   0.00000  Uiso   1.00
C159   C     0.16194   0.63355   0.36936   0.00000  Uiso   1.00
C160   C     0.21005   0.63532   0.45277   0.00000  Uiso   1.00
C161   C     0.17372   0.57524   0.48930   0.00000  Uiso   1.00
H162   H     0.97573   0.53708   0.19845   0.00000  Uiso   1.00
H163   H     0.01735   0.46890   0.06083   0.00000  Uiso   1.00
H164   H     0.90606   0.65804   0.19651   0.00000  Uiso   1.00
H165   H     0.98095   0.46766   0.32535   0.00000  Uiso   1.00
H166   H     0.09944   0.41964   0.92824   0.00000  Uiso   1.00
H167   H     0.86476   0.81845   0.21434   0.00000  Uiso   1.00
H168   H     0.02268   0.41699   0.48603   0.00000  Uiso   1.00
H169   H     0.25270   0.73979   0.35249   0.00000  Uiso   1.00
H170   H     0.30953   0.68273   0.22332   0.00000  Uiso   1.00
H171   H     0.19822   0.87187   0.35899   0.00000  Uiso   1.00
H172   H     0.27312   0.68149   0.48783   0.00000  Uiso   1.00
H173   H     0.33658   0.59319   0.06011   0.00000  Uiso   1.00
H174   H     0.10189   0.99201   0.34622   0.00000  Uiso   1.00
H175   H     0.25982   0.59055   0.61790   0.00000  Uiso   1.00
O176   O     0.25039   0.46524   0.90641   0.00000  Uiso   1.00
O177   O     0.94249   0.98847   0.28178   0.00000  Uiso   1.00
O178   O     0.14969   0.46176   0.63823   0.00000  Uiso   1.00
N179   N     0.14746   0.46830   0.97701   0.00000  Uiso   1.00
N180   N     0.92804   0.84117   0.24448   0.00000  Uiso   1.00
N181   N     0.07568   0.46585   0.49850   0.00000  Uiso   1.00
N182   N     0.27506   0.56169   0.04797   0.00000  Uiso   1.00
N183   N     0.05564   0.93456   0.31545   0.00000  Uiso   1.00
N184   N     0.20328   0.55924   0.56946   0.00000  Uiso   1.00
C185   C     0.23781   0.03902   0.58413   0.00000  Uiso   1.00
C186   C     0.18735   0.10174   0.57515   0.00000  Uiso   1.00
C187   C     0.10755   0.08186   0.51352   0.00000  Uiso   1.00
C188   C     0.07207   0.14827   0.51611   0.00000  Uiso   1.00
C189   C     0.98718   0.23298   0.49276   0.00000  Uiso   1.00
C190   C     0.25733   0.03982   0.68146   0.00000  Uiso   1.00
C191   C     0.23639   0.96787   0.70921   0.00000  Uiso   1.00
C192   C     0.25984   0.98217   0.80130   0.00000  Uiso   1.00
C193   C     0.28366   0.97074   0.94300   0.00000  Uiso   1.00
C194   C     0.32279   0.08055   0.57404   0.00000  Uiso   1.00
C195   C     0.35690   0.04284   0.51149   0.00000  Uiso   1.00
C196   C     0.43547   0.09142   0.51314   0.00000  Uiso   1.00
C197   C     0.56093   0.14323   0.48805   0.00000  Uiso   1.00
C198   C     0.31669   0.19232   0.69832   0.00000  Uiso   1.00
C199   C     0.23020   0.18501   0.63718   0.00000  Uiso   1.00
C200   C     0.19483   0.25147   0.63986   0.00000  Uiso   1.00
C201   C     0.11500   0.23169   0.57824   0.00000  Uiso   1.00
C202   C     0.30018   0.12308   0.74349   0.00000  Uiso   1.00
C203   C     0.32367   0.13748   0.83555   0.00000  Uiso   1.00
C204   C     0.30276   0.06558   0.86344   0.00000  Uiso   1.00
C205   C     0.36564   0.16382   0.63606   0.00000  Uiso   1.00
C206   C     0.44418   0.21246   0.63782   0.00000  Uiso   1.00
C207   C     0.47840   0.17483   0.57528   0.00000  Uiso   1.00
H208   H     0.20445   0.97419   0.53585   0.00000  Uiso   1.00
H209   H     0.07441   0.01740   0.46554   0.00000  Uiso   1.00
H210   H     0.20324   0.90345   0.66120   0.00000  Uiso   1.00
H211   H     0.32373   0.97840   0.46350   0.00000  Uiso   1.00
H212   H     0.94912   0.10203   0.41496   0.00000  Uiso   1.00
H213   H     0.22079   0.86173   0.82752   0.00000  Uiso   1.00
H214   H     0.47487   0.01980   0.41063   0.00000  Uiso   1.00
H215   H     0.35006   0.25715   0.74661   0.00000  Uiso   1.00
H216   H     0.22800   0.31590   0.68786   0.00000  Uiso   1.00
H217   H     0.35683   0.20193   0.88353   0.00000  Uiso   1.00
H218   H     0.47732   0.27689   0.68583   0.00000  Uiso   1.00
H219   H     0.07378   0.34430   0.59541   0.00000  Uiso   1.00
H220   H     0.34545   0.10399   0.00798   0.00000  Uiso   1.00
H221   H     0.59953   0.26206   0.59109   0.00000  Uiso   1.00
O222   O     0.92852   0.25670   0.46276   0.00000  Uiso   1.00
O223   O     0.28496   0.94143   0.00402   0.00000  Uiso   1.00
O224   O     0.61829   0.14881   0.45707   0.00000  Uiso   1.00
N225   N     0.99521   0.15099   0.46548   0.00000  Uiso   1.00
N226   N     0.24920   0.92633   0.85120   0.00000  Uiso   1.00
N227   N     0.48675   0.07409   0.46146   0.00000  Uiso   1.00
N228   N     0.06230   0.28135   0.56258   0.00000  Uiso   1.00
N229   N     0.31628   0.05669   0.94830   0.00000  Uiso   1.00
N230   N     0.55383   0.20445   0.55856   0.00000  Uiso   1.00
C231   C     0.58310   0.23606   0.03773   0.00000  Uiso   1.00
C232   C     0.57498   0.18478   0.10271   0.00000  Uiso   1.00
C233   C     0.51693   0.10352   0.08201   0.00000  Uiso   1.00
C234   C     0.51971   0.06749   0.15083   0.00000  Uiso   1.00
C235   C     0.49820   0.98119   0.23857   0.00000  Uiso   1.00
C236   C     0.67479   0.25538   0.03838   0.00000  Uiso   1.00
C237   C     0.70067   0.23349   0.96359   0.00000  Uiso   1.00
C238   C     0.78747   0.25690   0.97826   0.00000  Uiso   1.00
C239   C     0.92092   0.28026   0.96611   0.00000  Uiso   1.00
C240   C     0.57364   0.32319   0.08110   0.00000  Uiso   1.00
C241   C     0.51447   0.35834   0.04221   0.00000  Uiso   1.00
C242   C     0.51613   0.43885   0.09283   0.00000  Uiso   1.00
C243   C     0.49251   0.56750   0.14701   0.00000  Uiso   1.00
C244   C     0.69124   0.31656   0.19678   0.00000  Uiso   1.00
C245   C     0.63372   0.22850   0.18910   0.00000  Uiso   1.00
C246   C     0.63659   0.19259   0.25797   0.00000  Uiso   1.00
C247   C     0.57856   0.11129   0.23737   0.00000  Uiso   1.00
C248   C     0.73354   0.29910   0.12476   0.00000  Uiso   1.00
C249   C     0.82032   0.32255   0.13955   0.00000  Uiso   1.00
C250   C     0.84632   0.30070   0.06480   0.00000  Uiso   1.00
C251   C     0.63238   0.36691   0.16748   0.00000  Uiso   1.00
C252   C     0.63413   0.44740   0.21817   0.00000  Uiso   1.00
C253   C     0.57498   0.48265   0.17937   0.00000  Uiso   1.00
H254   H     0.53737   0.20202   0.97048   0.00000  Uiso   1.00
H255   H     0.47149   0.06970   0.01515   0.00000  Uiso   1.00
H256   H     0.65520   0.19966   0.89674   0.00000  Uiso   1.00
H257   H     0.46903   0.32448   0.97536   0.00000  Uiso   1.00
H258   H     0.42438   0.94227   0.10276   0.00000  Uiso   1.00
H259   H     0.81173   0.21632   0.85309   0.00000  Uiso   1.00
H260   H     0.41916   0.47953   0.01886   0.00000  Uiso   1.00
H261   H     0.73698   0.35060   0.26403   0.00000  Uiso   1.00
H262   H     0.68205   0.22644   0.32481   0.00000  Uiso   1.00
H263   H     0.86576   0.35639   0.20641   0.00000  Uiso   1.00
H264   H     0.67959   0.48121   0.28502   0.00000  Uiso   1.00
H265   H     0.59528   0.06948   0.35409   0.00000  Uiso   1.00
H266   H     0.98264   0.34354   0.10443   0.00000  Uiso   1.00
H267   H     0.59006   0.60674   0.27020   0.00000  Uiso   1.00
O268   O     0.47011   0.92150   0.26310   0.00000  Uiso   1.00
O269   O     0.97830   0.28106   0.93555   0.00000  Uiso   1.00
O270   O     0.46326   0.62638   0.15303   0.00000  Uiso   1.00
N271   N     0.47213   0.98926   0.15357   0.00000  Uiso   1.00
N272   N     0.83428   0.24547   0.92015   0.00000  Uiso   1.00
N273   N     0.46727   0.49156   0.07512   0.00000  Uiso   1.00
N274   N     0.56409   0.05771   0.28881   0.00000  Uiso   1.00
N275   N     0.92624   0.31392   0.05539   0.00000  Uiso   1.00
N276   N     0.55923   0.56001   0.21036   0.00000  Uiso   1.00
