data_job_01626
_audit_creation_date              2018-12-19
_audit_creation_method            'Materials Studio'
_symmetry_space_group_name_H-M    'P1'
_symmetry_Int_Tables_number       1
_symmetry_cell_setting            triclinic
loop_
_symmetry_equiv_pos_as_xyz
  x,y,z
_cell_length_a                    32.8975
_cell_length_b                    32.8975
_cell_length_c                    6.9862
_cell_angle_alpha                 90.0000
_cell_angle_beta                  90.0000
_cell_angle_gamma                 90.0000
loop_
_atom_site_label
_atom_site_type_symbol
_atom_site_fract_x
_atom_site_fract_y
_atom_site_fract_z
_atom_site_U_iso_or_equiv
_atom_site_adp_type
_atom_site_occupancy
C1     C     0.98516   0.71368   0.54891   0.00000  Uiso   1.00
C2     C     0.01708   0.73219   0.41678   0.00000  Uiso   1.00
C3     C     0.05483   0.74680   0.47271   0.00000  Uiso   1.00
C4     C     0.07965   0.76257   0.33017   0.00000  Uiso   1.00
C5     C     0.13110   0.79117   0.15415   0.00000  Uiso   1.00
C6     C     0.94662   0.73867   0.51973   0.00000  Uiso   1.00
C7     C     0.92513   0.75873   0.66223   0.00000  Uiso   1.00
C8     C     0.89063   0.77995   0.60634   0.00000  Uiso   1.00
C9     C     0.83268   0.81859   0.59017   0.00000  Uiso   1.00
C10    C     0.97599   0.67157   0.46859   0.00000  Uiso   1.00
C11    C     0.97918   0.63519   0.56810   0.00000  Uiso   1.00
C12    C     0.96941   0.59992   0.46917   0.00000  Uiso   1.00
C13    C     0.95706   0.53436   0.37361   0.00000  Uiso   1.00
C14    C     0.96211   0.71571   0.19630   0.00000  Uiso   1.00
C15    C     0.00456   0.73330   0.22526   0.00000  Uiso   1.00
C16    C     0.02933   0.74905   0.08259   0.00000  Uiso   1.00
C17    C     0.06711   0.76368   0.13830   0.00000  Uiso   1.00
C18    C     0.93410   0.73978   0.32821   0.00000  Uiso   1.00
C19    C     0.89963   0.76097   0.27210   0.00000  Uiso   1.00
C20    C     0.87809   0.78106   0.41447   0.00000  Uiso   1.00
C21    C     0.96347   0.67267   0.27707   0.00000  Uiso   1.00
C22    C     0.95369   0.63744   0.17797   0.00000  Uiso   1.00
C23    C     0.95686   0.60102   0.27730   0.00000  Uiso   1.00
H24    H     0.99491   0.71282   0.69802   0.00000  Uiso   1.00
H25    H     0.06451   0.74595   0.62095   0.00000  Uiso   1.00
H26    H     0.93482   0.75787   0.81043   0.00000  Uiso   1.00
H27    H     0.98887   0.63435   0.71631   0.00000  Uiso   1.00
H28    H     0.13614   0.78317   0.45104   0.00000  Uiso   1.00
H29    H     0.86269   0.80829   0.85058   0.00000  Uiso   1.00
H30    H     0.97666   0.54784   0.65213   0.00000  Uiso   1.00
H31    H     0.95237   0.71657   0.04719   0.00000  Uiso   1.00
H32    H     0.01963   0.74990   0.93439   0.00000  Uiso   1.00
H33    H     0.88995   0.76182   0.12388   0.00000  Uiso   1.00
H34    H     0.94400   0.63831   0.02976   0.00000  Uiso   1.00
H35    H     0.09972   0.78638   0.89381   0.00000  Uiso   1.00
H36    H     0.82626   0.81150   0.29336   0.00000  Uiso   1.00
H37    H     0.94024   0.55105   0.09489   0.00000  Uiso   1.00
O38    O     0.16294   0.80665   0.10997   0.00000  Uiso   1.00
O39    O     0.80418   0.83960   0.63417   0.00000  Uiso   1.00
O40    O     0.95371   0.49789   0.37379   0.00000  Uiso   1.00
N41    N     0.11834   0.77934   0.33537   0.00000  Uiso   1.00
N42    N     0.86268   0.80284   0.70891   0.00000  Uiso   1.00
N43    N     0.96923   0.55934   0.52339   0.00000  Uiso   1.00
N44    N     0.09874   0.78107   0.03553   0.00000  Uiso   1.00
N45    N     0.84308   0.80456   0.40907   0.00000  Uiso   1.00
N46    N     0.94963   0.56106   0.22355   0.00000  Uiso   1.00
C47    C     0.48516   0.21368   0.04891   0.00000  Uiso   1.00
C48    C     0.51708   0.23219   0.91678   0.00000  Uiso   1.00
C49    C     0.55483   0.24680   0.97271   0.00000  Uiso   1.00
C50    C     0.57965   0.26257   0.83017   0.00000  Uiso   1.00
C51    C     0.63110   0.29117   0.65415   0.00000  Uiso   1.00
C52    C     0.44662   0.23867   0.01973   0.00000  Uiso   1.00
C53    C     0.42513   0.25873   0.16223   0.00000  Uiso   1.00
C54    C     0.39063   0.27995   0.10634   0.00000  Uiso   1.00
C55    C     0.33268   0.31859   0.09017   0.00000  Uiso   1.00
C56    C     0.47599   0.17157   0.96859   0.00000  Uiso   1.00
C57    C     0.47918   0.13519   0.06810   0.00000  Uiso   1.00
C58    C     0.46941   0.09992   0.96917   0.00000  Uiso   1.00
C59    C     0.45706   0.03436   0.87361   0.00000  Uiso   1.00
C60    C     0.46211   0.21571   0.69630   0.00000  Uiso   1.00
C61    C     0.50456   0.23330   0.72526   0.00000  Uiso   1.00
C62    C     0.52933   0.24905   0.58259   0.00000  Uiso   1.00
C63    C     0.56711   0.26368   0.63830   0.00000  Uiso   1.00
C64    C     0.43410   0.23978   0.82821   0.00000  Uiso   1.00
C65    C     0.39963   0.26097   0.77210   0.00000  Uiso   1.00
C66    C     0.37809   0.28106   0.91447   0.00000  Uiso   1.00
C67    C     0.46347   0.17267   0.77707   0.00000  Uiso   1.00
C68    C     0.45369   0.13744   0.67797   0.00000  Uiso   1.00
C69    C     0.45686   0.10102   0.77730   0.00000  Uiso   1.00
H70    H     0.49491   0.21282   0.19802   0.00000  Uiso   1.00
H71    H     0.56451   0.24595   0.12095   0.00000  Uiso   1.00
H72    H     0.43482   0.25787   0.31043   0.00000  Uiso   1.00
H73    H     0.48887   0.13435   0.21631   0.00000  Uiso   1.00
H74    H     0.63614   0.28317   0.95104   0.00000  Uiso   1.00
H75    H     0.36269   0.30829   0.35058   0.00000  Uiso   1.00
H76    H     0.47666   0.04784   0.15213   0.00000  Uiso   1.00
H77    H     0.45237   0.21657   0.54719   0.00000  Uiso   1.00
H78    H     0.51963   0.24990   0.43439   0.00000  Uiso   1.00
H79    H     0.38995   0.26182   0.62388   0.00000  Uiso   1.00
H80    H     0.44400   0.13831   0.52976   0.00000  Uiso   1.00
H81    H     0.59972   0.28638   0.39381   0.00000  Uiso   1.00
H82    H     0.32626   0.31150   0.79336   0.00000  Uiso   1.00
H83    H     0.44024   0.05105   0.59489   0.00000  Uiso   1.00
O84    O     0.66294   0.30665   0.60997   0.00000  Uiso   1.00
O85    O     0.30418   0.33960   0.13417   0.00000  Uiso   1.00
O86    O     0.45371   0.99789   0.87379   0.00000  Uiso   1.00
N87    N     0.61834   0.27934   0.83537   0.00000  Uiso   1.00
N88    N     0.36268   0.30284   0.20891   0.00000  Uiso   1.00
N89    N     0.46923   0.05934   0.02339   0.00000  Uiso   1.00
N90    N     0.59874   0.28107   0.53553   0.00000  Uiso   1.00
N91    N     0.34308   0.30456   0.90907   0.00000  Uiso   1.00
N92    N     0.44963   0.06106   0.72355   0.00000  Uiso   1.00
C93    C     0.01484   0.28632   0.54891   0.00000  Uiso   1.00
C94    C     0.98292   0.26781   0.41678   0.00000  Uiso   1.00
C95    C     0.94517   0.25320   0.47271   0.00000  Uiso   1.00
C96    C     0.92035   0.23743   0.33017   0.00000  Uiso   1.00
C97    C     0.86890   0.20883   0.15415   0.00000  Uiso   1.00
C98    C     0.05338   0.26133   0.51973   0.00000  Uiso   1.00
C99    C     0.07487   0.24127   0.66223   0.00000  Uiso   1.00
C100   C     0.10937   0.22005   0.60634   0.00000  Uiso   1.00
C101   C     0.16732   0.18141   0.59017   0.00000  Uiso   1.00
C102   C     0.02401   0.32843   0.46859   0.00000  Uiso   1.00
C103   C     0.02082   0.36481   0.56810   0.00000  Uiso   1.00
C104   C     0.03059   0.40008   0.46917   0.00000  Uiso   1.00
C105   C     0.04294   0.46564   0.37361   0.00000  Uiso   1.00
C106   C     0.03789   0.28429   0.19630   0.00000  Uiso   1.00
C107   C     0.99544   0.26670   0.22526   0.00000  Uiso   1.00
C108   C     0.97067   0.25095   0.08259   0.00000  Uiso   1.00
C109   C     0.93289   0.23632   0.13830   0.00000  Uiso   1.00
C110   C     0.06590   0.26022   0.32821   0.00000  Uiso   1.00
C111   C     0.10037   0.23903   0.27210   0.00000  Uiso   1.00
C112   C     0.12191   0.21894   0.41447   0.00000  Uiso   1.00
C113   C     0.03653   0.32733   0.27707   0.00000  Uiso   1.00
C114   C     0.04631   0.36256   0.17797   0.00000  Uiso   1.00
C115   C     0.04314   0.39898   0.27730   0.00000  Uiso   1.00
H116   H     0.00509   0.28718   0.69802   0.00000  Uiso   1.00
H117   H     0.93549   0.25405   0.62095   0.00000  Uiso   1.00
H118   H     0.06518   0.24213   0.81043   0.00000  Uiso   1.00
H119   H     0.01113   0.36565   0.71631   0.00000  Uiso   1.00
H120   H     0.86386   0.21683   0.45104   0.00000  Uiso   1.00
H121   H     0.13731   0.19171   0.85058   0.00000  Uiso   1.00
H122   H     0.02334   0.45216   0.65213   0.00000  Uiso   1.00
H123   H     0.04763   0.28343   0.04719   0.00000  Uiso   1.00
H124   H     0.98037   0.25010   0.93439   0.00000  Uiso   1.00
H125   H     0.11005   0.23818   0.12388   0.00000  Uiso   1.00
H126   H     0.05600   0.36169   0.02976   0.00000  Uiso   1.00
H127   H     0.90028   0.21362   0.89381   0.00000  Uiso   1.00
H128   H     0.17374   0.18850   0.29336   0.00000  Uiso   1.00
H129   H     0.05976   0.44895   0.09489   0.00000  Uiso   1.00
O130   O     0.83706   0.19335   0.10997   0.00000  Uiso   1.00
O131   O     0.19582   0.16040   0.63417   0.00000  Uiso   1.00
O132   O     0.04629   0.50211   0.37379   0.00000  Uiso   1.00
N133   N     0.88166   0.22066   0.33537   0.00000  Uiso   1.00
N134   N     0.13732   0.19716   0.70891   0.00000  Uiso   1.00
N135   N     0.03077   0.44066   0.52339   0.00000  Uiso   1.00
N136   N     0.90126   0.21893   0.03553   0.00000  Uiso   1.00
N137   N     0.15692   0.19544   0.40907   0.00000  Uiso   1.00
N138   N     0.05037   0.43894   0.22355   0.00000  Uiso   1.00
C139   C     0.51484   0.78632   0.04891   0.00000  Uiso   1.00
C140   C     0.48292   0.76781   0.91678   0.00000  Uiso   1.00
C141   C     0.44517   0.75320   0.97271   0.00000  Uiso   1.00
C142   C     0.42035   0.73743   0.83017   0.00000  Uiso   1.00
C143   C     0.36890   0.70883   0.65415   0.00000  Uiso   1.00
C144   C     0.55338   0.76133   0.01973   0.00000  Uiso   1.00
C145   C     0.57487   0.74127   0.16223   0.00000  Uiso   1.00
C146   C     0.60937   0.72005   0.10634   0.00000  Uiso   1.00
C147   C     0.66732   0.68141   0.09017   0.00000  Uiso   1.00
C148   C     0.52401   0.82843   0.96859   0.00000  Uiso   1.00
C149   C     0.52082   0.86481   0.06810   0.00000  Uiso   1.00
C150   C     0.53059   0.90008   0.96917   0.00000  Uiso   1.00
C151   C     0.54294   0.96564   0.87361   0.00000  Uiso   1.00
C152   C     0.53789   0.78429   0.69630   0.00000  Uiso   1.00
C153   C     0.49544   0.76670   0.72526   0.00000  Uiso   1.00
C154   C     0.47067   0.75095   0.58259   0.00000  Uiso   1.00
C155   C     0.43289   0.73632   0.63830   0.00000  Uiso   1.00
C156   C     0.56590   0.76022   0.82821   0.00000  Uiso   1.00
C157   C     0.60037   0.73903   0.77210   0.00000  Uiso   1.00
C158   C     0.62191   0.71894   0.91447   0.00000  Uiso   1.00
C159   C     0.53653   0.82733   0.77707   0.00000  Uiso   1.00
C160   C     0.54631   0.86256   0.67797   0.00000  Uiso   1.00
C161   C     0.54314   0.89898   0.77730   0.00000  Uiso   1.00
H162   H     0.50509   0.78718   0.19802   0.00000  Uiso   1.00
H163   H     0.43549   0.75405   0.12095   0.00000  Uiso   1.00
H164   H     0.56518   0.74213   0.31043   0.00000  Uiso   1.00
H165   H     0.51113   0.86565   0.21631   0.00000  Uiso   1.00
H166   H     0.36386   0.71683   0.95104   0.00000  Uiso   1.00
H167   H     0.63731   0.69171   0.35058   0.00000  Uiso   1.00
H168   H     0.52334   0.95216   0.15213   0.00000  Uiso   1.00
H169   H     0.54763   0.78343   0.54719   0.00000  Uiso   1.00
H170   H     0.48037   0.75010   0.43439   0.00000  Uiso   1.00
H171   H     0.61005   0.73818   0.62388   0.00000  Uiso   1.00
H172   H     0.55600   0.86169   0.52976   0.00000  Uiso   1.00
H173   H     0.40028   0.71362   0.39381   0.00000  Uiso   1.00
H174   H     0.67374   0.68850   0.79336   0.00000  Uiso   1.00
H175   H     0.55976   0.94895   0.59489   0.00000  Uiso   1.00
O176   O     0.33706   0.69335   0.60997   0.00000  Uiso   1.00
O177   O     0.69582   0.66040   0.13417   0.00000  Uiso   1.00
O178   O     0.54629   0.00211   0.87379   0.00000  Uiso   1.00
N179   N     0.38166   0.72066   0.83537   0.00000  Uiso   1.00
N180   N     0.63732   0.69716   0.20891   0.00000  Uiso   1.00
N181   N     0.53077   0.94066   0.02339   0.00000  Uiso   1.00
N182   N     0.40126   0.71893   0.53553   0.00000  Uiso   1.00
N183   N     0.65692   0.69544   0.90907   0.00000  Uiso   1.00
N184   N     0.55037   0.93894   0.72355   0.00000  Uiso   1.00
C185   C     0.28632   0.98516   0.54891   0.00000  Uiso   1.00
C186   C     0.26781   0.01708   0.41678   0.00000  Uiso   1.00
C187   C     0.25320   0.05483   0.47271   0.00000  Uiso   1.00
C188   C     0.23743   0.07965   0.33017   0.00000  Uiso   1.00
C189   C     0.20883   0.13110   0.15415   0.00000  Uiso   1.00
C190   C     0.26133   0.94662   0.51973   0.00000  Uiso   1.00
C191   C     0.24127   0.92513   0.66223   0.00000  Uiso   1.00
C192   C     0.22005   0.89063   0.60634   0.00000  Uiso   1.00
C193   C     0.18141   0.83268   0.59017   0.00000  Uiso   1.00
C194   C     0.32843   0.97599   0.46859   0.00000  Uiso   1.00
C195   C     0.36481   0.97918   0.56810   0.00000  Uiso   1.00
C196   C     0.40008   0.96941   0.46917   0.00000  Uiso   1.00
C197   C     0.46564   0.95706   0.37361   0.00000  Uiso   1.00
C198   C     0.28429   0.96211   0.19630   0.00000  Uiso   1.00
C199   C     0.26670   0.00456   0.22526   0.00000  Uiso   1.00
C200   C     0.25095   0.02933   0.08259   0.00000  Uiso   1.00
C201   C     0.23632   0.06711   0.13830   0.00000  Uiso   1.00
C202   C     0.26022   0.93410   0.32821   0.00000  Uiso   1.00
C203   C     0.23903   0.89963   0.27210   0.00000  Uiso   1.00
C204   C     0.21894   0.87809   0.41447   0.00000  Uiso   1.00
C205   C     0.32733   0.96347   0.27707   0.00000  Uiso   1.00
C206   C     0.36256   0.95369   0.17797   0.00000  Uiso   1.00
C207   C     0.39898   0.95686   0.27730   0.00000  Uiso   1.00
H208   H     0.28718   0.99491   0.69802   0.00000  Uiso   1.00
H209   H     0.25405   0.06451   0.62095   0.00000  Uiso   1.00
H210   H     0.24213   0.93482   0.81043   0.00000  Uiso   1.00
H211   H     0.36565   0.98887   0.71631   0.00000  Uiso   1.00
H212   H     0.21683   0.13614   0.45104   0.00000  Uiso   1.00
H213   H     0.19171   0.86269   0.85058   0.00000  Uiso   1.00
H214   H     0.45216   0.97666   0.65213   0.00000  Uiso   1.00
H215   H     0.28343   0.95237   0.04719   0.00000  Uiso   1.00
H216   H     0.25010   0.01963   0.93439   0.00000  Uiso   1.00
H217   H     0.23818   0.88995   0.12388   0.00000  Uiso   1.00
H218   H     0.36169   0.94400   0.02976   0.00000  Uiso   1.00
H219   H     0.21362   0.09972   0.89381   0.00000  Uiso   1.00
H220   H     0.18850   0.82626   0.29336   0.00000  Uiso   1.00
H221   H     0.44895   0.94024   0.09489   0.00000  Uiso   1.00
O222   O     0.19335   0.16294   0.10997   0.00000  Uiso   1.00
O223   O     0.16040   0.80418   0.63417   0.00000  Uiso   1.00
O224   O     0.50211   0.95371   0.37379   0.00000  Uiso   1.00
N225   N     0.22066   0.11834   0.33537   0.00000  Uiso   1.00
N226   N     0.19716   0.86268   0.70891   0.00000  Uiso   1.00
N227   N     0.44066   0.96923   0.52339   0.00000  Uiso   1.00
N228   N     0.21893   0.09874   0.03553   0.00000  Uiso   1.00
N229   N     0.19544   0.84308   0.40907   0.00000  Uiso   1.00
N230   N     0.43894   0.94963   0.22355   0.00000  Uiso   1.00
C231   C     0.78632   0.48516   0.04891   0.00000  Uiso   1.00
C232   C     0.76781   0.51708   0.91678   0.00000  Uiso   1.00
C233   C     0.75320   0.55483   0.97271   0.00000  Uiso   1.00
C234   C     0.73743   0.57965   0.83017   0.00000  Uiso   1.00
C235   C     0.70883   0.63110   0.65415   0.00000  Uiso   1.00
C236   C     0.76133   0.44662   0.01973   0.00000  Uiso   1.00
C237   C     0.74127   0.42513   0.16223   0.00000  Uiso   1.00
C238   C     0.72005   0.39063   0.10634   0.00000  Uiso   1.00
C239   C     0.68141   0.33268   0.09017   0.00000  Uiso   1.00
C240   C     0.82843   0.47599   0.96859   0.00000  Uiso   1.00
C241   C     0.86481   0.47918   0.06810   0.00000  Uiso   1.00
C242   C     0.90008   0.46941   0.96917   0.00000  Uiso   1.00
C243   C     0.96564   0.45706   0.87361   0.00000  Uiso   1.00
C244   C     0.78429   0.46211   0.69630   0.00000  Uiso   1.00
C245   C     0.76670   0.50456   0.72526   0.00000  Uiso   1.00
C246   C     0.75095   0.52933   0.58259   0.00000  Uiso   1.00
C247   C     0.73632   0.56711   0.63830   0.00000  Uiso   1.00
C248   C     0.76022   0.43410   0.82821   0.00000  Uiso   1.00
C249   C     0.73903   0.39963   0.77210   0.00000  Uiso   1.00
C250   C     0.71894   0.37809   0.91447   0.00000  Uiso   1.00
C251   C     0.82733   0.46347   0.77707   0.00000  Uiso   1.00
C252   C     0.86256   0.45369   0.67797   0.00000  Uiso   1.00
C253   C     0.89898   0.45686   0.77730   0.00000  Uiso   1.00
H254   H     0.78718   0.49491   0.19802   0.00000  Uiso   1.00
H255   H     0.75405   0.56451   0.12095   0.00000  Uiso   1.00
H256   H     0.74213   0.43482   0.31043   0.00000  Uiso   1.00
H257   H     0.86565   0.48887   0.21631   0.00000  Uiso   1.00
H258   H     0.71683   0.63614   0.95104   0.00000  Uiso   1.00
H259   H     0.69171   0.36269   0.35058   0.00000  Uiso   1.00
H260   H     0.95216   0.47666   0.15213   0.00000  Uiso   1.00
H261   H     0.78343   0.45237   0.54719   0.00000  Uiso   1.00
H262   H     0.75010   0.51963   0.43439   0.00000  Uiso   1.00
H263   H     0.73818   0.38995   0.62388   0.00000  Uiso   1.00
H264   H     0.86169   0.44400   0.52976   0.00000  Uiso   1.00
H265   H     0.71362   0.59972   0.39381   0.00000  Uiso   1.00
H266   H     0.68850   0.32626   0.79336   0.00000  Uiso   1.00
H267   H     0.94895   0.44024   0.59489   0.00000  Uiso   1.00
O268   O     0.69335   0.66294   0.60997   0.00000  Uiso   1.00
O269   O     0.66040   0.30418   0.13417   0.00000  Uiso   1.00
O270   O     0.00211   0.45371   0.87379   0.00000  Uiso   1.00
N271   N     0.72066   0.61834   0.83537   0.00000  Uiso   1.00
N272   N     0.69716   0.36268   0.20891   0.00000  Uiso   1.00
N273   N     0.94066   0.46923   0.02339   0.00000  Uiso   1.00
N274   N     0.71893   0.59874   0.53553   0.00000  Uiso   1.00
N275   N     0.69544   0.34308   0.90907   0.00000  Uiso   1.00
N276   N     0.93894   0.44963   0.72355   0.00000  Uiso   1.00
C277   C     0.71368   0.01484   0.54891   0.00000  Uiso   1.00
C278   C     0.73219   0.98292   0.41678   0.00000  Uiso   1.00
C279   C     0.74680   0.94517   0.47271   0.00000  Uiso   1.00
C280   C     0.76257   0.92035   0.33017   0.00000  Uiso   1.00
C281   C     0.79117   0.86890   0.15415   0.00000  Uiso   1.00
C282   C     0.73867   0.05338   0.51973   0.00000  Uiso   1.00
C283   C     0.75873   0.07487   0.66223   0.00000  Uiso   1.00
C284   C     0.77995   0.10937   0.60634   0.00000  Uiso   1.00
C285   C     0.81859   0.16732   0.59017   0.00000  Uiso   1.00
C286   C     0.67157   0.02401   0.46859   0.00000  Uiso   1.00
C287   C     0.63519   0.02082   0.56810   0.00000  Uiso   1.00
C288   C     0.59992   0.03059   0.46917   0.00000  Uiso   1.00
C289   C     0.53436   0.04294   0.37361   0.00000  Uiso   1.00
C290   C     0.71571   0.03789   0.19630   0.00000  Uiso   1.00
C291   C     0.73330   0.99544   0.22526   0.00000  Uiso   1.00
C292   C     0.74905   0.97067   0.08259   0.00000  Uiso   1.00
C293   C     0.76368   0.93289   0.13830   0.00000  Uiso   1.00
C294   C     0.73978   0.06590   0.32821   0.00000  Uiso   1.00
C295   C     0.76097   0.10037   0.27210   0.00000  Uiso   1.00
C296   C     0.78106   0.12191   0.41447   0.00000  Uiso   1.00
C297   C     0.67267   0.03653   0.27707   0.00000  Uiso   1.00
C298   C     0.63744   0.04631   0.17797   0.00000  Uiso   1.00
C299   C     0.60102   0.04314   0.27730   0.00000  Uiso   1.00
H300   H     0.71282   0.00509   0.69802   0.00000  Uiso   1.00
H301   H     0.74595   0.93549   0.62095   0.00000  Uiso   1.00
H302   H     0.75787   0.06518   0.81043   0.00000  Uiso   1.00
H303   H     0.63435   0.01113   0.71631   0.00000  Uiso   1.00
H304   H     0.78317   0.86386   0.45104   0.00000  Uiso   1.00
H305   H     0.80829   0.13731   0.85058   0.00000  Uiso   1.00
H306   H     0.54784   0.02334   0.65213   0.00000  Uiso   1.00
H307   H     0.71657   0.04763   0.04719   0.00000  Uiso   1.00
H308   H     0.74990   0.98037   0.93439   0.00000  Uiso   1.00
H309   H     0.76182   0.11005   0.12388   0.00000  Uiso   1.00
H310   H     0.63831   0.05600   0.02976   0.00000  Uiso   1.00
H311   H     0.78638   0.90028   0.89381   0.00000  Uiso   1.00
H312   H     0.81150   0.17374   0.29336   0.00000  Uiso   1.00
H313   H     0.55105   0.05976   0.09489   0.00000  Uiso   1.00
O314   O     0.80665   0.83706   0.10997   0.00000  Uiso   1.00
O315   O     0.83960   0.19582   0.63417   0.00000  Uiso   1.00
O316   O     0.49789   0.04629   0.37379   0.00000  Uiso   1.00
N317   N     0.77934   0.88166   0.33537   0.00000  Uiso   1.00
N318   N     0.80284   0.13732   0.70891   0.00000  Uiso   1.00
N319   N     0.55934   0.03077   0.52339   0.00000  Uiso   1.00
N320   N     0.78107   0.90126   0.03553   0.00000  Uiso   1.00
N321   N     0.80456   0.15692   0.40907   0.00000  Uiso   1.00
N322   N     0.56106   0.05037   0.22355   0.00000  Uiso   1.00
C323   C     0.21368   0.51484   0.04891   0.00000  Uiso   1.00
C324   C     0.23219   0.48292   0.91678   0.00000  Uiso   1.00
C325   C     0.24680   0.44517   0.97271   0.00000  Uiso   1.00
C326   C     0.26257   0.42035   0.83017   0.00000  Uiso   1.00
C327   C     0.29117   0.36890   0.65415   0.00000  Uiso   1.00
C328   C     0.23867   0.55338   0.01973   0.00000  Uiso   1.00
C329   C     0.25873   0.57487   0.16223   0.00000  Uiso   1.00
C330   C     0.27995   0.60937   0.10634   0.00000  Uiso   1.00
C331   C     0.31859   0.66732   0.09017   0.00000  Uiso   1.00
C332   C     0.17157   0.52401   0.96859   0.00000  Uiso   1.00
C333   C     0.13519   0.52082   0.06810   0.00000  Uiso   1.00
C334   C     0.09992   0.53059   0.96917   0.00000  Uiso   1.00
C335   C     0.03436   0.54294   0.87361   0.00000  Uiso   1.00
C336   C     0.21571   0.53789   0.69630   0.00000  Uiso   1.00
C337   C     0.23330   0.49544   0.72526   0.00000  Uiso   1.00
C338   C     0.24905   0.47067   0.58259   0.00000  Uiso   1.00
C339   C     0.26368   0.43289   0.63830   0.00000  Uiso   1.00
C340   C     0.23978   0.56590   0.82821   0.00000  Uiso   1.00
C341   C     0.26097   0.60037   0.77210   0.00000  Uiso   1.00
C342   C     0.28106   0.62191   0.91447   0.00000  Uiso   1.00
C343   C     0.17267   0.53653   0.77707   0.00000  Uiso   1.00
C344   C     0.13744   0.54631   0.67797   0.00000  Uiso   1.00
C345   C     0.10102   0.54314   0.77730   0.00000  Uiso   1.00
H346   H     0.21282   0.50509   0.19802   0.00000  Uiso   1.00
H347   H     0.24595   0.43549   0.12095   0.00000  Uiso   1.00
H348   H     0.25787   0.56518   0.31043   0.00000  Uiso   1.00
H349   H     0.13435   0.51113   0.21631   0.00000  Uiso   1.00
H350   H     0.28317   0.36386   0.95104   0.00000  Uiso   1.00
H351   H     0.30829   0.63731   0.35058   0.00000  Uiso   1.00
H352   H     0.04784   0.52334   0.15213   0.00000  Uiso   1.00
H353   H     0.21657   0.54763   0.54719   0.00000  Uiso   1.00
H354   H     0.24990   0.48037   0.43439   0.00000  Uiso   1.00
H355   H     0.26182   0.61005   0.62388   0.00000  Uiso   1.00
H356   H     0.13831   0.55600   0.52976   0.00000  Uiso   1.00
H357   H     0.28638   0.40028   0.39381   0.00000  Uiso   1.00
H358   H     0.31150   0.67374   0.79336   0.00000  Uiso   1.00
H359   H     0.05105   0.55976   0.59489   0.00000  Uiso   1.00
O360   O     0.30665   0.33706   0.60997   0.00000  Uiso   1.00
O361   O     0.33960   0.69582   0.13417   0.00000  Uiso   1.00
O362   O     0.99789   0.54629   0.87379   0.00000  Uiso   1.00
N363   N     0.27934   0.38166   0.83537   0.00000  Uiso   1.00
N364   N     0.30284   0.63732   0.20891   0.00000  Uiso   1.00
N365   N     0.05934   0.53077   0.02339   0.00000  Uiso   1.00
N366   N     0.28107   0.40126   0.53553   0.00000  Uiso   1.00
N367   N     0.30456   0.65692   0.90907   0.00000  Uiso   1.00
N368   N     0.06106   0.55037   0.72355   0.00000  Uiso   1.00
