data_job_04985
_audit_creation_date              2018-12-19
_audit_creation_method            'Materials Studio'
_symmetry_space_group_name_H-M    'P1'
_symmetry_Int_Tables_number       1
_symmetry_cell_setting            triclinic
loop_
_symmetry_equiv_pos_as_xyz
  x,y,z
_cell_length_a                    17.5335
_cell_length_b                    18.4176
_cell_length_c                    24.8101
_cell_angle_alpha                 90.0000
_cell_angle_beta                  141.0687
_cell_angle_gamma                 90.0000
loop_
_atom_site_label
_atom_site_type_symbol
_atom_site_fract_x
_atom_site_fract_y
_atom_site_fract_z
_atom_site_U_iso_or_equiv
_atom_site_adp_type
_atom_site_occupancy
C1     C     0.85988   0.93046   0.07848   0.00000  Uiso   1.00
C2     C     0.87981   0.99810   0.05510   0.00000  Uiso   1.00
C3     C     0.98899   0.01921   0.09206   0.00000  Uiso   1.00
C4     C     0.98845   0.08286   0.06178   0.00000  Uiso   1.00
C5     C     0.03553   0.18167   0.03540   0.00000  Uiso   1.00
C6     C     0.80764   0.95713   0.10312   0.00000  Uiso   1.00
C7     C     0.85615   0.94378   0.18046   0.00000  Uiso   1.00
C8     C     0.79484   0.97294   0.19060   0.00000  Uiso   1.00
C9     C     0.72983   0.00809   0.23874   0.00000  Uiso   1.00
C10    C     0.75847   0.88791   0.99532   0.00000  Uiso   1.00
C11    C     0.76561   0.81635   0.98200   0.00000  Uiso   1.00
C12    C     0.66288   0.78721   0.90138   0.00000  Uiso   1.00
C13    C     0.52153   0.71488   0.78213   0.00000  Uiso   1.00
C14    C     0.66475   0.00596   0.95898   0.00000  Uiso   1.00
C15    C     0.77382   0.03911   0.99020   0.00000  Uiso   1.00
C16    C     0.77311   0.10274   0.95985   0.00000  Uiso   1.00
C17    C     0.88227   0.12395   0.99676   0.00000  Uiso   1.00
C18    C     0.70166   0.99814   0.03822   0.00000  Uiso   1.00
C19    C     0.64026   0.02731   0.04825   0.00000  Uiso   1.00
C20    C     0.68866   0.01402   0.12557   0.00000  Uiso   1.00
C21    C     0.65248   0.92891   0.93041   0.00000  Uiso   1.00
C22    C     0.54972   0.89988   0.84979   0.00000  Uiso   1.00
C23    C     0.55671   0.82830   0.83636   0.00000  Uiso   1.00
H24    H     0.94239   0.89854   0.12901   0.00000  Uiso   1.00
H25    H     0.07100   0.98746   0.14230   0.00000  Uiso   1.00
H26    H     0.93816   0.91204   0.23067   0.00000  Uiso   1.00
H27    H     0.84764   0.78463   0.03225   0.00000  Uiso   1.00
H28    H     0.16685   0.10416   0.12842   0.00000  Uiso   1.00
H29    H     0.88674   0.94510   0.31475   0.00000  Uiso   1.00
H30    H     0.69585   0.67642   0.89634   0.00000  Uiso   1.00
H31    H     0.58223   0.03789   0.90844   0.00000  Uiso   1.00
H32    H     0.69108   0.13447   0.90962   0.00000  Uiso   1.00
H33    H     0.55824   0.05904   0.99800   0.00000  Uiso   1.00
H34    H     0.46772   0.93163   0.79958   0.00000  Uiso   1.00
H35    H     0.85850   0.22347   0.93958   0.00000  Uiso   1.00
H36    H     0.57838   0.06441   0.12591   0.00000  Uiso   1.00
H37    H     0.38750   0.79574   0.70750   0.00000  Uiso   1.00
O38    O     0.09079   0.22484   0.03878   0.00000  Uiso   1.00
O39    O     0.72327   0.01615   0.28323   0.00000  Uiso   1.00
O40    O     0.47284   0.66366   0.73428   0.00000  Uiso   1.00
N41    N     0.07934   0.11898   0.08381   0.00000  Uiso   1.00
N42    N     0.81746   0.97027   0.25802   0.00000  Uiso   1.00
N43    N     0.63899   0.71908   0.86685   0.00000  Uiso   1.00
N44    N     0.91341   0.18318   0.98219   0.00000  Uiso   1.00
N45    N     0.65153   0.03448   0.15640   0.00000  Uiso   1.00
N46    N     0.47306   0.78328   0.76523   0.00000  Uiso   1.00
C47    C     0.70646   0.01745   0.44031   0.00000  Uiso   1.00
C48    C     0.81650   0.96826   0.49327   0.00000  Uiso   1.00
C49    C     0.87541   0.95480   0.47723   0.00000  Uiso   1.00
C50    C     0.97433   0.90815   0.53316   0.00000  Uiso   1.00
C51    C     0.13929   0.83661   0.60480   0.00000  Uiso   1.00
C52    C     0.60869   0.97044   0.41254   0.00000  Uiso   1.00
C53    C     0.49287   0.95884   0.32864   0.00000  Uiso   1.00
C54    C     0.41686   0.91403   0.31662   0.00000  Uiso   1.00
C55    C     0.25917   0.84593   0.26294   0.00000  Uiso   1.00
C56    C     0.74280   0.07325   0.50272   0.00000  Uiso   1.00
C57    C     0.73971   0.14809   0.49463   0.00000  Uiso   1.00
C58    C     0.77658   0.18985   0.55852   0.00000  Uiso   1.00
C59    C     0.82711   0.28137   0.64485   0.00000  Uiso   1.00
C60    C     0.77740   0.95853   0.56815   0.00000  Uiso   1.00
C61    C     0.85502   0.93626   0.56271   0.00000  Uiso   1.00
C62    C     0.95389   0.88962   0.61868   0.00000  Uiso   1.00
C63    C     0.01293   0.87609   0.60273   0.00000  Uiso   1.00
C64    C     0.64722   0.93844   0.48198   0.00000  Uiso   1.00
C65    C     0.57135   0.89365   0.47008   0.00000  Uiso   1.00
C66    C     0.45546   0.88197   0.38618   0.00000  Uiso   1.00
C67    C     0.78133   0.04125   0.57216   0.00000  Uiso   1.00
C68    C     0.81820   0.08290   0.63608   0.00000  Uiso   1.00
C69    C     0.81517   0.15779   0.62808   0.00000  Uiso   1.00
H70    H     0.67646   0.04236   0.38624   0.00000  Uiso   1.00
H71    H     0.84556   0.97957   0.42348   0.00000  Uiso   1.00
H72    H     0.46308   0.98361   0.27491   0.00000  Uiso   1.00
H73    H     0.70989   0.17283   0.44088   0.00000  Uiso   1.00
H74    H     0.04999   0.89583   0.49537   0.00000  Uiso   1.00
H75    H     0.24351   0.90437   0.18211   0.00000  Uiso   1.00
H76    H     0.76395   0.30338   0.53208   0.00000  Uiso   1.00
H77    H     0.80739   0.93361   0.62222   0.00000  Uiso   1.00
H78    H     0.98368   0.86486   0.67241   0.00000  Uiso   1.00
H79    H     0.60120   0.86890   0.52384   0.00000  Uiso   1.00
H80    H     0.84801   0.05812   0.68980   0.00000  Uiso   1.00
H81    H     0.16210   0.80272   0.69741   0.00000  Uiso   1.00
H82    H     0.35561   0.81126   0.38414   0.00000  Uiso   1.00
H83    H     0.87605   0.21027   0.73412   0.00000  Uiso   1.00
O84    O     0.21962   0.80599   0.62513   0.00000  Uiso   1.00
O85    O     0.16154   0.81721   0.21414   0.00000  Uiso   1.00
O86    O     0.84435   0.34070   0.67330   0.00000  Uiso   1.00
N87    N     0.05220   0.88336   0.53604   0.00000  Uiso   1.00
N88    N     0.29819   0.89134   0.24316   0.00000  Uiso   1.00
N89    N     0.78473   0.26438   0.57034   0.00000  Uiso   1.00
N90    N     0.11252   0.83326   0.64476   0.00000  Uiso   1.00
N91    N     0.35851   0.84124   0.35187   0.00000  Uiso   1.00
N92    N     0.84505   0.21428   0.67906   0.00000  Uiso   1.00
C93    C     0.14012   0.43046   0.42152   0.00000  Uiso   1.00
C94    C     0.12019   0.49810   0.44490   0.00000  Uiso   1.00
C95    C     0.01101   0.51921   0.40794   0.00000  Uiso   1.00
C96    C     0.01155   0.58286   0.43822   0.00000  Uiso   1.00
C97    C     0.96447   0.68167   0.46460   0.00000  Uiso   1.00
C98    C     0.19236   0.45713   0.39688   0.00000  Uiso   1.00
C99    C     0.14385   0.44378   0.31954   0.00000  Uiso   1.00
C100   C     0.20516   0.47294   0.30940   0.00000  Uiso   1.00
C101   C     0.27017   0.50809   0.26126   0.00000  Uiso   1.00
C102   C     0.24153   0.38791   0.50468   0.00000  Uiso   1.00
C103   C     0.23439   0.31635   0.51800   0.00000  Uiso   1.00
C104   C     0.33712   0.28721   0.59862   0.00000  Uiso   1.00
C105   C     0.47847   0.21488   0.71787   0.00000  Uiso   1.00
C106   C     0.33525   0.50596   0.54102   0.00000  Uiso   1.00
C107   C     0.22618   0.53911   0.50980   0.00000  Uiso   1.00
C108   C     0.22689   0.60274   0.54015   0.00000  Uiso   1.00
C109   C     0.11773   0.62395   0.50324   0.00000  Uiso   1.00
C110   C     0.29834   0.49814   0.46178   0.00000  Uiso   1.00
C111   C     0.35974   0.52731   0.45175   0.00000  Uiso   1.00
C112   C     0.31134   0.51402   0.37443   0.00000  Uiso   1.00
C113   C     0.34752   0.42891   0.56959   0.00000  Uiso   1.00
C114   C     0.45028   0.39988   0.65021   0.00000  Uiso   1.00
C115   C     0.44329   0.32830   0.66364   0.00000  Uiso   1.00
H116   H     0.05761   0.39854   0.37099   0.00000  Uiso   1.00
H117   H     0.92900   0.48746   0.35770   0.00000  Uiso   1.00
H118   H     0.06184   0.41204   0.26933   0.00000  Uiso   1.00
H119   H     0.15236   0.28463   0.46775   0.00000  Uiso   1.00
H120   H     0.83315   0.60416   0.37158   0.00000  Uiso   1.00
H121   H     0.11326   0.44510   0.18525   0.00000  Uiso   1.00
H122   H     0.30415   0.17642   0.60366   0.00000  Uiso   1.00
H123   H     0.41777   0.53789   0.59156   0.00000  Uiso   1.00
H124   H     0.30892   0.63447   0.59038   0.00000  Uiso   1.00
H125   H     0.44176   0.55904   0.50200   0.00000  Uiso   1.00
H126   H     0.53228   0.43163   0.70042   0.00000  Uiso   1.00
H127   H     0.14150   0.72347   0.56042   0.00000  Uiso   1.00
H128   H     0.42162   0.56441   0.37409   0.00000  Uiso   1.00
H129   H     0.61250   0.29574   0.79250   0.00000  Uiso   1.00
O130   O     0.90921   0.72484   0.46122   0.00000  Uiso   1.00
O131   O     0.27673   0.51615   0.21677   0.00000  Uiso   1.00
O132   O     0.52716   0.16366   0.76572   0.00000  Uiso   1.00
N133   N     0.92066   0.61898   0.41619   0.00000  Uiso   1.00
N134   N     0.18254   0.47027   0.24198   0.00000  Uiso   1.00
N135   N     0.36101   0.21908   0.63315   0.00000  Uiso   1.00
N136   N     0.08659   0.68318   0.51781   0.00000  Uiso   1.00
N137   N     0.34847   0.53448   0.34360   0.00000  Uiso   1.00
N138   N     0.52694   0.28328   0.73477   0.00000  Uiso   1.00
C139   C     0.29354   0.51745   0.05969   0.00000  Uiso   1.00
C140   C     0.18350   0.46826   0.00673   0.00000  Uiso   1.00
C141   C     0.12459   0.45480   0.02277   0.00000  Uiso   1.00
C142   C     0.02567   0.40815   0.96684   0.00000  Uiso   1.00
C143   C     0.86071   0.33661   0.89520   0.00000  Uiso   1.00
C144   C     0.39131   0.47044   0.08746   0.00000  Uiso   1.00
C145   C     0.50713   0.45884   0.17136   0.00000  Uiso   1.00
C146   C     0.58314   0.41403   0.18338   0.00000  Uiso   1.00
C147   C     0.74083   0.34593   0.23706   0.00000  Uiso   1.00
C148   C     0.25720   0.57325   0.99728   0.00000  Uiso   1.00
C149   C     0.26029   0.64809   0.00537   0.00000  Uiso   1.00
C150   C     0.22342   0.68985   0.94148   0.00000  Uiso   1.00
C151   C     0.17289   0.78137   0.85515   0.00000  Uiso   1.00
C152   C     0.22260   0.45853   0.93185   0.00000  Uiso   1.00
C153   C     0.14498   0.43626   0.93729   0.00000  Uiso   1.00
C154   C     0.04611   0.38962   0.88132   0.00000  Uiso   1.00
C155   C     0.98707   0.37609   0.89727   0.00000  Uiso   1.00
C156   C     0.35278   0.43844   0.01802   0.00000  Uiso   1.00
C157   C     0.42865   0.39365   0.02992   0.00000  Uiso   1.00
C158   C     0.54454   0.38197   0.11382   0.00000  Uiso   1.00
C159   C     0.21867   0.54125   0.92784   0.00000  Uiso   1.00
C160   C     0.18180   0.58290   0.86392   0.00000  Uiso   1.00
C161   C     0.18483   0.65779   0.87192   0.00000  Uiso   1.00
H162   H     0.32354   0.54236   0.11376   0.00000  Uiso   1.00
H163   H     0.15444   0.47957   0.07652   0.00000  Uiso   1.00
H164   H     0.53692   0.48361   0.22509   0.00000  Uiso   1.00
H165   H     0.29011   0.67283   0.05912   0.00000  Uiso   1.00
H166   H     0.95001   0.39583   0.00463   0.00000  Uiso   1.00
H167   H     0.75649   0.40437   0.31789   0.00000  Uiso   1.00
H168   H     0.23605   0.80338   0.96792   0.00000  Uiso   1.00
H169   H     0.19261   0.43361   0.87778   0.00000  Uiso   1.00
H170   H     0.01632   0.36486   0.82759   0.00000  Uiso   1.00
H171   H     0.39880   0.36890   0.97616   0.00000  Uiso   1.00
H172   H     0.15199   0.55812   0.81020   0.00000  Uiso   1.00
H173   H     0.83790   0.30272   0.80259   0.00000  Uiso   1.00
H174   H     0.64439   0.31126   0.11586   0.00000  Uiso   1.00
H175   H     0.12395   0.71027   0.76588   0.00000  Uiso   1.00
O176   O     0.78038   0.30599   0.87487   0.00000  Uiso   1.00
O177   O     0.83846   0.31721   0.28586   0.00000  Uiso   1.00
O178   O     0.15565   0.84070   0.82670   0.00000  Uiso   1.00
N179   N     0.94780   0.38336   0.96396   0.00000  Uiso   1.00
N180   N     0.70181   0.39134   0.25684   0.00000  Uiso   1.00
N181   N     0.21527   0.76438   0.92966   0.00000  Uiso   1.00
N182   N     0.88748   0.33326   0.85524   0.00000  Uiso   1.00
N183   N     0.64149   0.34124   0.14813   0.00000  Uiso   1.00
N184   N     0.15495   0.71428   0.82094   0.00000  Uiso   1.00
C185   C     0.14012   0.06954   0.92152   0.00000  Uiso   1.00
C186   C     0.12019   0.00190   0.94490   0.00000  Uiso   1.00
C187   C     0.01101   0.98079   0.90794   0.00000  Uiso   1.00
C188   C     0.01155   0.91714   0.93822   0.00000  Uiso   1.00
C189   C     0.96447   0.81833   0.96460   0.00000  Uiso   1.00
C190   C     0.19236   0.04287   0.89688   0.00000  Uiso   1.00
C191   C     0.14385   0.05622   0.81954   0.00000  Uiso   1.00
C192   C     0.20516   0.02706   0.80940   0.00000  Uiso   1.00
C193   C     0.27017   0.99191   0.76126   0.00000  Uiso   1.00
C194   C     0.24153   0.11209   0.00468   0.00000  Uiso   1.00
C195   C     0.23439   0.18365   0.01800   0.00000  Uiso   1.00
C196   C     0.33712   0.21279   0.09862   0.00000  Uiso   1.00
C197   C     0.47847   0.28512   0.21787   0.00000  Uiso   1.00
C198   C     0.33525   0.99404   0.04102   0.00000  Uiso   1.00
C199   C     0.22618   0.96089   0.00980   0.00000  Uiso   1.00
C200   C     0.22689   0.89726   0.04015   0.00000  Uiso   1.00
C201   C     0.11773   0.87605   0.00324   0.00000  Uiso   1.00
C202   C     0.29834   0.00186   0.96178   0.00000  Uiso   1.00
C203   C     0.35974   0.97269   0.95175   0.00000  Uiso   1.00
C204   C     0.31134   0.98598   0.87443   0.00000  Uiso   1.00
C205   C     0.34752   0.07109   0.06959   0.00000  Uiso   1.00
C206   C     0.45028   0.10012   0.15021   0.00000  Uiso   1.00
C207   C     0.44329   0.17170   0.16364   0.00000  Uiso   1.00
H208   H     0.05761   0.10146   0.87099   0.00000  Uiso   1.00
H209   H     0.92900   0.01254   0.85770   0.00000  Uiso   1.00
H210   H     0.06184   0.08796   0.76933   0.00000  Uiso   1.00
H211   H     0.15236   0.21537   0.96775   0.00000  Uiso   1.00
H212   H     0.83315   0.89584   0.87158   0.00000  Uiso   1.00
H213   H     0.11326   0.05490   0.68525   0.00000  Uiso   1.00
H214   H     0.30415   0.32358   0.10366   0.00000  Uiso   1.00
H215   H     0.41777   0.96211   0.09156   0.00000  Uiso   1.00
H216   H     0.30892   0.86553   0.09038   0.00000  Uiso   1.00
H217   H     0.44176   0.94096   0.00200   0.00000  Uiso   1.00
H218   H     0.53228   0.06837   0.20042   0.00000  Uiso   1.00
H219   H     0.14150   0.77653   0.06042   0.00000  Uiso   1.00
H220   H     0.42162   0.93559   0.87409   0.00000  Uiso   1.00
H221   H     0.61250   0.20426   0.29250   0.00000  Uiso   1.00
O222   O     0.90921   0.77516   0.96122   0.00000  Uiso   1.00
O223   O     0.27673   0.98385   0.71677   0.00000  Uiso   1.00
O224   O     0.52716   0.33634   0.26572   0.00000  Uiso   1.00
N225   N     0.92066   0.88102   0.91619   0.00000  Uiso   1.00
N226   N     0.18254   0.02973   0.74198   0.00000  Uiso   1.00
N227   N     0.36101   0.28092   0.13315   0.00000  Uiso   1.00
N228   N     0.08659   0.81682   0.01781   0.00000  Uiso   1.00
N229   N     0.34847   0.96552   0.84360   0.00000  Uiso   1.00
N230   N     0.52694   0.21672   0.23477   0.00000  Uiso   1.00
C231   C     0.29354   0.98255   0.55969   0.00000  Uiso   1.00
C232   C     0.18350   0.03174   0.50673   0.00000  Uiso   1.00
C233   C     0.12459   0.04520   0.52277   0.00000  Uiso   1.00
C234   C     0.02567   0.09185   0.46684   0.00000  Uiso   1.00
C235   C     0.86071   0.16339   0.39520   0.00000  Uiso   1.00
C236   C     0.39131   0.02956   0.58746   0.00000  Uiso   1.00
C237   C     0.50713   0.04116   0.67136   0.00000  Uiso   1.00
C238   C     0.58314   0.08597   0.68338   0.00000  Uiso   1.00
C239   C     0.74083   0.15407   0.73706   0.00000  Uiso   1.00
C240   C     0.25720   0.92675   0.49728   0.00000  Uiso   1.00
C241   C     0.26029   0.85191   0.50537   0.00000  Uiso   1.00
C242   C     0.22342   0.81015   0.44148   0.00000  Uiso   1.00
C243   C     0.17289   0.71863   0.35515   0.00000  Uiso   1.00
C244   C     0.22260   0.04147   0.43185   0.00000  Uiso   1.00
C245   C     0.14498   0.06374   0.43729   0.00000  Uiso   1.00
C246   C     0.04611   0.11038   0.38132   0.00000  Uiso   1.00
C247   C     0.98707   0.12391   0.39727   0.00000  Uiso   1.00
C248   C     0.35278   0.06156   0.51802   0.00000  Uiso   1.00
C249   C     0.42865   0.10635   0.52992   0.00000  Uiso   1.00
C250   C     0.54454   0.11803   0.61382   0.00000  Uiso   1.00
C251   C     0.21867   0.95875   0.42784   0.00000  Uiso   1.00
C252   C     0.18180   0.91710   0.36392   0.00000  Uiso   1.00
C253   C     0.18483   0.84221   0.37192   0.00000  Uiso   1.00
H254   H     0.32354   0.95764   0.61376   0.00000  Uiso   1.00
H255   H     0.15444   0.02043   0.57652   0.00000  Uiso   1.00
H256   H     0.53692   0.01639   0.72509   0.00000  Uiso   1.00
H257   H     0.29011   0.82717   0.55912   0.00000  Uiso   1.00
H258   H     0.95001   0.10417   0.50463   0.00000  Uiso   1.00
H259   H     0.75649   0.09563   0.81789   0.00000  Uiso   1.00
H260   H     0.23605   0.69662   0.46792   0.00000  Uiso   1.00
H261   H     0.19261   0.06639   0.37778   0.00000  Uiso   1.00
H262   H     0.01632   0.13514   0.32759   0.00000  Uiso   1.00
H263   H     0.39880   0.13110   0.47616   0.00000  Uiso   1.00
H264   H     0.15199   0.94188   0.31020   0.00000  Uiso   1.00
H265   H     0.83790   0.19728   0.30259   0.00000  Uiso   1.00
H266   H     0.64439   0.18874   0.61586   0.00000  Uiso   1.00
H267   H     0.12395   0.78973   0.26588   0.00000  Uiso   1.00
O268   O     0.78038   0.19401   0.37487   0.00000  Uiso   1.00
O269   O     0.83846   0.18279   0.78586   0.00000  Uiso   1.00
O270   O     0.15565   0.65930   0.32670   0.00000  Uiso   1.00
N271   N     0.94780   0.11664   0.46396   0.00000  Uiso   1.00
N272   N     0.70181   0.10866   0.75684   0.00000  Uiso   1.00
N273   N     0.21527   0.73562   0.42966   0.00000  Uiso   1.00
N274   N     0.88748   0.16674   0.35524   0.00000  Uiso   1.00
N275   N     0.64149   0.15876   0.64813   0.00000  Uiso   1.00
N276   N     0.15495   0.78572   0.32094   0.00000  Uiso   1.00
C277   C     0.85988   0.56954   0.57848   0.00000  Uiso   1.00
C278   C     0.87981   0.50190   0.55510   0.00000  Uiso   1.00
C279   C     0.98899   0.48079   0.59206   0.00000  Uiso   1.00
C280   C     0.98845   0.41714   0.56178   0.00000  Uiso   1.00
C281   C     0.03553   0.31833   0.53540   0.00000  Uiso   1.00
C282   C     0.80764   0.54287   0.60312   0.00000  Uiso   1.00
C283   C     0.85615   0.55622   0.68046   0.00000  Uiso   1.00
C284   C     0.79484   0.52706   0.69060   0.00000  Uiso   1.00
C285   C     0.72983   0.49191   0.73874   0.00000  Uiso   1.00
C286   C     0.75847   0.61209   0.49532   0.00000  Uiso   1.00
C287   C     0.76561   0.68365   0.48200   0.00000  Uiso   1.00
C288   C     0.66288   0.71279   0.40138   0.00000  Uiso   1.00
C289   C     0.52153   0.78512   0.28213   0.00000  Uiso   1.00
C290   C     0.66475   0.49404   0.45898   0.00000  Uiso   1.00
C291   C     0.77382   0.46089   0.49020   0.00000  Uiso   1.00
C292   C     0.77311   0.39726   0.45985   0.00000  Uiso   1.00
C293   C     0.88227   0.37605   0.49676   0.00000  Uiso   1.00
C294   C     0.70166   0.50186   0.53822   0.00000  Uiso   1.00
C295   C     0.64026   0.47269   0.54825   0.00000  Uiso   1.00
C296   C     0.68866   0.48598   0.62557   0.00000  Uiso   1.00
C297   C     0.65248   0.57109   0.43041   0.00000  Uiso   1.00
C298   C     0.54972   0.60012   0.34979   0.00000  Uiso   1.00
C299   C     0.55671   0.67170   0.33636   0.00000  Uiso   1.00
H300   H     0.94239   0.60146   0.62901   0.00000  Uiso   1.00
H301   H     0.07100   0.51254   0.64230   0.00000  Uiso   1.00
H302   H     0.93816   0.58796   0.73067   0.00000  Uiso   1.00
H303   H     0.84764   0.71537   0.53225   0.00000  Uiso   1.00
H304   H     0.16685   0.39584   0.62842   0.00000  Uiso   1.00
H305   H     0.88674   0.55490   0.81475   0.00000  Uiso   1.00
H306   H     0.69585   0.82358   0.39634   0.00000  Uiso   1.00
H307   H     0.58223   0.46211   0.40844   0.00000  Uiso   1.00
H308   H     0.69108   0.36553   0.40962   0.00000  Uiso   1.00
H309   H     0.55824   0.44096   0.49800   0.00000  Uiso   1.00
H310   H     0.46772   0.56837   0.29958   0.00000  Uiso   1.00
H311   H     0.85850   0.27653   0.43958   0.00000  Uiso   1.00
H312   H     0.57838   0.43559   0.62591   0.00000  Uiso   1.00
H313   H     0.38750   0.70426   0.20750   0.00000  Uiso   1.00
O314   O     0.09079   0.27516   0.53878   0.00000  Uiso   1.00
O315   O     0.72327   0.48385   0.78323   0.00000  Uiso   1.00
O316   O     0.47284   0.83634   0.23428   0.00000  Uiso   1.00
N317   N     0.07934   0.38102   0.58381   0.00000  Uiso   1.00
N318   N     0.81746   0.52973   0.75802   0.00000  Uiso   1.00
N319   N     0.63899   0.78092   0.36685   0.00000  Uiso   1.00
N320   N     0.91341   0.31682   0.48219   0.00000  Uiso   1.00
N321   N     0.65153   0.46552   0.65640   0.00000  Uiso   1.00
N322   N     0.47306   0.71672   0.26523   0.00000  Uiso   1.00
C323   C     0.70646   0.48255   0.94031   0.00000  Uiso   1.00
C324   C     0.81650   0.53174   0.99327   0.00000  Uiso   1.00
C325   C     0.87541   0.54520   0.97723   0.00000  Uiso   1.00
C326   C     0.97433   0.59185   0.03316   0.00000  Uiso   1.00
C327   C     0.13929   0.66339   0.10480   0.00000  Uiso   1.00
C328   C     0.60869   0.52956   0.91254   0.00000  Uiso   1.00
C329   C     0.49287   0.54116   0.82864   0.00000  Uiso   1.00
C330   C     0.41686   0.58597   0.81662   0.00000  Uiso   1.00
C331   C     0.25917   0.65407   0.76294   0.00000  Uiso   1.00
C332   C     0.74280   0.42675   0.00272   0.00000  Uiso   1.00
C333   C     0.73971   0.35191   0.99463   0.00000  Uiso   1.00
C334   C     0.77658   0.31015   0.05852   0.00000  Uiso   1.00
C335   C     0.82711   0.21863   0.14485   0.00000  Uiso   1.00
C336   C     0.77740   0.54147   0.06815   0.00000  Uiso   1.00
C337   C     0.85502   0.56374   0.06271   0.00000  Uiso   1.00
C338   C     0.95389   0.61038   0.11868   0.00000  Uiso   1.00
C339   C     0.01293   0.62391   0.10273   0.00000  Uiso   1.00
C340   C     0.64722   0.56156   0.98198   0.00000  Uiso   1.00
C341   C     0.57135   0.60635   0.97008   0.00000  Uiso   1.00
C342   C     0.45546   0.61803   0.88618   0.00000  Uiso   1.00
C343   C     0.78133   0.45875   0.07216   0.00000  Uiso   1.00
C344   C     0.81820   0.41710   0.13608   0.00000  Uiso   1.00
C345   C     0.81517   0.34221   0.12808   0.00000  Uiso   1.00
H346   H     0.67646   0.45764   0.88624   0.00000  Uiso   1.00
H347   H     0.84556   0.52043   0.92348   0.00000  Uiso   1.00
H348   H     0.46308   0.51639   0.77491   0.00000  Uiso   1.00
H349   H     0.70989   0.32717   0.94088   0.00000  Uiso   1.00
H350   H     0.04999   0.60417   0.99537   0.00000  Uiso   1.00
H351   H     0.24351   0.59563   0.68211   0.00000  Uiso   1.00
H352   H     0.76395   0.19662   0.03208   0.00000  Uiso   1.00
H353   H     0.80739   0.56639   0.12222   0.00000  Uiso   1.00
H354   H     0.98368   0.63514   0.17241   0.00000  Uiso   1.00
H355   H     0.60120   0.63110   0.02384   0.00000  Uiso   1.00
H356   H     0.84801   0.44188   0.18980   0.00000  Uiso   1.00
H357   H     0.16210   0.69728   0.19741   0.00000  Uiso   1.00
H358   H     0.35561   0.68874   0.88414   0.00000  Uiso   1.00
H359   H     0.87605   0.28973   0.23412   0.00000  Uiso   1.00
O360   O     0.21962   0.69401   0.12513   0.00000  Uiso   1.00
O361   O     0.16154   0.68279   0.71414   0.00000  Uiso   1.00
O362   O     0.84435   0.15930   0.17330   0.00000  Uiso   1.00
N363   N     0.05220   0.61664   0.03604   0.00000  Uiso   1.00
N364   N     0.29819   0.60866   0.74316   0.00000  Uiso   1.00
N365   N     0.78473   0.23562   0.07034   0.00000  Uiso   1.00
N366   N     0.11252   0.66674   0.14476   0.00000  Uiso   1.00
N367   N     0.35851   0.65876   0.85187   0.00000  Uiso   1.00
N368   N     0.84505   0.28572   0.17906   0.00000  Uiso   1.00
