data_job_05517
_audit_creation_date              2018-12-19
_audit_creation_method            'Materials Studio'
_symmetry_space_group_name_H-M    'P1'
_symmetry_Int_Tables_number       1
_symmetry_cell_setting            triclinic
loop_
_symmetry_equiv_pos_as_xyz
  x,y,z
_cell_length_a                    31.6491
_cell_length_b                    10.1189
_cell_length_c                    7.6408
_cell_angle_alpha                 90.0000
_cell_angle_beta                  90.0000
_cell_angle_gamma                 90.0000
loop_
_atom_site_label
_atom_site_type_symbol
_atom_site_fract_x
_atom_site_fract_y
_atom_site_fract_z
_atom_site_U_iso_or_equiv
_atom_site_adp_type
_atom_site_occupancy
C1     C     0.12615   0.51274   0.01749   0.00000  Uiso   1.00
C2     C     0.11854   0.40169   0.88631   0.00000  Uiso   1.00
C3     C     0.11991   0.26742   0.92290   0.00000  Uiso   1.00
C4     C     0.11206   0.18160   0.78492   0.00000  Uiso   1.00
C5     C     0.10163   0.00203   0.60682   0.00000  Uiso   1.00
C6     C     0.16189   0.59616   0.94195   0.00000  Uiso   1.00
C7     C     0.19971   0.62542   0.02535   0.00000  Uiso   1.00
C8     C     0.22834   0.70331   0.93420   0.00000  Uiso   1.00
C9     C     0.28519   0.82575   0.84255   0.00000  Uiso   1.00
C10    C     0.08679   0.59953   0.01169   0.00000  Uiso   1.00
C11    C     0.06146   0.63166   0.15372   0.00000  Uiso   1.00
C12    C     0.02687   0.71243   0.12130   0.00000  Uiso   1.00
C13    C     0.96711   0.84010   0.13792   0.00000  Uiso   1.00
C14    C     0.10976   0.59908   0.70736   0.00000  Uiso   1.00
C15    C     0.10964   0.44859   0.71785   0.00000  Uiso   1.00
C16    C     0.10178   0.36294   0.57978   0.00000  Uiso   1.00
C17    C     0.10314   0.22857   0.61616   0.00000  Uiso   1.00
C18    C     0.15299   0.64305   0.77350   0.00000  Uiso   1.00
C19    C     0.18158   0.72093   0.68222   0.00000  Uiso   1.00
C20    C     0.21943   0.75029   0.76545   0.00000  Uiso   1.00
C21    C     0.07788   0.64643   0.84323   0.00000  Uiso   1.00
C22    C     0.04333   0.72717   0.81059   0.00000  Uiso   1.00
C23    C     0.01795   0.75941   0.95254   0.00000  Uiso   1.00
H24    H     0.13308   0.47624   0.14864   0.00000  Uiso   1.00
H25    H     0.12681   0.23117   0.05328   0.00000  Uiso   1.00
H26    H     0.20658   0.58912   0.15571   0.00000  Uiso   1.00
H27    H     0.06836   0.59536   0.28406   0.00000  Uiso   1.00
H28    H     0.11594   0.98015   0.87326   0.00000  Uiso   1.00
H29    H     0.28415   0.73495   0.08926   0.00000  Uiso   1.00
H30    H     0.99267   0.74810   0.35991   0.00000  Uiso   1.00
H31    H     0.10283   0.63559   0.57621   0.00000  Uiso   1.00
H32    H     0.09490   0.39926   0.44943   0.00000  Uiso   1.00
H33    H     0.17468   0.75721   0.55186   0.00000  Uiso   1.00
H34    H     0.03645   0.76345   0.68021   0.00000  Uiso   1.00
H35    H     0.09005   0.11658   0.38315   0.00000  Uiso   1.00
H36    H     0.25826   0.87138   0.59916   0.00000  Uiso   1.00
H37    H     0.96678   0.88453   0.86980   0.00000  Uiso   1.00
O38    O     0.09833   0.89003   0.55512   0.00000  Uiso   1.00
O39    O     0.31901   0.88031   0.83853   0.00000  Uiso   1.00
O40    O     0.93660   0.89756   0.19361   0.00000  Uiso   1.00
N41    N     0.11093   0.04469   0.77532   0.00000  Uiso   1.00
N42    N     0.26820   0.75036   0.97726   0.00000  Uiso   1.00
N43    N     0.99569   0.76269   0.23030   0.00000  Uiso   1.00
N44    N     0.09699   0.11810   0.51159   0.00000  Uiso   1.00
N45    N     0.25426   0.82377   0.71353   0.00000  Uiso   1.00
N46    N     0.98176   0.83610   0.96658   0.00000  Uiso   1.00
C47    C     0.87385   0.48726   0.01749   0.00000  Uiso   1.00
C48    C     0.88146   0.59831   0.88631   0.00000  Uiso   1.00
C49    C     0.88009   0.73258   0.92290   0.00000  Uiso   1.00
C50    C     0.88794   0.81840   0.78492   0.00000  Uiso   1.00
C51    C     0.89837   0.99797   0.60682   0.00000  Uiso   1.00
C52    C     0.83811   0.40384   0.94195   0.00000  Uiso   1.00
C53    C     0.80029   0.37458   0.02535   0.00000  Uiso   1.00
C54    C     0.77166   0.29669   0.93420   0.00000  Uiso   1.00
C55    C     0.71481   0.17425   0.84255   0.00000  Uiso   1.00
C56    C     0.91321   0.40047   0.01169   0.00000  Uiso   1.00
C57    C     0.93854   0.36834   0.15372   0.00000  Uiso   1.00
C58    C     0.97313   0.28757   0.12130   0.00000  Uiso   1.00
C59    C     0.03289   0.15990   0.13792   0.00000  Uiso   1.00
C60    C     0.89024   0.40092   0.70736   0.00000  Uiso   1.00
C61    C     0.89036   0.55141   0.71785   0.00000  Uiso   1.00
C62    C     0.89822   0.63706   0.57978   0.00000  Uiso   1.00
C63    C     0.89686   0.77143   0.61616   0.00000  Uiso   1.00
C64    C     0.84701   0.35695   0.77350   0.00000  Uiso   1.00
C65    C     0.81842   0.27907   0.68222   0.00000  Uiso   1.00
C66    C     0.78057   0.24971   0.76545   0.00000  Uiso   1.00
C67    C     0.92212   0.35357   0.84323   0.00000  Uiso   1.00
C68    C     0.95667   0.27283   0.81059   0.00000  Uiso   1.00
C69    C     0.98205   0.24059   0.95254   0.00000  Uiso   1.00
H70    H     0.86692   0.52376   0.14864   0.00000  Uiso   1.00
H71    H     0.87319   0.76883   0.05328   0.00000  Uiso   1.00
H72    H     0.79342   0.41088   0.15571   0.00000  Uiso   1.00
H73    H     0.93164   0.40464   0.28406   0.00000  Uiso   1.00
H74    H     0.88406   0.01985   0.87326   0.00000  Uiso   1.00
H75    H     0.71585   0.26505   0.08926   0.00000  Uiso   1.00
H76    H     0.00733   0.25190   0.35991   0.00000  Uiso   1.00
H77    H     0.89717   0.36441   0.57621   0.00000  Uiso   1.00
H78    H     0.90510   0.60074   0.44943   0.00000  Uiso   1.00
H79    H     0.82532   0.24279   0.55186   0.00000  Uiso   1.00
H80    H     0.96355   0.23655   0.68021   0.00000  Uiso   1.00
H81    H     0.90995   0.88342   0.38315   0.00000  Uiso   1.00
H82    H     0.74174   0.12862   0.59916   0.00000  Uiso   1.00
H83    H     0.03322   0.11547   0.86980   0.00000  Uiso   1.00
O84    O     0.90167   0.10997   0.55512   0.00000  Uiso   1.00
O85    O     0.68099   0.11969   0.83853   0.00000  Uiso   1.00
O86    O     0.06340   0.10244   0.19361   0.00000  Uiso   1.00
N87    N     0.88907   0.95531   0.77532   0.00000  Uiso   1.00
N88    N     0.73180   0.24964   0.97726   0.00000  Uiso   1.00
N89    N     0.00431   0.23731   0.23030   0.00000  Uiso   1.00
N90    N     0.90301   0.88190   0.51159   0.00000  Uiso   1.00
N91    N     0.74574   0.17623   0.71353   0.00000  Uiso   1.00
N92    N     0.01824   0.16390   0.96658   0.00000  Uiso   1.00
C93    C     0.62615   0.98726   0.51749   0.00000  Uiso   1.00
C94    C     0.61854   0.09831   0.38631   0.00000  Uiso   1.00
C95    C     0.61991   0.23258   0.42290   0.00000  Uiso   1.00
C96    C     0.61206   0.31840   0.28492   0.00000  Uiso   1.00
C97    C     0.60163   0.49797   0.10682   0.00000  Uiso   1.00
C98    C     0.66189   0.90384   0.44195   0.00000  Uiso   1.00
C99    C     0.69971   0.87458   0.52535   0.00000  Uiso   1.00
C100   C     0.72834   0.79669   0.43420   0.00000  Uiso   1.00
C101   C     0.78519   0.67425   0.34255   0.00000  Uiso   1.00
C102   C     0.58679   0.90047   0.51169   0.00000  Uiso   1.00
C103   C     0.56146   0.86834   0.65372   0.00000  Uiso   1.00
C104   C     0.52687   0.78757   0.62130   0.00000  Uiso   1.00
C105   C     0.46711   0.65990   0.63792   0.00000  Uiso   1.00
C106   C     0.60976   0.90092   0.20736   0.00000  Uiso   1.00
C107   C     0.60964   0.05141   0.21785   0.00000  Uiso   1.00
C108   C     0.60178   0.13706   0.07978   0.00000  Uiso   1.00
C109   C     0.60314   0.27143   0.11616   0.00000  Uiso   1.00
C110   C     0.65299   0.85695   0.27350   0.00000  Uiso   1.00
C111   C     0.68158   0.77907   0.18222   0.00000  Uiso   1.00
C112   C     0.71943   0.74971   0.26545   0.00000  Uiso   1.00
C113   C     0.57788   0.85357   0.34323   0.00000  Uiso   1.00
C114   C     0.54333   0.77283   0.31059   0.00000  Uiso   1.00
C115   C     0.51795   0.74059   0.45254   0.00000  Uiso   1.00
H116   H     0.63308   0.02376   0.64864   0.00000  Uiso   1.00
H117   H     0.62681   0.26883   0.55328   0.00000  Uiso   1.00
H118   H     0.70658   0.91088   0.65571   0.00000  Uiso   1.00
H119   H     0.56836   0.90464   0.78406   0.00000  Uiso   1.00
H120   H     0.61594   0.51985   0.37326   0.00000  Uiso   1.00
H121   H     0.78415   0.76505   0.58926   0.00000  Uiso   1.00
H122   H     0.49267   0.75190   0.85991   0.00000  Uiso   1.00
H123   H     0.60283   0.86441   0.07621   0.00000  Uiso   1.00
H124   H     0.59490   0.10074   0.94943   0.00000  Uiso   1.00
H125   H     0.67468   0.74279   0.05186   0.00000  Uiso   1.00
H126   H     0.53645   0.73655   0.18021   0.00000  Uiso   1.00
H127   H     0.59005   0.38342   0.88315   0.00000  Uiso   1.00
H128   H     0.75826   0.62862   0.09916   0.00000  Uiso   1.00
H129   H     0.46678   0.61547   0.36980   0.00000  Uiso   1.00
O130   O     0.59833   0.60997   0.05512   0.00000  Uiso   1.00
O131   O     0.81901   0.61969   0.33853   0.00000  Uiso   1.00
O132   O     0.43660   0.60244   0.69361   0.00000  Uiso   1.00
N133   N     0.61093   0.45531   0.27532   0.00000  Uiso   1.00
N134   N     0.76820   0.74964   0.47726   0.00000  Uiso   1.00
N135   N     0.49569   0.73731   0.73030   0.00000  Uiso   1.00
N136   N     0.59699   0.38190   0.01159   0.00000  Uiso   1.00
N137   N     0.75426   0.67623   0.21353   0.00000  Uiso   1.00
N138   N     0.48176   0.66390   0.46658   0.00000  Uiso   1.00
C139   C     0.37385   0.01274   0.51749   0.00000  Uiso   1.00
C140   C     0.38146   0.90169   0.38631   0.00000  Uiso   1.00
C141   C     0.38009   0.76742   0.42290   0.00000  Uiso   1.00
C142   C     0.38794   0.68160   0.28492   0.00000  Uiso   1.00
C143   C     0.39837   0.50203   0.10682   0.00000  Uiso   1.00
C144   C     0.33811   0.09616   0.44195   0.00000  Uiso   1.00
C145   C     0.30029   0.12542   0.52535   0.00000  Uiso   1.00
C146   C     0.27166   0.20331   0.43420   0.00000  Uiso   1.00
C147   C     0.21481   0.32575   0.34255   0.00000  Uiso   1.00
C148   C     0.41321   0.09953   0.51169   0.00000  Uiso   1.00
C149   C     0.43854   0.13166   0.65372   0.00000  Uiso   1.00
C150   C     0.47313   0.21243   0.62130   0.00000  Uiso   1.00
C151   C     0.53289   0.34010   0.63792   0.00000  Uiso   1.00
C152   C     0.39024   0.09908   0.20736   0.00000  Uiso   1.00
C153   C     0.39036   0.94859   0.21785   0.00000  Uiso   1.00
C154   C     0.39822   0.86294   0.07978   0.00000  Uiso   1.00
C155   C     0.39686   0.72857   0.11616   0.00000  Uiso   1.00
C156   C     0.34701   0.14305   0.27350   0.00000  Uiso   1.00
C157   C     0.31842   0.22093   0.18222   0.00000  Uiso   1.00
C158   C     0.28057   0.25029   0.26545   0.00000  Uiso   1.00
C159   C     0.42212   0.14643   0.34323   0.00000  Uiso   1.00
C160   C     0.45667   0.22717   0.31059   0.00000  Uiso   1.00
C161   C     0.48205   0.25941   0.45254   0.00000  Uiso   1.00
H162   H     0.36692   0.97624   0.64864   0.00000  Uiso   1.00
H163   H     0.37319   0.73117   0.55328   0.00000  Uiso   1.00
H164   H     0.29342   0.08912   0.65571   0.00000  Uiso   1.00
H165   H     0.43164   0.09536   0.78406   0.00000  Uiso   1.00
H166   H     0.38406   0.48015   0.37326   0.00000  Uiso   1.00
H167   H     0.21585   0.23495   0.58926   0.00000  Uiso   1.00
H168   H     0.50733   0.24810   0.85991   0.00000  Uiso   1.00
H169   H     0.39717   0.13559   0.07621   0.00000  Uiso   1.00
H170   H     0.40510   0.89926   0.94943   0.00000  Uiso   1.00
H171   H     0.32532   0.25721   0.05186   0.00000  Uiso   1.00
H172   H     0.46355   0.26345   0.18021   0.00000  Uiso   1.00
H173   H     0.40995   0.61658   0.88315   0.00000  Uiso   1.00
H174   H     0.24174   0.37138   0.09916   0.00000  Uiso   1.00
H175   H     0.53322   0.38453   0.36980   0.00000  Uiso   1.00
O176   O     0.40167   0.39003   0.05512   0.00000  Uiso   1.00
O177   O     0.18099   0.38031   0.33853   0.00000  Uiso   1.00
O178   O     0.56340   0.39756   0.69361   0.00000  Uiso   1.00
N179   N     0.38907   0.54469   0.27532   0.00000  Uiso   1.00
N180   N     0.23180   0.25036   0.47726   0.00000  Uiso   1.00
N181   N     0.50431   0.26269   0.73030   0.00000  Uiso   1.00
N182   N     0.40301   0.61810   0.01159   0.00000  Uiso   1.00
N183   N     0.24574   0.32377   0.21353   0.00000  Uiso   1.00
N184   N     0.51824   0.33610   0.46658   0.00000  Uiso   1.00
