data_job_01338
_audit_creation_date              2018-12-19
_audit_creation_method            'Materials Studio'
_symmetry_space_group_name_H-M    'P1'
_symmetry_Int_Tables_number       1
_symmetry_cell_setting            triclinic
loop_
_symmetry_equiv_pos_as_xyz
  x,y,z
_cell_length_a                    11.5718
_cell_length_b                    12.4489
_cell_length_c                    12.5688
_cell_angle_alpha                 102.0942
_cell_angle_beta                  63.4047
_cell_angle_gamma                 90.4660
loop_
_atom_site_label
_atom_site_type_symbol
_atom_site_fract_x
_atom_site_fract_y
_atom_site_fract_z
_atom_site_U_iso_or_equiv
_atom_site_adp_type
_atom_site_occupancy
C1     C     0.61018   0.27446   0.09875   0.00000  Uiso   1.00
C2     C     0.67017   0.38241   0.07804   0.00000  Uiso   1.00
C3     C     0.60646   0.48760   0.13658   0.00000  Uiso   1.00
C4     C     0.67835   0.57578   0.10489   0.00000  Uiso   1.00
C5     C     0.75157   0.74593   0.08594   0.00000  Uiso   1.00
C6     C     0.63096   0.20860   0.97368   0.00000  Uiso   1.00
C7     C     0.53428   0.16764   0.94449   0.00000  Uiso   1.00
C8     C     0.57318   0.10950   0.82496   0.00000  Uiso   1.00
C9     C     0.58554   0.00973   0.64403   0.00000  Uiso   1.00
C10    C     0.69455   0.21149   0.13460   0.00000  Uiso   1.00
C11    C     0.65133   0.17293   0.24070   0.00000  Uiso   1.00
C12    C     0.74377   0.11719   0.25664   0.00000  Uiso   1.00
C13    C     0.85486   0.02191   0.32555   0.00000  Uiso   1.00
C14    C     0.85117   0.24401   0.93837   0.00000  Uiso   1.00
C15    C     0.80107   0.36587   0.99092   0.00000  Uiso   1.00
C16    C     0.87309   0.45392   0.95914   0.00000  Uiso   1.00
C17    C     0.80949   0.55922   0.01763   0.00000  Uiso   1.00
C18    C     0.76186   0.19207   0.88658   0.00000  Uiso   1.00
C19    C     0.80091   0.13396   0.76706   0.00000  Uiso   1.00
C20    C     0.70432   0.09293   0.73769   0.00000  Uiso   1.00
C21    C     0.82545   0.19496   0.04750   0.00000  Uiso   1.00
C22    C     0.91797   0.13926   0.06327   0.00000  Uiso   1.00
C23    C     0.87490   0.10062   0.16937   0.00000  Uiso   1.00
H24    H     0.50827   0.28732   0.16656   0.00000  Uiso   1.00
H25    H     0.50515   0.50036   0.20397   0.00000  Uiso   1.00
H26    H     0.43300   0.18044   0.01193   0.00000  Uiso   1.00
H27    H     0.55003   0.18574   0.30809   0.00000  Uiso   1.00
H28    H     0.55940   0.72926   0.20701   0.00000  Uiso   1.00
H29    H     0.40726   0.05466   0.80208   0.00000  Uiso   1.00
H30    H     0.65406   0.06582   0.42659   0.00000  Uiso   1.00
H31    H     0.95309   0.23114   0.87055   0.00000  Uiso   1.00
H32    H     0.97438   0.44110   0.89173   0.00000  Uiso   1.00
H33    H     0.90222   0.12118   0.69968   0.00000  Uiso   1.00
H34    H     0.01926   0.12648   0.99584   0.00000  Uiso   1.00
H35    H     0.94025   0.68116   0.95358   0.00000  Uiso   1.00
H36    H     0.78810   0.00656   0.54864   0.00000  Uiso   1.00
H37    H     0.03490   0.01772   0.17316   0.00000  Uiso   1.00
O38    O     0.75579   0.84434   0.09954   0.00000  Uiso   1.00
O39    O     0.55619   0.95928   0.56829   0.00000  Uiso   1.00
O40    O     0.87998   0.97393   0.38764   0.00000  Uiso   1.00
N41    N     0.64612   0.68913   0.14448   0.00000  Uiso   1.00
N42    N     0.50388   0.05843   0.76588   0.00000  Uiso   1.00
N43    N     0.73460   0.06884   0.34974   0.00000  Uiso   1.00
N44    N     0.85105   0.66325   0.00811   0.00000  Uiso   1.00
N45    N     0.70880   0.03255   0.62951   0.00000  Uiso   1.00
N46    N     0.93953   0.04296   0.21337   0.00000  Uiso   1.00
C47    C     0.38982   0.72554   0.90125   0.00000  Uiso   1.00
C48    C     0.32983   0.61759   0.92196   0.00000  Uiso   1.00
C49    C     0.39354   0.51240   0.86342   0.00000  Uiso   1.00
C50    C     0.32165   0.42422   0.89511   0.00000  Uiso   1.00
C51    C     0.24843   0.25407   0.91406   0.00000  Uiso   1.00
C52    C     0.36904   0.79140   0.02632   0.00000  Uiso   1.00
C53    C     0.46572   0.83236   0.05551   0.00000  Uiso   1.00
C54    C     0.42682   0.89050   0.17504   0.00000  Uiso   1.00
C55    C     0.41446   0.99027   0.35597   0.00000  Uiso   1.00
C56    C     0.30545   0.78851   0.86540   0.00000  Uiso   1.00
C57    C     0.34867   0.82707   0.75930   0.00000  Uiso   1.00
C58    C     0.25623   0.88281   0.74336   0.00000  Uiso   1.00
C59    C     0.14514   0.97809   0.67445   0.00000  Uiso   1.00
C60    C     0.14883   0.75599   0.06163   0.00000  Uiso   1.00
C61    C     0.19893   0.63413   0.00908   0.00000  Uiso   1.00
C62    C     0.12691   0.54608   0.04086   0.00000  Uiso   1.00
C63    C     0.19051   0.44078   0.98237   0.00000  Uiso   1.00
C64    C     0.23814   0.80793   0.11342   0.00000  Uiso   1.00
C65    C     0.19909   0.86604   0.23294   0.00000  Uiso   1.00
C66    C     0.29568   0.90707   0.26231   0.00000  Uiso   1.00
C67    C     0.17455   0.80504   0.95250   0.00000  Uiso   1.00
C68    C     0.08203   0.86074   0.93673   0.00000  Uiso   1.00
C69    C     0.12510   0.89938   0.83063   0.00000  Uiso   1.00
H70    H     0.49173   0.71268   0.83344   0.00000  Uiso   1.00
H71    H     0.49485   0.49964   0.79603   0.00000  Uiso   1.00
H72    H     0.56700   0.81956   0.98807   0.00000  Uiso   1.00
H73    H     0.44997   0.81426   0.69191   0.00000  Uiso   1.00
H74    H     0.44060   0.27074   0.79299   0.00000  Uiso   1.00
H75    H     0.59274   0.94534   0.19792   0.00000  Uiso   1.00
H76    H     0.34594   0.93418   0.57341   0.00000  Uiso   1.00
H77    H     0.04691   0.76886   0.12945   0.00000  Uiso   1.00
H78    H     0.02562   0.55890   0.10827   0.00000  Uiso   1.00
H79    H     0.09778   0.87882   0.30032   0.00000  Uiso   1.00
H80    H     0.98074   0.87352   0.00416   0.00000  Uiso   1.00
H81    H     0.05975   0.31884   0.04642   0.00000  Uiso   1.00
H82    H     0.21190   0.99344   0.45136   0.00000  Uiso   1.00
H83    H     0.96510   0.98228   0.82684   0.00000  Uiso   1.00
O84    O     0.24421   0.15566   0.90046   0.00000  Uiso   1.00
O85    O     0.44381   0.04072   0.43171   0.00000  Uiso   1.00
O86    O     0.12002   0.02607   0.61236   0.00000  Uiso   1.00
N87    N     0.35388   0.31087   0.85552   0.00000  Uiso   1.00
N88    N     0.49612   0.94157   0.23412   0.00000  Uiso   1.00
N89    N     0.26540   0.93116   0.65026   0.00000  Uiso   1.00
N90    N     0.14895   0.33675   0.99189   0.00000  Uiso   1.00
N91    N     0.29120   0.96745   0.37049   0.00000  Uiso   1.00
N92    N     0.06047   0.95704   0.78663   0.00000  Uiso   1.00
