data_job_03412
_audit_creation_date              2018-12-19
_audit_creation_method            'Materials Studio'
_symmetry_space_group_name_H-M    'P1'
_symmetry_Int_Tables_number       1
_symmetry_cell_setting            triclinic
loop_
_symmetry_equiv_pos_as_xyz
  x,y,z
_cell_length_a                    23.2287
_cell_length_b                    13.2976
_cell_length_c                    40.2526
_cell_angle_alpha                 90.0000
_cell_angle_beta                  148.9791
_cell_angle_gamma                 90.0000
loop_
_atom_site_label
_atom_site_type_symbol
_atom_site_fract_x
_atom_site_fract_y
_atom_site_fract_z
_atom_site_U_iso_or_equiv
_atom_site_adp_type
_atom_site_occupancy
C1     C     0.60978   0.23304   0.18708   0.00000  Uiso   1.00
C2     C     0.51034   0.17961   0.12212   0.00000  Uiso   1.00
C3     C     0.41601   0.22601   0.06257   0.00000  Uiso   1.00
C4     C     0.33429   0.16391   0.00880   0.00000  Uiso   1.00
C5     C     0.17798   0.09688   0.90708   0.00000  Uiso   1.00
C6     C     0.62215   0.18843   0.22791   0.00000  Uiso   1.00
C7     C     0.62185   0.24226   0.25730   0.00000  Uiso   1.00
C8     C     0.63427   0.18758   0.29259   0.00000  Uiso   1.00
C9     C     0.65164   0.13426   0.35513   0.00000  Uiso   1.00
C10    C     0.71235   0.19894   0.21837   0.00000  Uiso   1.00
C11    C     0.78791   0.26161   0.23976   0.00000  Uiso   1.00
C12    C     0.87629   0.21578   0.26704   0.00000  Uiso   1.00
C13    C     0.03370   0.17877   0.31478   0.00000  Uiso   1.00
C14    C     0.63240   0.04023   0.19752   0.00000  Uiso   1.00
C15    C     0.52262   0.07489   0.12779   0.00000  Uiso   1.00
C16    C     0.44103   0.01270   0.07411   0.00000  Uiso   1.00
C17    C     0.34659   0.05900   0.01448   0.00000  Uiso   1.00
C18    C     0.63443   0.08371   0.23358   0.00000  Uiso   1.00
C19    C     0.64687   0.02894   0.26884   0.00000  Uiso   1.00
C20    C     0.64657   0.08267   0.29827   0.00000  Uiso   1.00
C21    C     0.72463   0.09422   0.22404   0.00000  Uiso   1.00
C22    C     0.81292   0.04828   0.25130   0.00000  Uiso   1.00
C23    C     0.88859   0.11086   0.27272   0.00000  Uiso   1.00
H24    H     0.60022   0.31457   0.18267   0.00000  Uiso   1.00
H25    H     0.40653   0.30706   0.05820   0.00000  Uiso   1.00
H26    H     0.61235   0.32330   0.25291   0.00000  Uiso   1.00
H27    H     0.77837   0.34264   0.23537   0.00000  Uiso   1.00
H28    H     0.19718   0.25255   0.92270   0.00000  Uiso   1.00
H29    H     0.63120   0.28680   0.33326   0.00000  Uiso   1.00
H30    H     0.98131   0.32759   0.29628   0.00000  Uiso   1.00
H31    H     0.64196   0.95870   0.20193   0.00000  Uiso   1.00
H32    H     0.45056   0.93166   0.07851   0.00000  Uiso   1.00
H33    H     0.65638   0.94790   0.27322   0.00000  Uiso   1.00
H34    H     0.82240   0.96724   0.25568   0.00000  Uiso   1.00
H35    H     0.23291   0.94786   0.93918   0.00000  Uiso   1.00
H36    H     0.66694   0.98211   0.34975   0.00000  Uiso   1.00
H37    H     0.01704   0.02289   0.31277   0.00000  Uiso   1.00
O38    O     0.08837   0.08883   0.84941   0.00000  Uiso   1.00
O39    O     0.65781   0.13378   0.38806   0.00000  Uiso   1.00
O40    O     0.11713   0.18728   0.33954   0.00000  Uiso   1.00
N41    N     0.23187   0.18455   0.94352   0.00000  Uiso   1.00
N42    N     0.63764   0.21658   0.32736   0.00000  Uiso   1.00
N43    N     0.96497   0.25471   0.29280   0.00000  Uiso   1.00
N44    N     0.25110   0.02060   0.95239   0.00000  Uiso   1.00
N45    N     0.65686   0.05262   0.33623   0.00000  Uiso   1.00
N46    N     0.98420   0.09075   0.30167   0.00000  Uiso   1.00
C47    C     0.10978   0.73304   0.18708   0.00000  Uiso   1.00
C48    C     0.01034   0.67961   0.12212   0.00000  Uiso   1.00
C49    C     0.91601   0.72601   0.06257   0.00000  Uiso   1.00
C50    C     0.83429   0.66391   0.00880   0.00000  Uiso   1.00
C51    C     0.67798   0.59688   0.90708   0.00000  Uiso   1.00
C52    C     0.12215   0.68843   0.22791   0.00000  Uiso   1.00
C53    C     0.12185   0.74226   0.25730   0.00000  Uiso   1.00
C54    C     0.13427   0.68758   0.29259   0.00000  Uiso   1.00
C55    C     0.15164   0.63426   0.35513   0.00000  Uiso   1.00
C56    C     0.21235   0.69894   0.21837   0.00000  Uiso   1.00
C57    C     0.28791   0.76161   0.23976   0.00000  Uiso   1.00
C58    C     0.37629   0.71578   0.26704   0.00000  Uiso   1.00
C59    C     0.53370   0.67877   0.31478   0.00000  Uiso   1.00
C60    C     0.13240   0.54023   0.19752   0.00000  Uiso   1.00
C61    C     0.02262   0.57489   0.12779   0.00000  Uiso   1.00
C62    C     0.94103   0.51270   0.07411   0.00000  Uiso   1.00
C63    C     0.84659   0.55900   0.01448   0.00000  Uiso   1.00
C64    C     0.13443   0.58371   0.23358   0.00000  Uiso   1.00
C65    C     0.14687   0.52894   0.26884   0.00000  Uiso   1.00
C66    C     0.14657   0.58267   0.29827   0.00000  Uiso   1.00
C67    C     0.22463   0.59422   0.22404   0.00000  Uiso   1.00
C68    C     0.31292   0.54828   0.25130   0.00000  Uiso   1.00
C69    C     0.38859   0.61086   0.27272   0.00000  Uiso   1.00
H70    H     0.10022   0.81457   0.18267   0.00000  Uiso   1.00
H71    H     0.90653   0.80706   0.05820   0.00000  Uiso   1.00
H72    H     0.11235   0.82330   0.25291   0.00000  Uiso   1.00
H73    H     0.27837   0.84264   0.23537   0.00000  Uiso   1.00
H74    H     0.69718   0.75255   0.92270   0.00000  Uiso   1.00
H75    H     0.13120   0.78680   0.33326   0.00000  Uiso   1.00
H76    H     0.48131   0.82759   0.29628   0.00000  Uiso   1.00
H77    H     0.14196   0.45870   0.20193   0.00000  Uiso   1.00
H78    H     0.95056   0.43166   0.07851   0.00000  Uiso   1.00
H79    H     0.15638   0.44790   0.27322   0.00000  Uiso   1.00
H80    H     0.32240   0.46724   0.25568   0.00000  Uiso   1.00
H81    H     0.73291   0.44786   0.93918   0.00000  Uiso   1.00
H82    H     0.16694   0.48211   0.34975   0.00000  Uiso   1.00
H83    H     0.51704   0.52289   0.31277   0.00000  Uiso   1.00
O84    O     0.58837   0.58883   0.84941   0.00000  Uiso   1.00
O85    O     0.15781   0.63378   0.38806   0.00000  Uiso   1.00
O86    O     0.61713   0.68728   0.33954   0.00000  Uiso   1.00
N87    N     0.73187   0.68455   0.94352   0.00000  Uiso   1.00
N88    N     0.13764   0.71658   0.32736   0.00000  Uiso   1.00
N89    N     0.46497   0.75471   0.29280   0.00000  Uiso   1.00
N90    N     0.75110   0.52060   0.95239   0.00000  Uiso   1.00
N91    N     0.15686   0.55262   0.33623   0.00000  Uiso   1.00
N92    N     0.48420   0.59075   0.30167   0.00000  Uiso   1.00
C93    C     0.39022   0.23304   0.31292   0.00000  Uiso   1.00
C94    C     0.48966   0.17961   0.37788   0.00000  Uiso   1.00
C95    C     0.58399   0.22601   0.43743   0.00000  Uiso   1.00
C96    C     0.66571   0.16391   0.49120   0.00000  Uiso   1.00
C97    C     0.82202   0.09688   0.59292   0.00000  Uiso   1.00
C98    C     0.37785   0.18843   0.27209   0.00000  Uiso   1.00
C99    C     0.37815   0.24226   0.24270   0.00000  Uiso   1.00
C100   C     0.36573   0.18758   0.20741   0.00000  Uiso   1.00
C101   C     0.34836   0.13426   0.14487   0.00000  Uiso   1.00
C102   C     0.28765   0.19894   0.28163   0.00000  Uiso   1.00
C103   C     0.21209   0.26161   0.26024   0.00000  Uiso   1.00
C104   C     0.12371   0.21578   0.23296   0.00000  Uiso   1.00
C105   C     0.96630   0.17877   0.18522   0.00000  Uiso   1.00
C106   C     0.36760   0.04023   0.30248   0.00000  Uiso   1.00
C107   C     0.47738   0.07489   0.37221   0.00000  Uiso   1.00
C108   C     0.55897   0.01270   0.42589   0.00000  Uiso   1.00
C109   C     0.65341   0.05900   0.48552   0.00000  Uiso   1.00
C110   C     0.36557   0.08371   0.26642   0.00000  Uiso   1.00
C111   C     0.35313   0.02894   0.23116   0.00000  Uiso   1.00
C112   C     0.35343   0.08267   0.20173   0.00000  Uiso   1.00
C113   C     0.27537   0.09422   0.27596   0.00000  Uiso   1.00
C114   C     0.18708   0.04828   0.24870   0.00000  Uiso   1.00
C115   C     0.11141   0.11086   0.22728   0.00000  Uiso   1.00
H116   H     0.39978   0.31457   0.31733   0.00000  Uiso   1.00
H117   H     0.59347   0.30706   0.44180   0.00000  Uiso   1.00
H118   H     0.38765   0.32330   0.24709   0.00000  Uiso   1.00
H119   H     0.22163   0.34264   0.26463   0.00000  Uiso   1.00
H120   H     0.80282   0.25255   0.57730   0.00000  Uiso   1.00
H121   H     0.36880   0.28680   0.16674   0.00000  Uiso   1.00
H122   H     0.01869   0.32759   0.20372   0.00000  Uiso   1.00
H123   H     0.35804   0.95870   0.29807   0.00000  Uiso   1.00
H124   H     0.54944   0.93166   0.42149   0.00000  Uiso   1.00
H125   H     0.34362   0.94790   0.22678   0.00000  Uiso   1.00
H126   H     0.17760   0.96724   0.24432   0.00000  Uiso   1.00
H127   H     0.76709   0.94786   0.56082   0.00000  Uiso   1.00
H128   H     0.33306   0.98211   0.15025   0.00000  Uiso   1.00
H129   H     0.98296   0.02289   0.18723   0.00000  Uiso   1.00
O130   O     0.91163   0.08883   0.65059   0.00000  Uiso   1.00
O131   O     0.34219   0.13378   0.11194   0.00000  Uiso   1.00
O132   O     0.88287   0.18728   0.16046   0.00000  Uiso   1.00
N133   N     0.76813   0.18455   0.55648   0.00000  Uiso   1.00
N134   N     0.36236   0.21658   0.17264   0.00000  Uiso   1.00
N135   N     0.03503   0.25471   0.20720   0.00000  Uiso   1.00
N136   N     0.74890   0.02060   0.54761   0.00000  Uiso   1.00
N137   N     0.34314   0.05262   0.16377   0.00000  Uiso   1.00
N138   N     0.01580   0.09075   0.19833   0.00000  Uiso   1.00
C139   C     0.89022   0.73304   0.31292   0.00000  Uiso   1.00
C140   C     0.98966   0.67961   0.37788   0.00000  Uiso   1.00
C141   C     0.08399   0.72601   0.43743   0.00000  Uiso   1.00
C142   C     0.16571   0.66391   0.49120   0.00000  Uiso   1.00
C143   C     0.32202   0.59688   0.59292   0.00000  Uiso   1.00
C144   C     0.87785   0.68843   0.27209   0.00000  Uiso   1.00
C145   C     0.87815   0.74226   0.24270   0.00000  Uiso   1.00
C146   C     0.86573   0.68758   0.20741   0.00000  Uiso   1.00
C147   C     0.84836   0.63426   0.14487   0.00000  Uiso   1.00
C148   C     0.78765   0.69894   0.28163   0.00000  Uiso   1.00
C149   C     0.71209   0.76161   0.26024   0.00000  Uiso   1.00
C150   C     0.62371   0.71578   0.23296   0.00000  Uiso   1.00
C151   C     0.46630   0.67877   0.18522   0.00000  Uiso   1.00
C152   C     0.86760   0.54023   0.30248   0.00000  Uiso   1.00
C153   C     0.97738   0.57489   0.37221   0.00000  Uiso   1.00
C154   C     0.05897   0.51270   0.42589   0.00000  Uiso   1.00
C155   C     0.15341   0.55900   0.48552   0.00000  Uiso   1.00
C156   C     0.86557   0.58371   0.26642   0.00000  Uiso   1.00
C157   C     0.85313   0.52894   0.23116   0.00000  Uiso   1.00
C158   C     0.85343   0.58267   0.20173   0.00000  Uiso   1.00
C159   C     0.77537   0.59422   0.27596   0.00000  Uiso   1.00
C160   C     0.68708   0.54828   0.24870   0.00000  Uiso   1.00
C161   C     0.61141   0.61086   0.22728   0.00000  Uiso   1.00
H162   H     0.89978   0.81457   0.31733   0.00000  Uiso   1.00
H163   H     0.09347   0.80706   0.44180   0.00000  Uiso   1.00
H164   H     0.88765   0.82330   0.24709   0.00000  Uiso   1.00
H165   H     0.72163   0.84264   0.26463   0.00000  Uiso   1.00
H166   H     0.30282   0.75255   0.57730   0.00000  Uiso   1.00
H167   H     0.86880   0.78680   0.16674   0.00000  Uiso   1.00
H168   H     0.51869   0.82759   0.20372   0.00000  Uiso   1.00
H169   H     0.85804   0.45870   0.29807   0.00000  Uiso   1.00
H170   H     0.04944   0.43166   0.42149   0.00000  Uiso   1.00
H171   H     0.84362   0.44790   0.22678   0.00000  Uiso   1.00
H172   H     0.67760   0.46724   0.24432   0.00000  Uiso   1.00
H173   H     0.26709   0.44786   0.56082   0.00000  Uiso   1.00
H174   H     0.83306   0.48211   0.15025   0.00000  Uiso   1.00
H175   H     0.48296   0.52289   0.18723   0.00000  Uiso   1.00
O176   O     0.41163   0.58883   0.65059   0.00000  Uiso   1.00
O177   O     0.84219   0.63378   0.11194   0.00000  Uiso   1.00
O178   O     0.38287   0.68728   0.16046   0.00000  Uiso   1.00
N179   N     0.26813   0.68455   0.55648   0.00000  Uiso   1.00
N180   N     0.86236   0.71658   0.17264   0.00000  Uiso   1.00
N181   N     0.53503   0.75471   0.20720   0.00000  Uiso   1.00
N182   N     0.24890   0.52060   0.54761   0.00000  Uiso   1.00
N183   N     0.84314   0.55262   0.16377   0.00000  Uiso   1.00
N184   N     0.51580   0.59075   0.19833   0.00000  Uiso   1.00
C185   C     0.39022   0.76696   0.81292   0.00000  Uiso   1.00
C186   C     0.48966   0.82039   0.87788   0.00000  Uiso   1.00
C187   C     0.58399   0.77399   0.93743   0.00000  Uiso   1.00
C188   C     0.66571   0.83609   0.99120   0.00000  Uiso   1.00
C189   C     0.82202   0.90312   0.09292   0.00000  Uiso   1.00
C190   C     0.37785   0.81157   0.77209   0.00000  Uiso   1.00
C191   C     0.37815   0.75774   0.74270   0.00000  Uiso   1.00
C192   C     0.36573   0.81242   0.70741   0.00000  Uiso   1.00
C193   C     0.34836   0.86574   0.64487   0.00000  Uiso   1.00
C194   C     0.28765   0.80106   0.78163   0.00000  Uiso   1.00
C195   C     0.21209   0.73839   0.76024   0.00000  Uiso   1.00
C196   C     0.12371   0.78422   0.73296   0.00000  Uiso   1.00
C197   C     0.96630   0.82123   0.68522   0.00000  Uiso   1.00
C198   C     0.36760   0.95977   0.80248   0.00000  Uiso   1.00
C199   C     0.47738   0.92511   0.87221   0.00000  Uiso   1.00
C200   C     0.55897   0.98730   0.92589   0.00000  Uiso   1.00
C201   C     0.65341   0.94100   0.98552   0.00000  Uiso   1.00
C202   C     0.36557   0.91629   0.76642   0.00000  Uiso   1.00
C203   C     0.35313   0.97106   0.73116   0.00000  Uiso   1.00
C204   C     0.35343   0.91733   0.70173   0.00000  Uiso   1.00
C205   C     0.27537   0.90578   0.77596   0.00000  Uiso   1.00
C206   C     0.18708   0.95172   0.74870   0.00000  Uiso   1.00
C207   C     0.11141   0.88914   0.72728   0.00000  Uiso   1.00
H208   H     0.39978   0.68543   0.81733   0.00000  Uiso   1.00
H209   H     0.59347   0.69294   0.94180   0.00000  Uiso   1.00
H210   H     0.38765   0.67670   0.74709   0.00000  Uiso   1.00
H211   H     0.22163   0.65736   0.76463   0.00000  Uiso   1.00
H212   H     0.80282   0.74745   0.07730   0.00000  Uiso   1.00
H213   H     0.36880   0.71320   0.66674   0.00000  Uiso   1.00
H214   H     0.01869   0.67241   0.70372   0.00000  Uiso   1.00
H215   H     0.35804   0.04130   0.79807   0.00000  Uiso   1.00
H216   H     0.54944   0.06834   0.92149   0.00000  Uiso   1.00
H217   H     0.34362   0.05210   0.72678   0.00000  Uiso   1.00
H218   H     0.17760   0.03276   0.74432   0.00000  Uiso   1.00
H219   H     0.76709   0.05214   0.06082   0.00000  Uiso   1.00
H220   H     0.33306   0.01789   0.65025   0.00000  Uiso   1.00
H221   H     0.98296   0.97711   0.68723   0.00000  Uiso   1.00
O222   O     0.91163   0.91117   0.15059   0.00000  Uiso   1.00
O223   O     0.34219   0.86622   0.61194   0.00000  Uiso   1.00
O224   O     0.88287   0.81272   0.66046   0.00000  Uiso   1.00
N225   N     0.76813   0.81545   0.05648   0.00000  Uiso   1.00
N226   N     0.36236   0.78342   0.67264   0.00000  Uiso   1.00
N227   N     0.03503   0.74529   0.70720   0.00000  Uiso   1.00
N228   N     0.74890   0.97940   0.04761   0.00000  Uiso   1.00
N229   N     0.34314   0.94738   0.66377   0.00000  Uiso   1.00
N230   N     0.01580   0.90925   0.69833   0.00000  Uiso   1.00
C231   C     0.89022   0.26696   0.81292   0.00000  Uiso   1.00
C232   C     0.98966   0.32039   0.87788   0.00000  Uiso   1.00
C233   C     0.08399   0.27399   0.93743   0.00000  Uiso   1.00
C234   C     0.16571   0.33609   0.99120   0.00000  Uiso   1.00
C235   C     0.32202   0.40312   0.09292   0.00000  Uiso   1.00
C236   C     0.87785   0.31157   0.77209   0.00000  Uiso   1.00
C237   C     0.87815   0.25774   0.74270   0.00000  Uiso   1.00
C238   C     0.86573   0.31242   0.70741   0.00000  Uiso   1.00
C239   C     0.84836   0.36574   0.64487   0.00000  Uiso   1.00
C240   C     0.78765   0.30106   0.78163   0.00000  Uiso   1.00
C241   C     0.71209   0.23839   0.76024   0.00000  Uiso   1.00
C242   C     0.62371   0.28422   0.73296   0.00000  Uiso   1.00
C243   C     0.46630   0.32123   0.68522   0.00000  Uiso   1.00
C244   C     0.86760   0.45977   0.80248   0.00000  Uiso   1.00
C245   C     0.97738   0.42511   0.87221   0.00000  Uiso   1.00
C246   C     0.05897   0.48730   0.92589   0.00000  Uiso   1.00
C247   C     0.15341   0.44100   0.98552   0.00000  Uiso   1.00
C248   C     0.86557   0.41629   0.76642   0.00000  Uiso   1.00
C249   C     0.85313   0.47106   0.73116   0.00000  Uiso   1.00
C250   C     0.85343   0.41733   0.70173   0.00000  Uiso   1.00
C251   C     0.77537   0.40578   0.77596   0.00000  Uiso   1.00
C252   C     0.68708   0.45172   0.74870   0.00000  Uiso   1.00
C253   C     0.61141   0.38914   0.72728   0.00000  Uiso   1.00
H254   H     0.89978   0.18543   0.81733   0.00000  Uiso   1.00
H255   H     0.09347   0.19294   0.94180   0.00000  Uiso   1.00
H256   H     0.88765   0.17670   0.74709   0.00000  Uiso   1.00
H257   H     0.72163   0.15736   0.76463   0.00000  Uiso   1.00
H258   H     0.30282   0.24745   0.07730   0.00000  Uiso   1.00
H259   H     0.86880   0.21320   0.66674   0.00000  Uiso   1.00
H260   H     0.51869   0.17241   0.70372   0.00000  Uiso   1.00
H261   H     0.85804   0.54130   0.79807   0.00000  Uiso   1.00
H262   H     0.04944   0.56834   0.92149   0.00000  Uiso   1.00
H263   H     0.84362   0.55210   0.72678   0.00000  Uiso   1.00
H264   H     0.67760   0.53276   0.74432   0.00000  Uiso   1.00
H265   H     0.26709   0.55214   0.06082   0.00000  Uiso   1.00
H266   H     0.83306   0.51789   0.65025   0.00000  Uiso   1.00
H267   H     0.48296   0.47711   0.68723   0.00000  Uiso   1.00
O268   O     0.41163   0.41117   0.15059   0.00000  Uiso   1.00
O269   O     0.84219   0.36622   0.61194   0.00000  Uiso   1.00
O270   O     0.38287   0.31272   0.66046   0.00000  Uiso   1.00
N271   N     0.26813   0.31545   0.05648   0.00000  Uiso   1.00
N272   N     0.86236   0.28342   0.67264   0.00000  Uiso   1.00
N273   N     0.53503   0.24529   0.70720   0.00000  Uiso   1.00
N274   N     0.24890   0.47940   0.04761   0.00000  Uiso   1.00
N275   N     0.84314   0.44738   0.66377   0.00000  Uiso   1.00
N276   N     0.51580   0.40925   0.69833   0.00000  Uiso   1.00
C277   C     0.60978   0.76696   0.68708   0.00000  Uiso   1.00
C278   C     0.51034   0.82039   0.62212   0.00000  Uiso   1.00
C279   C     0.41601   0.77399   0.56257   0.00000  Uiso   1.00
C280   C     0.33429   0.83609   0.50880   0.00000  Uiso   1.00
C281   C     0.17798   0.90312   0.40708   0.00000  Uiso   1.00
C282   C     0.62215   0.81157   0.72791   0.00000  Uiso   1.00
C283   C     0.62185   0.75774   0.75730   0.00000  Uiso   1.00
C284   C     0.63427   0.81242   0.79259   0.00000  Uiso   1.00
C285   C     0.65164   0.86574   0.85513   0.00000  Uiso   1.00
C286   C     0.71235   0.80106   0.71837   0.00000  Uiso   1.00
C287   C     0.78791   0.73839   0.73976   0.00000  Uiso   1.00
C288   C     0.87629   0.78422   0.76704   0.00000  Uiso   1.00
C289   C     0.03370   0.82123   0.81478   0.00000  Uiso   1.00
C290   C     0.63240   0.95977   0.69752   0.00000  Uiso   1.00
C291   C     0.52262   0.92511   0.62779   0.00000  Uiso   1.00
C292   C     0.44103   0.98730   0.57411   0.00000  Uiso   1.00
C293   C     0.34659   0.94100   0.51448   0.00000  Uiso   1.00
C294   C     0.63443   0.91629   0.73358   0.00000  Uiso   1.00
C295   C     0.64687   0.97106   0.76884   0.00000  Uiso   1.00
C296   C     0.64657   0.91733   0.79827   0.00000  Uiso   1.00
C297   C     0.72463   0.90578   0.72404   0.00000  Uiso   1.00
C298   C     0.81292   0.95172   0.75130   0.00000  Uiso   1.00
C299   C     0.88859   0.88914   0.77272   0.00000  Uiso   1.00
H300   H     0.60022   0.68543   0.68267   0.00000  Uiso   1.00
H301   H     0.40653   0.69294   0.55820   0.00000  Uiso   1.00
H302   H     0.61235   0.67670   0.75291   0.00000  Uiso   1.00
H303   H     0.77837   0.65736   0.73537   0.00000  Uiso   1.00
H304   H     0.19718   0.74745   0.42270   0.00000  Uiso   1.00
H305   H     0.63120   0.71320   0.83326   0.00000  Uiso   1.00
H306   H     0.98131   0.67241   0.79628   0.00000  Uiso   1.00
H307   H     0.64196   0.04130   0.70193   0.00000  Uiso   1.00
H308   H     0.45056   0.06834   0.57851   0.00000  Uiso   1.00
H309   H     0.65638   0.05210   0.77322   0.00000  Uiso   1.00
H310   H     0.82240   0.03276   0.75568   0.00000  Uiso   1.00
H311   H     0.23291   0.05214   0.43918   0.00000  Uiso   1.00
H312   H     0.66694   0.01789   0.84975   0.00000  Uiso   1.00
H313   H     0.01704   0.97711   0.81277   0.00000  Uiso   1.00
O314   O     0.08837   0.91117   0.34941   0.00000  Uiso   1.00
O315   O     0.65781   0.86622   0.88806   0.00000  Uiso   1.00
O316   O     0.11713   0.81272   0.83954   0.00000  Uiso   1.00
N317   N     0.23187   0.81545   0.44352   0.00000  Uiso   1.00
N318   N     0.63764   0.78342   0.82736   0.00000  Uiso   1.00
N319   N     0.96497   0.74529   0.79280   0.00000  Uiso   1.00
N320   N     0.25110   0.97940   0.45239   0.00000  Uiso   1.00
N321   N     0.65686   0.94738   0.83623   0.00000  Uiso   1.00
N322   N     0.98420   0.90925   0.80167   0.00000  Uiso   1.00
C323   C     0.10978   0.26696   0.68708   0.00000  Uiso   1.00
C324   C     0.01034   0.32039   0.62212   0.00000  Uiso   1.00
C325   C     0.91601   0.27399   0.56257   0.00000  Uiso   1.00
C326   C     0.83429   0.33609   0.50880   0.00000  Uiso   1.00
C327   C     0.67798   0.40312   0.40708   0.00000  Uiso   1.00
C328   C     0.12215   0.31157   0.72791   0.00000  Uiso   1.00
C329   C     0.12185   0.25774   0.75730   0.00000  Uiso   1.00
C330   C     0.13427   0.31242   0.79259   0.00000  Uiso   1.00
C331   C     0.15164   0.36574   0.85513   0.00000  Uiso   1.00
C332   C     0.21235   0.30106   0.71837   0.00000  Uiso   1.00
C333   C     0.28791   0.23839   0.73976   0.00000  Uiso   1.00
C334   C     0.37629   0.28422   0.76704   0.00000  Uiso   1.00
C335   C     0.53370   0.32123   0.81478   0.00000  Uiso   1.00
C336   C     0.13240   0.45977   0.69752   0.00000  Uiso   1.00
C337   C     0.02262   0.42511   0.62779   0.00000  Uiso   1.00
C338   C     0.94103   0.48730   0.57411   0.00000  Uiso   1.00
C339   C     0.84659   0.44100   0.51448   0.00000  Uiso   1.00
C340   C     0.13443   0.41629   0.73358   0.00000  Uiso   1.00
C341   C     0.14687   0.47106   0.76884   0.00000  Uiso   1.00
C342   C     0.14657   0.41733   0.79827   0.00000  Uiso   1.00
C343   C     0.22463   0.40578   0.72404   0.00000  Uiso   1.00
C344   C     0.31292   0.45172   0.75130   0.00000  Uiso   1.00
C345   C     0.38859   0.38914   0.77272   0.00000  Uiso   1.00
H346   H     0.10022   0.18543   0.68267   0.00000  Uiso   1.00
H347   H     0.90653   0.19294   0.55820   0.00000  Uiso   1.00
H348   H     0.11235   0.17670   0.75291   0.00000  Uiso   1.00
H349   H     0.27837   0.15736   0.73537   0.00000  Uiso   1.00
H350   H     0.69718   0.24745   0.42270   0.00000  Uiso   1.00
H351   H     0.13120   0.21320   0.83326   0.00000  Uiso   1.00
H352   H     0.48131   0.17241   0.79628   0.00000  Uiso   1.00
H353   H     0.14196   0.54130   0.70193   0.00000  Uiso   1.00
H354   H     0.95056   0.56834   0.57851   0.00000  Uiso   1.00
H355   H     0.15638   0.55210   0.77322   0.00000  Uiso   1.00
H356   H     0.32240   0.53276   0.75568   0.00000  Uiso   1.00
H357   H     0.73291   0.55214   0.43918   0.00000  Uiso   1.00
H358   H     0.16694   0.51789   0.84975   0.00000  Uiso   1.00
H359   H     0.51704   0.47711   0.81277   0.00000  Uiso   1.00
O360   O     0.58837   0.41117   0.34941   0.00000  Uiso   1.00
O361   O     0.15781   0.36622   0.88806   0.00000  Uiso   1.00
O362   O     0.61713   0.31272   0.83954   0.00000  Uiso   1.00
N363   N     0.73187   0.31545   0.44352   0.00000  Uiso   1.00
N364   N     0.13764   0.28342   0.82736   0.00000  Uiso   1.00
N365   N     0.46497   0.24529   0.79280   0.00000  Uiso   1.00
N366   N     0.75110   0.47940   0.45239   0.00000  Uiso   1.00
N367   N     0.15686   0.44738   0.83623   0.00000  Uiso   1.00
N368   N     0.48420   0.40925   0.80167   0.00000  Uiso   1.00
