data_job_06509
_audit_creation_date              2018-12-19
_audit_creation_method            'Materials Studio'
_symmetry_space_group_name_H-M    'P1'
_symmetry_Int_Tables_number       1
_symmetry_cell_setting            triclinic
loop_
_symmetry_equiv_pos_as_xyz
  x,y,z
_cell_length_a                    19.5887
_cell_length_b                    22.6996
_cell_length_c                    22.9785
_cell_angle_alpha                 63.2488
_cell_angle_beta                  109.9159
_cell_angle_gamma                 92.9634
loop_
_atom_site_label
_atom_site_type_symbol
_atom_site_fract_x
_atom_site_fract_y
_atom_site_fract_z
_atom_site_U_iso_or_equiv
_atom_site_adp_type
_atom_site_occupancy
C1     C     0.70814   0.50837   0.99274   0.00000  Uiso   1.00
C2     C     0.77884   0.53868   0.98922   0.00000  Uiso   1.00
C3     C     0.79602   0.57201   0.92944   0.00000  Uiso   1.00
C4     C     0.86347   0.59604   0.93713   0.00000  Uiso   1.00
C5     C     0.96589   0.64445   0.92176   0.00000  Uiso   1.00
C6     C     0.73101   0.43527   0.04588   0.00000  Uiso   1.00
C7     C     0.70798   0.38165   0.03374   0.00000  Uiso   1.00
C8     C     0.73516   0.31863   0.08913   0.00000  Uiso   1.00
C9     C     0.76329   0.20649   0.16175   0.00000  Uiso   1.00
C10    C     0.67571   0.53980   0.02533   0.00000  Uiso   1.00
C11    C     0.60618   0.57405   0.99592   0.00000  Uiso   1.00
C12    C     0.58679   0.59903   0.03402   0.00000  Uiso   1.00
C13    C     0.52906   0.64919   0.07472   0.00000  Uiso   1.00
C14    C     0.79736   0.49180   0.11271   0.00000  Uiso   1.00
C15    C     0.82729   0.52968   0.05439   0.00000  Uiso   1.00
C16    C     0.89473   0.55368   0.06217   0.00000  Uiso   1.00
C17    C     0.91201   0.58703   0.00241   0.00000  Uiso   1.00
C18    C     0.77947   0.42627   0.11104   0.00000  Uiso   1.00
C19    C     0.80669   0.36332   0.16647   0.00000  Uiso   1.00
C20    C     0.78371   0.30961   0.15442   0.00000  Uiso   1.00
C21    C     0.72417   0.53080   0.09049   0.00000  Uiso   1.00
C22    C     0.70489   0.55573   0.12865   0.00000  Uiso   1.00
C23    C     0.63534   0.59002   0.09930   0.00000  Uiso   1.00
H24    H     0.67042   0.51537   0.94201   0.00000  Uiso   1.00
H25    H     0.75851   0.57896   0.87902   0.00000  Uiso   1.00
H26    H     0.67048   0.38863   0.98331   0.00000  Uiso   1.00
H27    H     0.56869   0.58101   0.94549   0.00000  Uiso   1.00
H28    H     0.87756   0.64546   0.83793   0.00000  Uiso   1.00
H29    H     0.69192   0.24414   0.05783   0.00000  Uiso   1.00
H30    H     0.47728   0.64981   0.97808   0.00000  Uiso   1.00
H31    H     0.83508   0.48479   0.16345   0.00000  Uiso   1.00
H32    H     0.93222   0.54670   0.11261   0.00000  Uiso   1.00
H33    H     0.84418   0.35637   0.21689   0.00000  Uiso   1.00
H34    H     0.74240   0.54875   0.17908   0.00000  Uiso   1.00
H35    H     0.01855   0.61928   0.02752   0.00000  Uiso   1.00
H36    H     0.83290   0.21796   0.24742   0.00000  Uiso   1.00
H37    H     0.61827   0.62363   0.16767   0.00000  Uiso   1.00
O38    O     0.00900   0.67363   0.89529   0.00000  Uiso   1.00
O39    O     0.76542   0.14712   0.18379   0.00000  Uiso   1.00
O40    O     0.48383   0.67935   0.07917   0.00000  Uiso   1.00
N41    N     0.89741   0.63081   0.88952   0.00000  Uiso   1.00
N42    N     0.72385   0.25561   0.09511   0.00000  Uiso   1.00
N43    N     0.52318   0.63486   0.02057   0.00000  Uiso   1.00
N44    N     0.97327   0.61673   0.99154   0.00000  Uiso   1.00
N45    N     0.79971   0.24152   0.19713   0.00000  Uiso   1.00
N46    N     0.59904   0.62077   0.12258   0.00000  Uiso   1.00
C47    C     0.24993   0.86894   0.86428   0.00000  Uiso   1.00
C48    C     0.17214   0.87503   0.86284   0.00000  Uiso   1.00
C49    C     0.12494   0.82676   0.86699   0.00000  Uiso   1.00
C50    C     0.05603   0.84190   0.86476   0.00000  Uiso   1.00
C51    C     0.93841   0.84206   0.86343   0.00000  Uiso   1.00
C52    C     0.25245   0.92774   0.79782   0.00000  Uiso   1.00
C53    C     0.27277   0.92378   0.74731   0.00000  Uiso   1.00
C54    C     0.27147   0.98329   0.69036   0.00000  Uiso   1.00
C55    C     0.27858   0.06528   0.58810   0.00000  Uiso   1.00
C56    C     0.29886   0.88131   0.92440   0.00000  Uiso   1.00
C57    C     0.35823   0.83833   0.98031   0.00000  Uiso   1.00
C58    C     0.39603   0.85875   0.02992   0.00000  Uiso   1.00
C59    C     0.47520   0.86865   0.12420   0.00000  Uiso   1.00
C60    C     0.21150   0.98167   0.85295   0.00000  Uiso   1.00
C61    C     0.15127   0.93626   0.85668   0.00000  Uiso   1.00
C62    C     0.08242   0.95148   0.85445   0.00000  Uiso   1.00
C63    C     0.03512   0.90324   0.85860   0.00000  Uiso   1.00
C64    C     0.23157   0.98897   0.79166   0.00000  Uiso   1.00
C65    C     0.23025   0.04850   0.73477   0.00000  Uiso   1.00
C66    C     0.25056   0.04463   0.68419   0.00000  Uiso   1.00
C67    C     0.27799   0.94254   0.91825   0.00000  Uiso   1.00
C68    C     0.31570   0.96304   0.96777   0.00000  Uiso   1.00
C69    C     0.37511   0.92009   0.02375   0.00000  Uiso   1.00
H70    H     0.26618   0.82128   0.86907   0.00000  Uiso   1.00
H71    H     0.14111   0.77939   0.87175   0.00000  Uiso   1.00
H72    H     0.28893   0.87639   0.75210   0.00000  Uiso   1.00
H73    H     0.37437   0.79095   0.98506   0.00000  Uiso   1.00
H74    H     0.99323   0.75995   0.87198   0.00000  Uiso   1.00
H75    H     0.30494   0.96450   0.61969   0.00000  Uiso   1.00
H76    H     0.48511   0.78432   0.11094   0.00000  Uiso   1.00
H77    H     0.19524   0.02934   0.84815   0.00000  Uiso   1.00
H78    H     0.06628   0.99886   0.84968   0.00000  Uiso   1.00
H79    H     0.21409   0.09587   0.73003   0.00000  Uiso   1.00
H80    H     0.29953   0.01043   0.96299   0.00000  Uiso   1.00
H81    H     0.93249   0.93809   0.85407   0.00000  Uiso   1.00
H82    H     0.24420   0.14264   0.60178   0.00000  Uiso   1.00
H83    H     0.42437   0.96246   0.09303   0.00000  Uiso   1.00
O84    O     0.87930   0.82523   0.86439   0.00000  Uiso   1.00
O85    O     0.28825   0.09358   0.53340   0.00000  Uiso   1.00
O86    O     0.52463   0.85719   0.17791   0.00000  Uiso   1.00
N87    N     0.99664   0.80606   0.86757   0.00000  Uiso   1.00
N88    N     0.28805   0.99729   0.63169   0.00000  Uiso   1.00
N89    N     0.45651   0.82885   0.09096   0.00000  Uiso   1.00
N90    N     0.96396   0.90191   0.85793   0.00000  Uiso   1.00
N91    N     0.25537   0.09315   0.62205   0.00000  Uiso   1.00
N92    N     0.42383   0.92470   0.08132   0.00000  Uiso   1.00
C93    C     0.49062   0.30085   0.32963   0.00000  Uiso   1.00
C94    C     0.51748   0.22678   0.37375   0.00000  Uiso   1.00
C95    C     0.54890   0.18792   0.35490   0.00000  Uiso   1.00
C96    C     0.56984   0.12116   0.40253   0.00000  Uiso   1.00
C97    C     0.61306   0.01022   0.46127   0.00000  Uiso   1.00
C98    C     0.41050   0.30815   0.32153   0.00000  Uiso   1.00
C99    C     0.35197   0.33772   0.25878   0.00000  Uiso   1.00
C100   C     0.28286   0.33947   0.26245   0.00000  Uiso   1.00
C101   C     0.15999   0.35491   0.24012   0.00000  Uiso   1.00
C102   C     0.53108   0.33375   0.37452   0.00000  Uiso   1.00
C103   C     0.57392   0.38484   0.35633   0.00000  Uiso   1.00
C104   C     0.60633   0.40815   0.40461   0.00000  Uiso   1.00
C105   C     0.67068   0.46332   0.46456   0.00000  Uiso   1.00
C106   C     0.47196   0.25142   0.44771   0.00000  Uiso   1.00
C107   C     0.50735   0.19993   0.43789   0.00000  Uiso   1.00
C108   C     0.52826   0.13322   0.48555   0.00000  Uiso   1.00
C109   C     0.55970   0.09426   0.46679   0.00000  Uiso   1.00
C110   C     0.40037   0.28130   0.38566   0.00000  Uiso   1.00
C111   C     0.33133   0.28302   0.38943   0.00000  Uiso   1.00
C112   C     0.27270   0.31257   0.32671   0.00000  Uiso   1.00
C113   C     0.52095   0.30689   0.43867   0.00000  Uiso   1.00
C114   C     0.55329   0.33014   0.48698   0.00000  Uiso   1.00
C115   C     0.59617   0.38125   0.46887   0.00000  Uiso   1.00
H116   H     0.49850   0.32176   0.27969   0.00000  Uiso   1.00
H117   H     0.55672   0.20872   0.30526   0.00000  Uiso   1.00
H118   H     0.35983   0.35850   0.20915   0.00000  Uiso   1.00
H119   H     0.58175   0.40561   0.30669   0.00000  Uiso   1.00
H120   H     0.61678   0.07153   0.36188   0.00000  Uiso   1.00
H121   H     0.20161   0.38738   0.15924   0.00000  Uiso   1.00
H122   H     0.66959   0.48672   0.36491   0.00000  Uiso   1.00
H123   H     0.46407   0.23051   0.49765   0.00000  Uiso   1.00
H124   H     0.52041   0.11245   0.53519   0.00000  Uiso   1.00
H125   H     0.32351   0.26224   0.43907   0.00000  Uiso   1.00
H126   H     0.54543   0.30934   0.53661   0.00000  Uiso   1.00
H127   H     0.58730   0.99340   0.54850   0.00000  Uiso   1.00
H128   H     0.17213   0.30925   0.34585   0.00000  Uiso   1.00
H129   H     0.64011   0.40859   0.55153   0.00000  Uiso   1.00
O130   O     0.63969   0.95645   0.47594   0.00000  Uiso   1.00
O131   O     0.09502   0.37084   0.21007   0.00000  Uiso   1.00
O132   O     0.70899   0.50117   0.47992   0.00000  Uiso   1.00
N133   N     0.60212   0.06935   0.40066   0.00000  Uiso   1.00
N134   N     0.21397   0.36464   0.21120   0.00000  Uiso   1.00
N135   N     0.65147   0.45753   0.40348   0.00000  Uiso   1.00
N136   N     0.58626   0.02731   0.50108   0.00000  Uiso   1.00
N137   N     0.19810   0.32260   0.31161   0.00000  Uiso   1.00
N138   N     0.63560   0.41548   0.50389   0.00000  Uiso   1.00
C139   C     0.83831   0.83985   0.10023   0.00000  Uiso   1.00
C140   C     0.78915   0.87150   0.02353   0.00000  Uiso   1.00
C141   C     0.80757   0.87372   0.96942   0.00000  Uiso   1.00
C142   C     0.75497   0.90493   0.90290   0.00000  Uiso   1.00
C143   C     0.68904   0.94979   0.78561   0.00000  Uiso   1.00
C144   C     0.79565   0.78897   0.13961   0.00000  Uiso   1.00
C145   C     0.81955   0.72179   0.18311   0.00000  Uiso   1.00
C146   C     0.77243   0.68353   0.21431   0.00000  Uiso   1.00
C147   C     0.71663   0.60026   0.27728   0.00000  Uiso   1.00
C148   C     0.84367   0.89435   0.12254   0.00000  Uiso   1.00
C149   C     0.90794   0.91578   0.15171   0.00000  Uiso   1.00
C150   C     0.90124   0.96623   0.16856   0.00000  Uiso   1.00
C151   C     0.91999   0.04659   0.20503   0.00000  Uiso   1.00
C152   C     0.71214   0.89133   0.07831   0.00000  Uiso   1.00
C153   C     0.72062   0.89946   0.01162   0.00000  Uiso   1.00
C154   C     0.66798   0.93067   0.94516   0.00000  Uiso   1.00
C155   C     0.68632   0.93294   0.89097   0.00000  Uiso   1.00
C156   C     0.72713   0.81692   0.12770   0.00000  Uiso   1.00
C157   C     0.67997   0.77875   0.15885   0.00000  Uiso   1.00
C158   C     0.70378   0.71154   0.20238   0.00000  Uiso   1.00
C159   C     0.77514   0.92231   0.11063   0.00000  Uiso   1.00
C160   C     0.76835   0.97274   0.12745   0.00000  Uiso   1.00
C161   C     0.83259   0.99424   0.15663   0.00000  Uiso   1.00
H162   H     0.89166   0.81808   0.10951   0.00000  Uiso   1.00
H163   H     0.86060   0.85207   0.97866   0.00000  Uiso   1.00
H164   H     0.87259   0.70017   0.19232   0.00000  Uiso   1.00
H165   H     0.96096   0.89413   0.16091   0.00000  Uiso   1.00
H166   H     0.79594   0.90207   0.82834   0.00000  Uiso   1.00
H167   H     0.82122   0.58179   0.27887   0.00000  Uiso   1.00
H168   H     0.00756   0.99078   0.21266   0.00000  Uiso   1.00
H169   H     0.65879   0.91309   0.06904   0.00000  Uiso   1.00
H170   H     0.61495   0.95231   0.93596   0.00000  Uiso   1.00
H171   H     0.62694   0.80040   0.14963   0.00000  Uiso   1.00
H172   H     0.71531   0.99436   0.11822   0.00000  Uiso   1.00
H173   H     0.59656   0.98342   0.79369   0.00000  Uiso   1.00
H174   H     0.62185   0.66314   0.24423   0.00000  Uiso   1.00
H175   H     0.80818   0.07213   0.17801   0.00000  Uiso   1.00
O176   O     0.67161   0.96681   0.72421   0.00000  Uiso   1.00
O177   O     0.70478   0.54661   0.31530   0.00000  Uiso   1.00
O178   O     0.94926   0.08320   0.22842   0.00000  Uiso   1.00
N179   N     0.75504   0.91585   0.83844   0.00000  Uiso   1.00
N180   N     0.77867   0.61640   0.25966   0.00000  Uiso   1.00
N181   N     0.95288   0.99876   0.19777   0.00000  Uiso   1.00
N182   N     0.64775   0.95962   0.81980   0.00000  Uiso   1.00
N183   N     0.67139   0.66017   0.24101   0.00000  Uiso   1.00
N184   N     0.84560   0.04254   0.17912   0.00000  Uiso   1.00
C185   C     0.95163   0.22454   0.94464   0.00000  Uiso   1.00
C186   C     0.02626   0.22440   0.93760   0.00000  Uiso   1.00
C187   C     0.06538   0.17068   0.94494   0.00000  Uiso   1.00
C188   C     0.13263   0.18062   0.93651   0.00000  Uiso   1.00
C189   C     0.24437   0.17106   0.92785   0.00000  Uiso   1.00
C190   C     0.90164   0.28070   0.87643   0.00000  Uiso   1.00
C191   C     0.83599   0.27432   0.83236   0.00000  Uiso   1.00
C192   C     0.79833   0.33166   0.77244   0.00000  Uiso   1.00
C193   C     0.71658   0.40952   0.66885   0.00000  Uiso   1.00
C194   C     0.96115   0.24607   0.00068   0.00000  Uiso   1.00
C195   C     0.94552   0.21058   0.06107   0.00000  Uiso   1.00
C196   C     0.95795   0.23877   0.10576   0.00000  Uiso   1.00
C197   C     0.96860   0.26286   0.19508   0.00000  Uiso   1.00
C198   C     0.00149   0.33771   0.91661   0.00000  Uiso   1.00
C199   C     0.05334   0.28587   0.92237   0.00000  Uiso   1.00
C200   C     0.12054   0.29589   0.91392   0.00000  Uiso   1.00
C201   C     0.15976   0.24220   0.92126   0.00000  Uiso   1.00
C202   C     0.92872   0.34217   0.86120   0.00000  Uiso   1.00
C203   C     0.89115   0.39953   0.80134   0.00000  Uiso   1.00
C204   C     0.82546   0.39324   0.75718   0.00000  Uiso   1.00
C205   C     0.98824   0.30754   0.98545   0.00000  Uiso   1.00
C206   C     0.00069   0.33579   0.03005   0.00000  Uiso   1.00
C207   C     0.98508   0.30035   0.09050   0.00000  Uiso   1.00
H208   H     0.93054   0.17669   0.95650   0.00000  Uiso   1.00
H209   H     0.04440   0.12312   0.95672   0.00000  Uiso   1.00
H210   H     0.81504   0.22675   0.84416   0.00000  Uiso   1.00
H211   H     0.92456   0.16302   0.07284   0.00000  Uiso   1.00
H212   H     0.18256   0.09085   0.95023   0.00000  Uiso   1.00
H213   H     0.69894   0.30935   0.71290   0.00000  Uiso   1.00
H214   H     0.92988   0.17497   0.19511   0.00000  Uiso   1.00
H215   H     0.02257   0.38557   0.90475   0.00000  Uiso   1.00
H216   H     0.14149   0.34347   0.90214   0.00000  Uiso   1.00
H217   H     0.91213   0.44709   0.78957   0.00000  Uiso   1.00
H218   H     0.02165   0.38336   0.01825   0.00000  Uiso   1.00
H219   H     0.26136   0.26969   0.90592   0.00000  Uiso   1.00
H220   H     0.77773   0.48819   0.66859   0.00000  Uiso   1.00
H221   H     0.00868   0.35380   0.15080   0.00000  Uiso   1.00
O222   O     0.29851   0.14881   0.92727   0.00000  Uiso   1.00
O223   O     0.66401   0.43548   0.61591   0.00000  Uiso   1.00
O224   O     0.96700   0.25916   0.24856   0.00000  Uiso   1.00
N225   N     0.18479   0.13872   0.94017   0.00000  Uiso   1.00
N226   N     0.73264   0.34300   0.71828   0.00000  Uiso   1.00
N227   N     0.94853   0.21737   0.16910   0.00000  Uiso   1.00
N228   N     0.22720   0.23495   0.91633   0.00000  Uiso   1.00
N229   N     0.77504   0.43923   0.69444   0.00000  Uiso   1.00
N230   N     0.99093   0.31360   0.14526   0.00000  Uiso   1.00
C231   C     0.26906   0.87754   0.31858   0.00000  Uiso   1.00
C232   C     0.27830   0.80227   0.36247   0.00000  Uiso   1.00
C233   C     0.24440   0.75762   0.33934   0.00000  Uiso   1.00
C234   C     0.25999   0.69076   0.38753   0.00000  Uiso   1.00
C235   C     0.26709   0.57714   0.44520   0.00000  Uiso   1.00
C236   C     0.34582   0.89670   0.32325   0.00000  Uiso   1.00
C237   C     0.36868   0.93144   0.26715   0.00000  Uiso   1.00
C238   C     0.44111   0.94408   0.28234   0.00000  Uiso   1.00
C239   C     0.55301   0.97709   0.27913   0.00000  Uiso   1.00
C240   C     0.24338   0.90669   0.35687   0.00000  Uiso   1.00
C241   C     0.18012   0.94986   0.32902   0.00000  Uiso   1.00
C242   C     0.16632   0.97092   0.37250   0.00000  Uiso   1.00
C243   C     0.11917   0.01946   0.42148   0.00000  Uiso   1.00
C244   C     0.35705   0.83820   0.44532   0.00000  Uiso   1.00
C245   C     0.32609   0.78091   0.43131   0.00000  Uiso   1.00
C246   C     0.34174   0.71410   0.47956   0.00000  Uiso   1.00
C247   C     0.30786   0.66936   0.45650   0.00000  Uiso   1.00
C248   C     0.39360   0.87533   0.39209   0.00000  Uiso   1.00
C249   C     0.46602   0.88792   0.40737   0.00000  Uiso   1.00
C250   C     0.48898   0.92267   0.35130   0.00000  Uiso   1.00
C251   C     0.29117   0.88533   0.42571   0.00000  Uiso   1.00
C252   C     0.27746   0.90633   0.46924   0.00000  Uiso   1.00
C253   C     0.21419   0.94952   0.44147   0.00000  Uiso   1.00
H254   H     0.23186   0.89418   0.26498   0.00000  Uiso   1.00
H255   H     0.20742   0.77418   0.28605   0.00000  Uiso   1.00
H256   H     0.33168   0.94798   0.21388   0.00000  Uiso   1.00
H257   H     0.14315   0.96639   0.27574   0.00000  Uiso   1.00
H258   H     0.20142   0.63171   0.33977   0.00000  Uiso   1.00
H259   H     0.46342   0.99820   0.18758   0.00000  Uiso   1.00
H260   H     0.06587   0.03702   0.31803   0.00000  Uiso   1.00
H261   H     0.39425   0.82157   0.49892   0.00000  Uiso   1.00
H262   H     0.37872   0.69758   0.53283   0.00000  Uiso   1.00
H263   H     0.50298   0.87138   0.46065   0.00000  Uiso   1.00
H264   H     0.31445   0.88979   0.52251   0.00000  Uiso   1.00
H265   H     0.34045   0.56954   0.54006   0.00000  Uiso   1.00
H266   H     0.60245   0.93603   0.38787   0.00000  Uiso   1.00
H267   H     0.20490   0.97485   0.51832   0.00000  Uiso   1.00
O268   O     0.25781   0.52037   0.45799   0.00000  Uiso   1.00
O269   O     0.60153   0.00120   0.25833   0.00000  Uiso   1.00
O270   O     0.07996   0.05213   0.42948   0.00000  Uiso   1.00
N271   N     0.23626   0.63409   0.38226   0.00000  Uiso   1.00
N272   N     0.48122   0.97673   0.23997   0.00000  Uiso   1.00
N273   N     0.10955   0.01304   0.36192   0.00000  Uiso   1.00
N274   N     0.31107   0.60064   0.49003   0.00000  Uiso   1.00
N275   N     0.55603   0.94328   0.34775   0.00000  Uiso   1.00
N276   N     0.18437   0.97959   0.46970   0.00000  Uiso   1.00
C277   C     0.33455   0.58944   0.23607   0.00000  Uiso   1.00
C278   C     0.27487   0.54795   0.25597   0.00000  Uiso   1.00
C279   C     0.27471   0.51109   0.32320   0.00000  Uiso   1.00
C280   C     0.21509   0.47654   0.33048   0.00000  Uiso   1.00
C281   C     0.13113   0.41179   0.37019   0.00000  Uiso   1.00
C282   C     0.29654   0.65968   0.18411   0.00000  Uiso   1.00
C283   C     0.31460   0.71677   0.19092   0.00000  Uiso   1.00
C284   C     0.27322   0.77627   0.13771   0.00000  Uiso   1.00
C285   C     0.22294   0.88500   0.06583   0.00000  Uiso   1.00
C286   C     0.35986   0.56357   0.19507   0.00000  Uiso   1.00
C287   C     0.43118   0.53985   0.21107   0.00000  Uiso   1.00
C288   C     0.44312   0.51845   0.16707   0.00000  Uiso   1.00
C289   C     0.49116   0.47794   0.11220   0.00000  Uiso   1.00
C290   C     0.22895   0.59362   0.12946   0.00000  Uiso   1.00
C291   C     0.21751   0.55022   0.19806   0.00000  Uiso   1.00
C292   C     0.15787   0.51572   0.20525   0.00000  Uiso   1.00
C293   C     0.15762   0.47881   0.27248   0.00000  Uiso   1.00
C294   C     0.23918   0.66196   0.12621   0.00000  Uiso   1.00
C295   C     0.19777   0.72139   0.07297   0.00000  Uiso   1.00
C296   C     0.21576   0.77855   0.07970   0.00000  Uiso   1.00
C297   C     0.30250   0.56584   0.13716   0.00000  Uiso   1.00
C298   C     0.31434   0.54447   0.09313   0.00000  Uiso   1.00
C299   C     0.38565   0.52073   0.10906   0.00000  Uiso   1.00
H300   H     0.37920   0.58768   0.28115   0.00000  Uiso   1.00
H301   H     0.31911   0.50935   0.36799   0.00000  Uiso   1.00
H302   H     0.35900   0.71500   0.23573   0.00000  Uiso   1.00
H303   H     0.47555   0.53810   0.25588   0.00000  Uiso   1.00
H304   H     0.22717   0.42353   0.43874   0.00000  Uiso   1.00
H305   H     0.31130   0.85714   0.15985   0.00000  Uiso   1.00
H306   H     0.55708   0.48413   0.20234   0.00000  Uiso   1.00
H307   H     0.18429   0.59539   0.08438   0.00000  Uiso   1.00
H308   H     0.11349   0.51748   0.16043   0.00000  Uiso   1.00
H309   H     0.15339   0.72313   0.02817   0.00000  Uiso   1.00
H310   H     0.26994   0.54624   0.04832   0.00000  Uiso   1.00
H311   H     0.06028   0.43013   0.27028   0.00000  Uiso   1.00
H312   H     0.14442   0.86375   0.99138   0.00000  Uiso   1.00
H313   H     0.39019   0.49074   0.03388   0.00000  Uiso   1.00
O314   O     0.10066   0.37546   0.40809   0.00000  Uiso   1.00
O315   O     0.21105   0.94434   0.04219   0.00000  Uiso   1.00
O316   O     0.53350   0.45496   0.09794   0.00000  Uiso   1.00
N317   N     0.19762   0.43577   0.38866   0.00000  Uiso   1.00
N318   N     0.27627   0.84117   0.12792   0.00000  Uiso   1.00
N319   N     0.50605   0.49245   0.16763   0.00000  Uiso   1.00
N320   N     0.10782   0.43932   0.29801   0.00000  Uiso   1.00
N321   N     0.18647   0.84472   0.03727   0.00000  Uiso   1.00
N322   N     0.41625   0.49600   0.07698   0.00000  Uiso   1.00
C323   C     0.76431   0.27518   0.37129   0.00000  Uiso   1.00
C324   C     0.84109   0.25021   0.38322   0.00000  Uiso   1.00
C325   C     0.89965   0.28724   0.38126   0.00000  Uiso   1.00
C326   C     0.96541   0.25534   0.39357   0.00000  Uiso   1.00
C327   C     0.08359   0.22668   0.41005   0.00000  Uiso   1.00
C328   C     0.74787   0.22812   0.43616   0.00000  Uiso   1.00
C329   C     0.72804   0.24657   0.47871   0.00000  Uiso   1.00
C330   C     0.71532   0.19606   0.53558   0.00000  Uiso   1.00
C331   C     0.68872   0.13310   0.63422   0.00000  Uiso   1.00
C332   C     0.71265   0.26327   0.31185   0.00000  Uiso   1.00
C333   C     0.66320   0.31127   0.24987   0.00000  Uiso   1.00
C334   C     0.62082   0.29036   0.20208   0.00000  Uiso   1.00
C335   C     0.53954   0.28197   0.10770   0.00000  Uiso   1.00
C336   C     0.77696   0.15268   0.39663   0.00000  Uiso   1.00
C337   C     0.84796   0.18368   0.39699   0.00000  Uiso   1.00
C338   C     0.91365   0.15171   0.40930   0.00000  Uiso   1.00
C339   C     0.97230   0.18869   0.40736   0.00000  Uiso   1.00
C340   C     0.75474   0.16158   0.44993   0.00000  Uiso   1.00
C341   C     0.74204   0.11104   0.50675   0.00000  Uiso   1.00
C342   C     0.72221   0.12941   0.54937   0.00000  Uiso   1.00
C343   C     0.71952   0.19673   0.32561   0.00000  Uiso   1.00
C344   C     0.67720   0.17574   0.27791   0.00000  Uiso   1.00
C345   C     0.62770   0.22370   0.21588   0.00000  Uiso   1.00
H346   H     0.75896   0.32698   0.36057   0.00000  Uiso   1.00
H347   H     0.89431   0.33873   0.37061   0.00000  Uiso   1.00
H348   H     0.72272   0.29806   0.46804   0.00000  Uiso   1.00
H349   H     0.65790   0.36275   0.23924   0.00000  Uiso   1.00
H350   H     0.04741   0.32241   0.38784   0.00000  Uiso   1.00
H351   H     0.68558   0.23666   0.59326   0.00000  Uiso   1.00
H352   H     0.54888   0.37307   0.11079   0.00000  Uiso   1.00
H353   H     0.78231   0.10088   0.40735   0.00000  Uiso   1.00
H354   H     0.91895   0.10022   0.41995   0.00000  Uiso   1.00
H355   H     0.74736   0.05956   0.51738   0.00000  Uiso   1.00
H356   H     0.68253   0.12425   0.28858   0.00000  Uiso   1.00
H357   H     0.06741   0.12882   0.42789   0.00000  Uiso   1.00
H358   H     0.70557   0.04308   0.63331   0.00000  Uiso   1.00
H359   H     0.56888   0.17949   0.15084   0.00000  Uiso   1.00
O360   O     0.14688   0.22926   0.41534   0.00000  Uiso   1.00
O361   O     0.67216   0.11676   0.68483   0.00000  Uiso   1.00
O362   O     0.49282   0.29573   0.05184   0.00000  Uiso   1.00
N363   N     0.03336   0.27694   0.39553   0.00000  Uiso   1.00
N364   N     0.69509   0.19677   0.58758   0.00000  Uiso   1.00
N365   N     0.56727   0.32430   0.13652   0.00000  Uiso   1.00
N366   N     0.04412   0.17278   0.41708   0.00000  Uiso   1.00
N367   N     0.70584   0.09261   0.60913   0.00000  Uiso   1.00
N368   N     0.57803   0.22014   0.15807   0.00000  Uiso   1.00
C369   C     0.48847   0.81822   0.90220   0.00000  Uiso   1.00
C370   C     0.47401   0.89121   0.84809   0.00000  Uiso   1.00
C371   C     0.45156   0.94376   0.85530   0.00000  Uiso   1.00
C372   C     0.44133   0.00687   0.79987   0.00000  Uiso   1.00
C373   C     0.41711   0.11867   0.72506   0.00000  Uiso   1.00
C374   C     0.56680   0.79475   0.91670   0.00000  Uiso   1.00
C375   C     0.62237   0.76619   0.98161   0.00000  Uiso   1.00
C376   C     0.69025   0.74809   0.98394   0.00000  Uiso   1.00
C377   C     0.81008   0.71009   0.01566   0.00000  Uiso   1.00
C378   C     0.43951   0.78145   0.86556   0.00000  Uiso   1.00
C379   C     0.38806   0.74169   0.88747   0.00000  Uiso   1.00
C380   C     0.34878   0.71238   0.84674   0.00000  Uiso   1.00
C381   C     0.27096   0.65373   0.79905   0.00000  Uiso   1.00
C382   C     0.51020   0.83683   0.79093   0.00000  Uiso   1.00
C383   C     0.48581   0.90132   0.78765   0.00000  Uiso   1.00
C384   C     0.47561   0.96436   0.73219   0.00000  Uiso   1.00
C385   C     0.45315   0.01700   0.73933   0.00000  Uiso   1.00
C386   C     0.57861   0.80486   0.85627   0.00000  Uiso   1.00
C387   C     0.64641   0.78679   0.85850   0.00000  Uiso   1.00
C388   C     0.70207   0.75822   0.92339   0.00000  Uiso   1.00
C389   C     0.45131   0.79156   0.80512   0.00000  Uiso   1.00
C390   C     0.41210   0.76229   0.76435   0.00000  Uiso   1.00
C391   C     0.36060   0.72251   0.78619   0.00000  Uiso   1.00
H392   H     0.47929   0.81034   0.94926   0.00000  Uiso   1.00
H393   H     0.44244   0.93592   0.90209   0.00000  Uiso   1.00
H394   H     0.61322   0.75837   0.02837   0.00000  Uiso   1.00
H395   H     0.37894   0.73388   0.93424   0.00000  Uiso   1.00
H396   H     0.40682   0.07960   0.82315   0.00000  Uiso   1.00
H397   H     0.76691   0.70522   0.08944   0.00000  Uiso   1.00
H398   H     0.27289   0.65357   0.89094   0.00000  Uiso   1.00
H399   H     0.51939   0.84470   0.74387   0.00000  Uiso   1.00
H400   H     0.48474   0.97216   0.68543   0.00000  Uiso   1.00
H401   H     0.65553   0.79462   0.81172   0.00000  Uiso   1.00
H402   H     0.42125   0.77013   0.71759   0.00000  Uiso   1.00
H403   H     0.44116   0.10902   0.64730   0.00000  Uiso   1.00
H404   H     0.80125   0.73463   0.91359   0.00000  Uiso   1.00
H405   H     0.30723   0.68299   0.71509   0.00000  Uiso   1.00
O406   O     0.40050   0.17754   0.70050   0.00000  Uiso   1.00
O407   O     0.87291   0.68635   0.04986   0.00000  Uiso   1.00
O408   O     0.22478   0.61860   0.78943   0.00000  Uiso   1.00
N409   N     0.41964   0.06903   0.78978   0.00000  Uiso   1.00
N410   N     0.75631   0.71901   0.03874   0.00000  Uiso   1.00
N411   N     0.29446   0.67071   0.85317   0.00000  Uiso   1.00
N412   N     0.43812   0.08486   0.69516   0.00000  Uiso   1.00
N413   N     0.77479   0.73484   0.94412   0.00000  Uiso   1.00
N414   N     0.31293   0.68654   0.75855   0.00000  Uiso   1.00
C415   C     0.19979   0.17145   0.19320   0.00000  Uiso   1.00
C416   C     0.25892   0.12983   0.26397   0.00000  Uiso   1.00
C417   C     0.25877   0.12088   0.32778   0.00000  Uiso   1.00
C418   C     0.31790   0.08098   0.38655   0.00000  Uiso   1.00
C419   C     0.40103   0.02093   0.49719   0.00000  Uiso   1.00
C420   C     0.23859   0.22198   0.14862   0.00000  Uiso   1.00
C421   C     0.22134   0.29051   0.11543   0.00000  Uiso   1.00
C422   C     0.26336   0.32817   0.07710   0.00000  Uiso   1.00
C423   C     0.31489   0.41119   0.00861   0.00000  Uiso   1.00
C424   C     0.17402   0.12488   0.16077   0.00000  Uiso   1.00
C425   C     0.10247   0.11176   0.13779   0.00000  Uiso   1.00
C426   C     0.09012   0.06768   0.10967   0.00000  Uiso   1.00
C427   C     0.04140   0.99992   0.06005   0.00000  Uiso   1.00
C428   C     0.30508   0.11650   0.18410   0.00000  Uiso   1.00
C429   C     0.31611   0.09999   0.25903   0.00000  Uiso   1.00
C430   C     0.37526   0.06009   0.31772   0.00000  Uiso   1.00
C431   C     0.37519   0.05108   0.38161   0.00000  Uiso   1.00
C432   C     0.29578   0.19214   0.14368   0.00000  Uiso   1.00
C433   C     0.33783   0.22972   0.10538   0.00000  Uiso   1.00
C434   C     0.32065   0.29828   0.07215   0.00000  Uiso   1.00
C435   C     0.23121   0.09503   0.15583   0.00000  Uiso   1.00
C436   C     0.21897   0.05097   0.12773   0.00000  Uiso   1.00
C437   C     0.14742   0.03778   0.10472   0.00000  Uiso   1.00
H438   H     0.15527   0.19469   0.19704   0.00000  Uiso   1.00
H439   H     0.21450   0.14399   0.33158   0.00000  Uiso   1.00
H440   H     0.17707   0.31359   0.11926   0.00000  Uiso   1.00
H441   H     0.05823   0.13486   0.14162   0.00000  Uiso   1.00
H442   H     0.30540   0.07465   0.47856   0.00000  Uiso   1.00
H443   H     0.22647   0.43225   0.03086   0.00000  Uiso   1.00
H444   H     0.97586   0.05538   0.07800   0.00000  Uiso   1.00
H445   H     0.34961   0.09327   0.18026   0.00000  Uiso   1.00
H446   H     0.41951   0.03700   0.31388   0.00000  Uiso   1.00
H447   H     0.38208   0.20660   0.10156   0.00000  Uiso   1.00
H448   H     0.26324   0.02788   0.12392   0.00000  Uiso   1.00
H449   H     0.47180   0.98781   0.46420   0.00000  Uiso   1.00
H450   H     0.39287   0.34542   0.01649   0.00000  Uiso   1.00
H451   H     0.14226   0.96855   0.06364   0.00000  Uiso   1.00
O452   O     0.43109   0.99607   0.55958   0.00000  Uiso   1.00
O453   O     0.32752   0.46522   0.97220   0.00000  Uiso   1.00
O454   O     0.99873   0.97078   0.03406   0.00000  Uiso   1.00
N455   N     0.33497   0.06192   0.45684   0.00000  Uiso   1.00
N456   N     0.26118   0.39626   0.03828   0.00000  Uiso   1.00
N457   N     0.02687   0.04393   0.08233   0.00000  Uiso   1.00
N458   N     0.42450   0.01519   0.44911   0.00000  Uiso   1.00
N459   N     0.35071   0.34953   0.03055   0.00000  Uiso   1.00
N460   N     0.11641   0.99721   0.07461   0.00000  Uiso   1.00
C461   C     0.99048   0.74853   0.33139   0.00000  Uiso   1.00
C462   C     0.92465   0.72004   0.35080   0.00000  Uiso   1.00
C463   C     0.85959   0.75655   0.33292   0.00000  Uiso   1.00
C464   C     0.80600   0.72124   0.35568   0.00000  Uiso   1.00
C465   C     0.70211   0.68757   0.37988   0.00000  Uiso   1.00
C466   C     0.05526   0.72434   0.39996   0.00000  Uiso   1.00
C467   C     0.10001   0.76447   0.42341   0.00000  Uiso   1.00
C468   C     0.15637   0.73278   0.48755   0.00000  Uiso   1.00
C469   C     0.25528   0.70577   0.58805   0.00000  Uiso   1.00
C470   C     0.00559   0.71372   0.29291   0.00000  Uiso   1.00
C471   C     0.00860   0.74492   0.22635   0.00000  Uiso   1.00
C472   C     0.02316   0.70428   0.20037   0.00000  Uiso   1.00
C473   C     0.04495   0.66079   0.13465   0.00000  Uiso   1.00
C474   C     0.01100   0.62089   0.40360   0.00000  Uiso   1.00
C475   C     0.93580   0.65071   0.39002   0.00000  Uiso   1.00
C476   C     0.88230   0.61534   0.41281   0.00000  Uiso   1.00
C477   C     0.81717   0.65179   0.39497   0.00000  Uiso   1.00
C478   C     0.06640   0.65502   0.43918   0.00000  Uiso   1.00
C479   C     0.12271   0.62325   0.50330   0.00000  Uiso   1.00
C480   C     0.16754   0.66332   0.52685   0.00000  Uiso   1.00
C481   C     0.01673   0.64439   0.33213   0.00000  Uiso   1.00
C482   C     0.03130   0.60370   0.30624   0.00000  Uiso   1.00
C483   C     0.03433   0.63483   0.23966   0.00000  Uiso   1.00
H484   H     0.98180   0.80250   0.30086   0.00000  Uiso   1.00
H485   H     0.85099   0.81021   0.30257   0.00000  Uiso   1.00
H486   H     0.09137   0.81812   0.39305   0.00000  Uiso   1.00
H487   H     0.99997   0.79857   0.19602   0.00000  Uiso   1.00
H488   H     0.71088   0.78818   0.32179   0.00000  Uiso   1.00
H489   H     0.21776   0.80487   0.51255   0.00000  Uiso   1.00
H490   H     0.02503   0.76364   0.09707   0.00000  Uiso   1.00
H491   H     0.01968   0.56691   0.43414   0.00000  Uiso   1.00
H492   H     0.89094   0.56169   0.44316   0.00000  Uiso   1.00
H493   H     0.13133   0.56960   0.53364   0.00000  Uiso   1.00
H494   H     0.03992   0.55005   0.33661   0.00000  Uiso   1.00
H495   H     0.74331   0.58647   0.43590   0.00000  Uiso   1.00
H496   H     0.25019   0.60316   0.62666   0.00000  Uiso   1.00
H497   H     0.05745   0.56193   0.21118   0.00000  Uiso   1.00
O498   O     0.64173   0.68814   0.38240   0.00000  Uiso   1.00
O499   O     0.30675   0.71004   0.63265   0.00000  Uiso   1.00
O500   O     0.05388   0.65595   0.08756   0.00000  Uiso   1.00
N501   N     0.73618   0.74142   0.34739   0.00000  Uiso   1.00
N502   N     0.21007   0.75702   0.52575   0.00000  Uiso   1.00
N503   N     0.02990   0.71848   0.13732   0.00000  Uiso   1.00
N504   N     0.75362   0.63289   0.40880   0.00000  Uiso   1.00
N505   N     0.22752   0.64849   0.58715   0.00000  Uiso   1.00
N506   N     0.04735   0.60994   0.19872   0.00000  Uiso   1.00
C507   C     0.72924   0.17805   0.97701   0.00000  Uiso   1.00
C508   C     0.71277   0.25245   0.92762   0.00000  Uiso   1.00
C509   C     0.74858   0.30170   0.94129   0.00000  Uiso   1.00
C510   C     0.72540   0.36682   0.88936   0.00000  Uiso   1.00
C511   C     0.70847   0.48002   0.82230   0.00000  Uiso   1.00
C512   C     0.65745   0.15531   0.98657   0.00000  Uiso   1.00
C513   C     0.64675   0.12288   0.04982   0.00000  Uiso   1.00
C514   C     0.57700   0.10623   0.04751   0.00000  Uiso   1.00
C515   C     0.47420   0.06857   0.07198   0.00000  Uiso   1.00
C516   C     0.74563   0.14564   0.93699   0.00000  Uiso   1.00
C517   C     0.80907   0.10507   0.95856   0.00000  Uiso   1.00
C518   C     0.81356   0.08026   0.91452   0.00000  Uiso   1.00
C519   C     0.84768   0.02759   0.86201   0.00000  Uiso   1.00
C520   C     0.62439   0.20612   0.86047   0.00000  Uiso   1.00
C521   C     0.65582   0.26769   0.86432   0.00000  Uiso   1.00
C522   C     0.63258   0.33275   0.81235   0.00000  Uiso   1.00
C523   C     0.66835   0.38210   0.82595   0.00000  Uiso   1.00
C524   C     0.60050   0.17055   0.92327   0.00000  Uiso   1.00
C525   C     0.53076   0.15394   0.92087   0.00000  Uiso   1.00
C526   C     0.51995   0.12150   0.98410   0.00000  Uiso   1.00
C527   C     0.68869   0.16088   0.87369   0.00000  Uiso   1.00
C528   C     0.69308   0.13612   0.82961   0.00000  Uiso   1.00
C529   C     0.75652   0.09552   0.85110   0.00000  Uiso   1.00
H530   H     0.77357   0.16618   0.02630   0.00000  Uiso   1.00
H531   H     0.79264   0.28989   0.99029   0.00000  Uiso   1.00
H532   H     0.69083   0.11109   0.09879   0.00000  Uiso   1.00
H533   H     0.85313   0.09328   0.00755   0.00000  Uiso   1.00
H534   H     0.78866   0.43376   0.92246   0.00000  Uiso   1.00
H535   H     0.57399   0.05674   0.15125   0.00000  Uiso   1.00
H536   H     0.91623   0.01918   0.95884   0.00000  Uiso   1.00
H537   H     0.58006   0.21798   0.81119   0.00000  Uiso   1.00
H538   H     0.58851   0.34453   0.76337   0.00000  Uiso   1.00
H539   H     0.48670   0.16574   0.87188   0.00000  Uiso   1.00
H540   H     0.64900   0.14793   0.78063   0.00000  Uiso   1.00
H541   H     0.62298   0.47811   0.73829   0.00000  Uiso   1.00
H542   H     0.40831   0.10109   0.96708   0.00000  Uiso   1.00
H543   H     0.75055   0.06353   0.77467   0.00000  Uiso   1.00
O544   O     0.71486   0.53825   0.80281   0.00000  Uiso   1.00
O545   O     0.43323   0.04360   0.10297   0.00000  Uiso   1.00
O546   O     0.88224   0.99433   0.85053   0.00000  Uiso   1.00
N547   N     0.74851   0.42683   0.88567   0.00000  Uiso   1.00
N548   N     0.54781   0.07434   0.09957   0.00000  Uiso   1.00
N549   N     0.86777   0.03922   0.91970   0.00000  Uiso   1.00
N550   N     0.65936   0.45069   0.78657   0.00000  Uiso   1.00
N551   N     0.45866   0.09821   0.00047   0.00000  Uiso   1.00
N552   N     0.77862   0.06308   0.82059   0.00000  Uiso   1.00
