data_job_03830
_audit_creation_date              2018-12-19
_audit_creation_method            'Materials Studio'
_symmetry_space_group_name_H-M    'P1'
_symmetry_Int_Tables_number       1
_symmetry_cell_setting            triclinic
loop_
_symmetry_equiv_pos_as_xyz
  x,y,z
_cell_length_a                    11.5334
_cell_length_b                    14.7359
_cell_length_c                    15.4741
_cell_angle_alpha                 106.6668
_cell_angle_beta                  106.6813
_cell_angle_gamma                 67.7709
loop_
_atom_site_label
_atom_site_type_symbol
_atom_site_fract_x
_atom_site_fract_y
_atom_site_fract_z
_atom_site_U_iso_or_equiv
_atom_site_adp_type
_atom_site_occupancy
C1     C     0.71159   0.77893   0.85745   0.00000  Uiso   1.00
C2     C     0.73194   0.87933   0.90513   0.00000  Uiso   1.00
C3     C     0.64829   0.97230   0.88920   0.00000  Uiso   1.00
C4     C     0.68432   0.05522   0.93983   0.00000  Uiso   1.00
C5     C     0.69837   0.21260   0.00407   0.00000  Uiso   1.00
C6     C     0.82786   0.71597   0.81417   0.00000  Uiso   1.00
C7     C     0.82486   0.67159   0.72176   0.00000  Uiso   1.00
C8     C     0.94165   0.61698   0.69583   0.00000  Uiso   1.00
C9     C     0.10462   0.52068   0.61886   0.00000  Uiso   1.00
C10    C     0.72076   0.72910   0.93408   0.00000  Uiso   1.00
C11    C     0.62771   0.69574   0.94247   0.00000  Uiso   1.00
C12    C     0.65434   0.65216   0.01749   0.00000  Uiso   1.00
C13    C     0.65101   0.57625   0.12669   0.00000  Uiso   1.00
C14    C     0.92432   0.76084   0.97572   0.00000  Uiso   1.00
C15    C     0.84749   0.86950   0.96937   0.00000  Uiso   1.00
C16    C     0.88366   0.95229   0.02005   0.00000  Uiso   1.00
C17    C     0.80007   0.04538   0.00419   0.00000  Uiso   1.00
C18    C     0.94341   0.70614   0.87841   0.00000  Uiso   1.00
C19    C     0.06023   0.65158   0.85261   0.00000  Uiso   1.00
C20    C     0.05741   0.60713   0.76018   0.00000  Uiso   1.00
C21    C     0.83631   0.71928   0.99832   0.00000  Uiso   1.00
C22    C     0.86308   0.67573   0.07333   0.00000  Uiso   1.00
C23    C     0.77010   0.64231   0.08184   0.00000  Uiso   1.00
H24    H     0.62163   0.78658   0.80743   0.00000  Uiso   1.00
H25    H     0.55888   0.97988   0.83947   0.00000  Uiso   1.00
H26    H     0.73543   0.67920   0.67206   0.00000  Uiso   1.00
H27    H     0.53831   0.70335   0.89275   0.00000  Uiso   1.00
H28    H     0.54029   0.18985   0.90330   0.00000  Uiso   1.00
H29    H     0.91255   0.55583   0.55032   0.00000  Uiso   1.00
H30    H     0.49688   0.60675   0.01567   0.00000  Uiso   1.00
H31    H     0.01429   0.75319   0.02573   0.00000  Uiso   1.00
H32    H     0.97308   0.94467   0.06976   0.00000  Uiso   1.00
H33    H     0.14963   0.64399   0.90235   0.00000  Uiso   1.00
H34    H     0.95251   0.66814   0.12303   0.00000  Uiso   1.00
H35    H     0.87647   0.16127   0.09020   0.00000  Uiso   1.00
H36    H     0.24873   0.52724   0.73722   0.00000  Uiso   1.00
H37    H     0.83306   0.57817   0.20257   0.00000  Uiso   1.00
O38    O     0.67421   0.30212   0.02175   0.00000  Uiso   1.00
O39    O     0.16259   0.47029   0.55866   0.00000  Uiso   1.00
O40    O     0.61724   0.53710   0.16919   0.00000  Uiso   1.00
N41    N     0.62505   0.15685   0.94126   0.00000  Uiso   1.00
N42    N     0.97309   0.56409   0.61124   0.00000  Uiso   1.00
N43    N     0.58449   0.61167   0.04629   0.00000  Uiso   1.00
N44    N     0.80595   0.14147   0.04183   0.00000  Uiso   1.00
N45    N     0.15399   0.54871   0.71181   0.00000  Uiso   1.00
N46    N     0.76539   0.59629   0.14686   0.00000  Uiso   1.00
C47    C     0.28841   0.22107   0.14255   0.00000  Uiso   1.00
C48    C     0.26806   0.12067   0.09487   0.00000  Uiso   1.00
C49    C     0.35171   0.02770   0.11080   0.00000  Uiso   1.00
C50    C     0.31568   0.94478   0.06017   0.00000  Uiso   1.00
C51    C     0.30163   0.78740   0.99593   0.00000  Uiso   1.00
C52    C     0.17214   0.28403   0.18583   0.00000  Uiso   1.00
C53    C     0.17514   0.32841   0.27824   0.00000  Uiso   1.00
C54    C     0.05835   0.38302   0.30417   0.00000  Uiso   1.00
C55    C     0.89538   0.47932   0.38114   0.00000  Uiso   1.00
C56    C     0.27924   0.27090   0.06592   0.00000  Uiso   1.00
C57    C     0.37229   0.30426   0.05753   0.00000  Uiso   1.00
C58    C     0.34566   0.34784   0.98251   0.00000  Uiso   1.00
C59    C     0.34899   0.42375   0.87331   0.00000  Uiso   1.00
C60    C     0.07568   0.23916   0.02428   0.00000  Uiso   1.00
C61    C     0.15251   0.13050   0.03063   0.00000  Uiso   1.00
C62    C     0.11634   0.04771   0.97995   0.00000  Uiso   1.00
C63    C     0.19993   0.95462   0.99581   0.00000  Uiso   1.00
C64    C     0.05659   0.29386   0.12159   0.00000  Uiso   1.00
C65    C     0.93977   0.34842   0.14739   0.00000  Uiso   1.00
C66    C     0.94259   0.39287   0.23982   0.00000  Uiso   1.00
C67    C     0.16369   0.28072   0.00168   0.00000  Uiso   1.00
C68    C     0.13692   0.32427   0.92667   0.00000  Uiso   1.00
C69    C     0.22990   0.35769   0.91816   0.00000  Uiso   1.00
H70    H     0.37837   0.21342   0.19257   0.00000  Uiso   1.00
H71    H     0.44112   0.02012   0.16053   0.00000  Uiso   1.00
H72    H     0.26457   0.32080   0.32794   0.00000  Uiso   1.00
H73    H     0.46169   0.29665   0.10725   0.00000  Uiso   1.00
H74    H     0.45971   0.81015   0.09670   0.00000  Uiso   1.00
H75    H     0.08745   0.44417   0.44968   0.00000  Uiso   1.00
H76    H     0.50312   0.39325   0.98433   0.00000  Uiso   1.00
H77    H     0.98571   0.24681   0.97427   0.00000  Uiso   1.00
H78    H     0.02692   0.05533   0.93024   0.00000  Uiso   1.00
H79    H     0.85037   0.35601   0.09765   0.00000  Uiso   1.00
H80    H     0.04749   0.33186   0.87697   0.00000  Uiso   1.00
H81    H     0.12353   0.83873   0.90980   0.00000  Uiso   1.00
H82    H     0.75127   0.47276   0.26278   0.00000  Uiso   1.00
H83    H     0.16694   0.42183   0.79743   0.00000  Uiso   1.00
O84    O     0.32579   0.69788   0.97825   0.00000  Uiso   1.00
O85    O     0.83741   0.52971   0.44134   0.00000  Uiso   1.00
O86    O     0.38276   0.46290   0.83081   0.00000  Uiso   1.00
N87    N     0.37495   0.84315   0.05874   0.00000  Uiso   1.00
N88    N     0.02691   0.43591   0.38876   0.00000  Uiso   1.00
N89    N     0.41551   0.38833   0.95371   0.00000  Uiso   1.00
N90    N     0.19405   0.85853   0.95817   0.00000  Uiso   1.00
N91    N     0.84601   0.45129   0.28819   0.00000  Uiso   1.00
N92    N     0.23461   0.40371   0.85314   0.00000  Uiso   1.00
