data_job_01912
_audit_creation_date              2018-12-19
_audit_creation_method            'Materials Studio'
_symmetry_space_group_name_H-M    'P1'
_symmetry_Int_Tables_number       1
_symmetry_cell_setting            triclinic
loop_
_symmetry_equiv_pos_as_xyz
  x,y,z
_cell_length_a                    19.1440
_cell_length_b                    12.4116
_cell_length_c                    12.4186
_cell_angle_alpha                 90.0000
_cell_angle_beta                  89.5606
_cell_angle_gamma                 90.0000
loop_
_atom_site_label
_atom_site_type_symbol
_atom_site_fract_x
_atom_site_fract_y
_atom_site_fract_z
_atom_site_U_iso_or_equiv
_atom_site_adp_type
_atom_site_occupancy
C1     C     0.18112   0.57156   0.22453   0.00000  Uiso   1.00
C2     C     0.15899   0.49637   0.31572   0.00000  Uiso   1.00
C3     C     0.11714   0.40573   0.30529   0.00000  Uiso   1.00
C4     C     0.10286   0.34759   0.39840   0.00000  Uiso   1.00
C5     C     0.06442   0.22609   0.52482   0.00000  Uiso   1.00
C6     C     0.15723   0.68396   0.25802   0.00000  Uiso   1.00
C7     C     0.11391   0.75103   0.19907   0.00000  Uiso   1.00
C8     C     0.09815   0.85080   0.24360   0.00000  Uiso   1.00
C9     C     0.05702   0.02056   0.28040   0.00000  Uiso   1.00
C10    C     0.26074   0.57405   0.22586   0.00000  Uiso   1.00
C11    C     0.30446   0.54874   0.13986   0.00000  Uiso   1.00
C12    C     0.37586   0.55601   0.15731   0.00000  Uiso   1.00
C13    C     0.49544   0.55512   0.14418   0.00000  Uiso   1.00
C14    C     0.23017   0.62949   0.40843   0.00000  Uiso   1.00
C15    C     0.18564   0.52785   0.41561   0.00000  Uiso   1.00
C16    C     0.17142   0.46983   0.50876   0.00000  Uiso   1.00
C17    C     0.12956   0.37911   0.49847   0.00000  Uiso   1.00
C18    C     0.18387   0.71543   0.35791   0.00000  Uiso   1.00
C19    C     0.16818   0.81513   0.40253   0.00000  Uiso   1.00
C20    C     0.12484   0.88233   0.34367   0.00000  Uiso   1.00
C21    C     0.28739   0.60552   0.32575   0.00000  Uiso   1.00
C22    C     0.35873   0.61283   0.34334   0.00000  Uiso   1.00
C23    C     0.40255   0.58754   0.25738   0.00000  Uiso   1.00
H24    H     0.16037   0.54707   0.14676   0.00000  Uiso   1.00
H25    H     0.09653   0.38141   0.22798   0.00000  Uiso   1.00
H26    H     0.09330   0.72666   0.12177   0.00000  Uiso   1.00
H27    H     0.28382   0.52440   0.06258   0.00000  Uiso   1.00
H28    H     0.03748   0.21165   0.36208   0.00000  Uiso   1.00
H29    H     0.03069   0.93964   0.13811   0.00000  Uiso   1.00
H30    H     0.43244   0.51313   0.01329   0.00000  Uiso   1.00
H31    H     0.25092   0.65400   0.48620   0.00000  Uiso   1.00
H32    H     0.19204   0.49420   0.58605   0.00000  Uiso   1.00
H33    H     0.18881   0.83945   0.47983   0.00000  Uiso   1.00
H34    H     0.37933   0.63719   0.42064   0.00000  Uiso   1.00
H35    H     0.11500   0.30319   0.65271   0.00000  Uiso   1.00
H36    H     0.10821   0.03120   0.42873   0.00000  Uiso   1.00
H37    H     0.50996   0.60468   0.30392   0.00000  Uiso   1.00
O38    O     0.03585   0.15039   0.56696   0.00000  Uiso   1.00
O39    O     0.02696   0.10550   0.27311   0.00000  Uiso   1.00
O40    O     0.55405   0.54592   0.10935   0.00000  Uiso   1.00
N41    N     0.06381   0.25511   0.41677   0.00000  Uiso   1.00
N42    N     0.05746   0.93574   0.20738   0.00000  Uiso   1.00
N43    N     0.43306   0.53701   0.09068   0.00000  Uiso   1.00
N44    N     0.10553   0.30437   0.57316   0.00000  Uiso   1.00
N45    N     0.09917   0.98500   0.36376   0.00000  Uiso   1.00
N46    N     0.47477   0.58627   0.24706   0.00000  Uiso   1.00
C47    C     0.81888   0.07156   0.27547   0.00000  Uiso   1.00
C48    C     0.84101   0.99637   0.18428   0.00000  Uiso   1.00
C49    C     0.88286   0.90573   0.19471   0.00000  Uiso   1.00
C50    C     0.89714   0.84759   0.10160   0.00000  Uiso   1.00
C51    C     0.93558   0.72609   0.97518   0.00000  Uiso   1.00
C52    C     0.84277   0.18396   0.24198   0.00000  Uiso   1.00
C53    C     0.88609   0.25103   0.30093   0.00000  Uiso   1.00
C54    C     0.90185   0.35080   0.25640   0.00000  Uiso   1.00
C55    C     0.94298   0.52056   0.21960   0.00000  Uiso   1.00
C56    C     0.73926   0.07405   0.27414   0.00000  Uiso   1.00
C57    C     0.69554   0.04874   0.36014   0.00000  Uiso   1.00
C58    C     0.62414   0.05601   0.34269   0.00000  Uiso   1.00
C59    C     0.50456   0.05512   0.35582   0.00000  Uiso   1.00
C60    C     0.76983   0.12949   0.09157   0.00000  Uiso   1.00
C61    C     0.81436   0.02785   0.08439   0.00000  Uiso   1.00
C62    C     0.82858   0.96983   0.99124   0.00000  Uiso   1.00
C63    C     0.87044   0.87911   0.00153   0.00000  Uiso   1.00
C64    C     0.81613   0.21543   0.14209   0.00000  Uiso   1.00
C65    C     0.83182   0.31513   0.09747   0.00000  Uiso   1.00
C66    C     0.87516   0.38233   0.15633   0.00000  Uiso   1.00
C67    C     0.71261   0.10552   0.17425   0.00000  Uiso   1.00
C68    C     0.64127   0.11283   0.15666   0.00000  Uiso   1.00
C69    C     0.59745   0.08754   0.24262   0.00000  Uiso   1.00
H70    H     0.83963   0.04707   0.35324   0.00000  Uiso   1.00
H71    H     0.90347   0.88141   0.27202   0.00000  Uiso   1.00
H72    H     0.90670   0.22666   0.37823   0.00000  Uiso   1.00
H73    H     0.71618   0.02440   0.43742   0.00000  Uiso   1.00
H74    H     0.96252   0.71165   0.13792   0.00000  Uiso   1.00
H75    H     0.96931   0.43964   0.36189   0.00000  Uiso   1.00
H76    H     0.56756   0.01313   0.48671   0.00000  Uiso   1.00
H77    H     0.74908   0.15400   0.01380   0.00000  Uiso   1.00
H78    H     0.80796   0.99420   0.91395   0.00000  Uiso   1.00
H79    H     0.81119   0.33945   0.02017   0.00000  Uiso   1.00
H80    H     0.62067   0.13719   0.07936   0.00000  Uiso   1.00
H81    H     0.88500   0.80319   0.84729   0.00000  Uiso   1.00
H82    H     0.89179   0.53120   0.07127   0.00000  Uiso   1.00
H83    H     0.49004   0.10468   0.19608   0.00000  Uiso   1.00
O84    O     0.96415   0.65039   0.93304   0.00000  Uiso   1.00
O85    O     0.97304   0.60550   0.22689   0.00000  Uiso   1.00
O86    O     0.44595   0.04592   0.39065   0.00000  Uiso   1.00
N87    N     0.93619   0.75511   0.08323   0.00000  Uiso   1.00
N88    N     0.94254   0.43574   0.29262   0.00000  Uiso   1.00
N89    N     0.56694   0.03701   0.40932   0.00000  Uiso   1.00
N90    N     0.89447   0.80437   0.92684   0.00000  Uiso   1.00
N91    N     0.90083   0.48500   0.13624   0.00000  Uiso   1.00
N92    N     0.52523   0.08627   0.25294   0.00000  Uiso   1.00
C93    C     0.81888   0.42844   0.77547   0.00000  Uiso   1.00
C94    C     0.84101   0.50363   0.68428   0.00000  Uiso   1.00
C95    C     0.88286   0.59427   0.69471   0.00000  Uiso   1.00
C96    C     0.89714   0.65241   0.60160   0.00000  Uiso   1.00
C97    C     0.93558   0.77391   0.47518   0.00000  Uiso   1.00
C98    C     0.84277   0.31604   0.74198   0.00000  Uiso   1.00
C99    C     0.88609   0.24897   0.80093   0.00000  Uiso   1.00
C100   C     0.90185   0.14920   0.75640   0.00000  Uiso   1.00
C101   C     0.94298   0.97944   0.71960   0.00000  Uiso   1.00
C102   C     0.73926   0.42595   0.77414   0.00000  Uiso   1.00
C103   C     0.69554   0.45126   0.86014   0.00000  Uiso   1.00
C104   C     0.62414   0.44399   0.84269   0.00000  Uiso   1.00
C105   C     0.50456   0.44488   0.85582   0.00000  Uiso   1.00
C106   C     0.76983   0.37051   0.59157   0.00000  Uiso   1.00
C107   C     0.81436   0.47215   0.58439   0.00000  Uiso   1.00
C108   C     0.82858   0.53017   0.49124   0.00000  Uiso   1.00
C109   C     0.87044   0.62089   0.50153   0.00000  Uiso   1.00
C110   C     0.81613   0.28457   0.64209   0.00000  Uiso   1.00
C111   C     0.83182   0.18487   0.59747   0.00000  Uiso   1.00
C112   C     0.87516   0.11767   0.65633   0.00000  Uiso   1.00
C113   C     0.71261   0.39448   0.67425   0.00000  Uiso   1.00
C114   C     0.64127   0.38717   0.65666   0.00000  Uiso   1.00
C115   C     0.59745   0.41246   0.74262   0.00000  Uiso   1.00
H116   H     0.83963   0.45293   0.85324   0.00000  Uiso   1.00
H117   H     0.90347   0.61859   0.77202   0.00000  Uiso   1.00
H118   H     0.90670   0.27334   0.87823   0.00000  Uiso   1.00
H119   H     0.71618   0.47560   0.93742   0.00000  Uiso   1.00
H120   H     0.96252   0.78835   0.63792   0.00000  Uiso   1.00
H121   H     0.96931   0.06036   0.86189   0.00000  Uiso   1.00
H122   H     0.56756   0.48687   0.98671   0.00000  Uiso   1.00
H123   H     0.74908   0.34600   0.51380   0.00000  Uiso   1.00
H124   H     0.80796   0.50580   0.41395   0.00000  Uiso   1.00
H125   H     0.81119   0.16055   0.52017   0.00000  Uiso   1.00
H126   H     0.62067   0.36281   0.57936   0.00000  Uiso   1.00
H127   H     0.88500   0.69681   0.34729   0.00000  Uiso   1.00
H128   H     0.89179   0.96880   0.57127   0.00000  Uiso   1.00
H129   H     0.49004   0.39532   0.69608   0.00000  Uiso   1.00
O130   O     0.96415   0.84961   0.43304   0.00000  Uiso   1.00
O131   O     0.97304   0.89450   0.72689   0.00000  Uiso   1.00
O132   O     0.44595   0.45408   0.89065   0.00000  Uiso   1.00
N133   N     0.93619   0.74489   0.58323   0.00000  Uiso   1.00
N134   N     0.94254   0.06426   0.79262   0.00000  Uiso   1.00
N135   N     0.56694   0.46299   0.90932   0.00000  Uiso   1.00
N136   N     0.89447   0.69563   0.42684   0.00000  Uiso   1.00
N137   N     0.90083   0.01500   0.63624   0.00000  Uiso   1.00
N138   N     0.52523   0.41373   0.75294   0.00000  Uiso   1.00
C139   C     0.18112   0.92844   0.72453   0.00000  Uiso   1.00
C140   C     0.15899   0.00363   0.81572   0.00000  Uiso   1.00
C141   C     0.11714   0.09427   0.80529   0.00000  Uiso   1.00
C142   C     0.10286   0.15241   0.89840   0.00000  Uiso   1.00
C143   C     0.06442   0.27391   0.02482   0.00000  Uiso   1.00
C144   C     0.15723   0.81604   0.75802   0.00000  Uiso   1.00
C145   C     0.11391   0.74897   0.69907   0.00000  Uiso   1.00
C146   C     0.09815   0.64920   0.74360   0.00000  Uiso   1.00
C147   C     0.05702   0.47944   0.78040   0.00000  Uiso   1.00
C148   C     0.26074   0.92595   0.72586   0.00000  Uiso   1.00
C149   C     0.30446   0.95126   0.63986   0.00000  Uiso   1.00
C150   C     0.37586   0.94399   0.65731   0.00000  Uiso   1.00
C151   C     0.49544   0.94488   0.64418   0.00000  Uiso   1.00
C152   C     0.23017   0.87051   0.90843   0.00000  Uiso   1.00
C153   C     0.18564   0.97215   0.91561   0.00000  Uiso   1.00
C154   C     0.17142   0.03017   0.00876   0.00000  Uiso   1.00
C155   C     0.12956   0.12089   0.99847   0.00000  Uiso   1.00
C156   C     0.18387   0.78457   0.85791   0.00000  Uiso   1.00
C157   C     0.16818   0.68487   0.90253   0.00000  Uiso   1.00
C158   C     0.12484   0.61767   0.84367   0.00000  Uiso   1.00
C159   C     0.28739   0.89448   0.82575   0.00000  Uiso   1.00
C160   C     0.35873   0.88717   0.84334   0.00000  Uiso   1.00
C161   C     0.40255   0.91246   0.75738   0.00000  Uiso   1.00
H162   H     0.16037   0.95293   0.64676   0.00000  Uiso   1.00
H163   H     0.09653   0.11859   0.72798   0.00000  Uiso   1.00
H164   H     0.09330   0.77334   0.62177   0.00000  Uiso   1.00
H165   H     0.28382   0.97560   0.56258   0.00000  Uiso   1.00
H166   H     0.03748   0.28835   0.86208   0.00000  Uiso   1.00
H167   H     0.03069   0.56036   0.63811   0.00000  Uiso   1.00
H168   H     0.43244   0.98687   0.51329   0.00000  Uiso   1.00
H169   H     0.25092   0.84600   0.98620   0.00000  Uiso   1.00
H170   H     0.19204   0.00580   0.08605   0.00000  Uiso   1.00
H171   H     0.18881   0.66055   0.97983   0.00000  Uiso   1.00
H172   H     0.37933   0.86281   0.92064   0.00000  Uiso   1.00
H173   H     0.11500   0.19681   0.15271   0.00000  Uiso   1.00
H174   H     0.10821   0.46880   0.92873   0.00000  Uiso   1.00
H175   H     0.50996   0.89532   0.80392   0.00000  Uiso   1.00
O176   O     0.03585   0.34961   0.06696   0.00000  Uiso   1.00
O177   O     0.02696   0.39450   0.77311   0.00000  Uiso   1.00
O178   O     0.55405   0.95408   0.60935   0.00000  Uiso   1.00
N179   N     0.06381   0.24489   0.91677   0.00000  Uiso   1.00
N180   N     0.05746   0.56426   0.70738   0.00000  Uiso   1.00
N181   N     0.43306   0.96299   0.59068   0.00000  Uiso   1.00
N182   N     0.10553   0.19563   0.07316   0.00000  Uiso   1.00
N183   N     0.09917   0.51500   0.86376   0.00000  Uiso   1.00
N184   N     0.47477   0.91373   0.74706   0.00000  Uiso   1.00
