data_job_02796
_audit_creation_date              2018-12-19
_audit_creation_method            'Materials Studio'
_symmetry_space_group_name_H-M    'P1'
_symmetry_Int_Tables_number       1
_symmetry_cell_setting            triclinic
loop_
_symmetry_equiv_pos_as_xyz
  x,y,z
_cell_length_a                    27.8367
_cell_length_b                    15.2808
_cell_length_c                    40.7819
_cell_angle_alpha                 90.0000
_cell_angle_beta                  148.7279
_cell_angle_gamma                 90.0000
loop_
_atom_site_label
_atom_site_type_symbol
_atom_site_fract_x
_atom_site_fract_y
_atom_site_fract_z
_atom_site_U_iso_or_equiv
_atom_site_adp_type
_atom_site_occupancy
C1     C     0.21424   0.61673   0.21040   0.00000  Uiso   1.00
C2     C     0.17576   0.53604   0.17069   0.00000  Uiso   1.00
C3     C     0.22790   0.46980   0.18694   0.00000  Uiso   1.00
C4     C     0.17967   0.40155   0.14421   0.00000  Uiso   1.00
C5     C     0.13465   0.27651   0.09121   0.00000  Uiso   1.00
C6     C     0.17235   0.61639   0.22028   0.00000  Uiso   1.00
C7     C     0.22162   0.61771   0.27823   0.00000  Uiso   1.00
C8     C     0.17050   0.61711   0.27724   0.00000  Uiso   1.00
C9     C     0.12019   0.61688   0.30124   0.00000  Uiso   1.00
C10    C     0.17238   0.69544   0.16842   0.00000  Uiso   1.00
C11    C     0.22167   0.76325   0.18278   0.00000  Uiso   1.00
C12    C     0.17058   0.82923   0.13813   0.00000  Uiso   1.00
C13    C     0.12031   0.95175   0.08161   0.00000  Uiso   1.00
C14    C     0.03586   0.61334   0.10560   0.00000  Uiso   1.00
C15    C     0.07887   0.53420   0.11376   0.00000  Uiso   1.00
C16    C     0.03054   0.46604   0.07099   0.00000  Uiso   1.00
C17    C     0.08260   0.39970   0.08718   0.00000  Uiso   1.00
C18    C     0.07546   0.61454   0.16336   0.00000  Uiso   1.00
C19    C     0.02426   0.61395   0.16228   0.00000  Uiso   1.00
C20    C     0.07344   0.61527   0.22021   0.00000  Uiso   1.00
C21    C     0.07549   0.69360   0.11149   0.00000  Uiso   1.00
C22    C     0.02431   0.75949   0.06682   0.00000  Uiso   1.00
C23    C     0.07351   0.82738   0.08110   0.00000  Uiso   1.00
H24    H     0.28967   0.61817   0.25472   0.00000  Uiso   1.00
H25    H     0.30288   0.47124   0.23101   0.00000  Uiso   1.00
H26    H     0.29660   0.61915   0.32228   0.00000  Uiso   1.00
H27    H     0.29664   0.76466   0.22683   0.00000  Uiso   1.00
H28    H     0.27479   0.30752   0.17961   0.00000  Uiso   1.00
H29    H     0.26154   0.61940   0.37207   0.00000  Uiso   1.00
H30    H     0.26165   0.92626   0.17081   0.00000  Uiso   1.00
H31    H     0.96043   0.61190   0.06128   0.00000  Uiso   1.00
H32    H     0.95557   0.46463   0.02694   0.00000  Uiso   1.00
H33    H     0.94928   0.61253   0.11822   0.00000  Uiso   1.00
H34    H     0.94933   0.75804   0.02277   0.00000  Uiso   1.00
H35    H     0.99290   0.30214   0.01399   0.00000  Uiso   1.00
H36    H     0.97965   0.61404   0.20644   0.00000  Uiso   1.00
H37    H     0.97976   0.92088   0.00518   0.00000  Uiso   1.00
O38    O     0.13659   0.20805   0.07771   0.00000  Uiso   1.00
O39    O     0.11921   0.61725   0.33021   0.00000  Uiso   1.00
O40    O     0.11935   0.01983   0.06615   0.00000  Uiso   1.00
N41    N     0.20912   0.32647   0.14534   0.00000  Uiso   1.00
N42    N     0.19673   0.61806   0.32527   0.00000  Uiso   1.00
N43    N     0.19683   0.90495   0.13712   0.00000  Uiso   1.00
N44    N     0.05743   0.32358   0.05622   0.00000  Uiso   1.00
N45    N     0.04505   0.61517   0.23615   0.00000  Uiso   1.00
N46    N     0.04514   0.90206   0.04800   0.00000  Uiso   1.00
C47    C     0.71424   0.11673   0.21040   0.00000  Uiso   1.00
C48    C     0.67576   0.03604   0.17069   0.00000  Uiso   1.00
C49    C     0.72790   0.96980   0.18694   0.00000  Uiso   1.00
C50    C     0.67967   0.90155   0.14421   0.00000  Uiso   1.00
C51    C     0.63465   0.77651   0.09121   0.00000  Uiso   1.00
C52    C     0.67235   0.11639   0.22028   0.00000  Uiso   1.00
C53    C     0.72162   0.11771   0.27823   0.00000  Uiso   1.00
C54    C     0.67050   0.11711   0.27724   0.00000  Uiso   1.00
C55    C     0.62019   0.11688   0.30124   0.00000  Uiso   1.00
C56    C     0.67238   0.19544   0.16842   0.00000  Uiso   1.00
C57    C     0.72167   0.26325   0.18278   0.00000  Uiso   1.00
C58    C     0.67058   0.32923   0.13813   0.00000  Uiso   1.00
C59    C     0.62031   0.45175   0.08161   0.00000  Uiso   1.00
C60    C     0.53586   0.11334   0.10560   0.00000  Uiso   1.00
C61    C     0.57887   0.03420   0.11376   0.00000  Uiso   1.00
C62    C     0.53054   0.96604   0.07099   0.00000  Uiso   1.00
C63    C     0.58260   0.89970   0.08718   0.00000  Uiso   1.00
C64    C     0.57546   0.11454   0.16336   0.00000  Uiso   1.00
C65    C     0.52426   0.11395   0.16228   0.00000  Uiso   1.00
C66    C     0.57344   0.11527   0.22021   0.00000  Uiso   1.00
C67    C     0.57549   0.19360   0.11149   0.00000  Uiso   1.00
C68    C     0.52431   0.25949   0.06682   0.00000  Uiso   1.00
C69    C     0.57351   0.32738   0.08110   0.00000  Uiso   1.00
H70    H     0.78967   0.11817   0.25472   0.00000  Uiso   1.00
H71    H     0.80288   0.97124   0.23101   0.00000  Uiso   1.00
H72    H     0.79660   0.11915   0.32228   0.00000  Uiso   1.00
H73    H     0.79664   0.26466   0.22683   0.00000  Uiso   1.00
H74    H     0.77479   0.80752   0.17961   0.00000  Uiso   1.00
H75    H     0.76154   0.11940   0.37207   0.00000  Uiso   1.00
H76    H     0.76165   0.42626   0.17081   0.00000  Uiso   1.00
H77    H     0.46043   0.11190   0.06128   0.00000  Uiso   1.00
H78    H     0.45557   0.96463   0.02694   0.00000  Uiso   1.00
H79    H     0.44928   0.11253   0.11822   0.00000  Uiso   1.00
H80    H     0.44933   0.25804   0.02277   0.00000  Uiso   1.00
H81    H     0.49290   0.80214   0.01399   0.00000  Uiso   1.00
H82    H     0.47965   0.11404   0.20644   0.00000  Uiso   1.00
H83    H     0.47976   0.42088   0.00518   0.00000  Uiso   1.00
O84    O     0.63659   0.70805   0.07771   0.00000  Uiso   1.00
O85    O     0.61921   0.11725   0.33021   0.00000  Uiso   1.00
O86    O     0.61935   0.51983   0.06615   0.00000  Uiso   1.00
N87    N     0.70912   0.82647   0.14534   0.00000  Uiso   1.00
N88    N     0.69673   0.11806   0.32527   0.00000  Uiso   1.00
N89    N     0.69683   0.40495   0.13712   0.00000  Uiso   1.00
N90    N     0.55743   0.82358   0.05622   0.00000  Uiso   1.00
N91    N     0.54505   0.11517   0.23615   0.00000  Uiso   1.00
N92    N     0.54514   0.40206   0.04800   0.00000  Uiso   1.00
C93    C     0.78576   0.61673   0.28960   0.00000  Uiso   1.00
C94    C     0.82424   0.53604   0.32931   0.00000  Uiso   1.00
C95    C     0.77210   0.46980   0.31306   0.00000  Uiso   1.00
C96    C     0.82033   0.40155   0.35579   0.00000  Uiso   1.00
C97    C     0.86535   0.27651   0.40879   0.00000  Uiso   1.00
C98    C     0.82765   0.61639   0.27972   0.00000  Uiso   1.00
C99    C     0.77838   0.61771   0.22177   0.00000  Uiso   1.00
C100   C     0.82950   0.61711   0.22276   0.00000  Uiso   1.00
C101   C     0.87981   0.61688   0.19876   0.00000  Uiso   1.00
C102   C     0.82762   0.69544   0.33158   0.00000  Uiso   1.00
C103   C     0.77833   0.76325   0.31722   0.00000  Uiso   1.00
C104   C     0.82942   0.82923   0.36187   0.00000  Uiso   1.00
C105   C     0.87969   0.95175   0.41839   0.00000  Uiso   1.00
C106   C     0.96414   0.61334   0.39440   0.00000  Uiso   1.00
C107   C     0.92113   0.53420   0.38624   0.00000  Uiso   1.00
C108   C     0.96946   0.46604   0.42901   0.00000  Uiso   1.00
C109   C     0.91740   0.39970   0.41282   0.00000  Uiso   1.00
C110   C     0.92454   0.61454   0.33664   0.00000  Uiso   1.00
C111   C     0.97574   0.61395   0.33772   0.00000  Uiso   1.00
C112   C     0.92656   0.61527   0.27979   0.00000  Uiso   1.00
C113   C     0.92451   0.69360   0.38851   0.00000  Uiso   1.00
C114   C     0.97569   0.75949   0.43318   0.00000  Uiso   1.00
C115   C     0.92649   0.82738   0.41890   0.00000  Uiso   1.00
H116   H     0.71033   0.61817   0.24528   0.00000  Uiso   1.00
H117   H     0.69712   0.47124   0.26899   0.00000  Uiso   1.00
H118   H     0.70340   0.61915   0.17772   0.00000  Uiso   1.00
H119   H     0.70336   0.76466   0.27317   0.00000  Uiso   1.00
H120   H     0.72521   0.30752   0.32039   0.00000  Uiso   1.00
H121   H     0.73846   0.61940   0.12793   0.00000  Uiso   1.00
H122   H     0.73835   0.92626   0.32919   0.00000  Uiso   1.00
H123   H     0.03957   0.61190   0.43872   0.00000  Uiso   1.00
H124   H     0.04443   0.46463   0.47306   0.00000  Uiso   1.00
H125   H     0.05072   0.61253   0.38178   0.00000  Uiso   1.00
H126   H     0.05067   0.75804   0.47723   0.00000  Uiso   1.00
H127   H     0.00710   0.30214   0.48601   0.00000  Uiso   1.00
H128   H     0.02035   0.61404   0.29356   0.00000  Uiso   1.00
H129   H     0.02024   0.92088   0.49482   0.00000  Uiso   1.00
O130   O     0.86341   0.20805   0.42229   0.00000  Uiso   1.00
O131   O     0.88079   0.61725   0.16979   0.00000  Uiso   1.00
O132   O     0.88065   0.01983   0.43385   0.00000  Uiso   1.00
N133   N     0.79088   0.32647   0.35466   0.00000  Uiso   1.00
N134   N     0.80327   0.61806   0.17473   0.00000  Uiso   1.00
N135   N     0.80317   0.90495   0.36288   0.00000  Uiso   1.00
N136   N     0.94257   0.32358   0.44378   0.00000  Uiso   1.00
N137   N     0.95495   0.61517   0.26385   0.00000  Uiso   1.00
N138   N     0.95486   0.90206   0.45200   0.00000  Uiso   1.00
C139   C     0.28576   0.11673   0.28960   0.00000  Uiso   1.00
C140   C     0.32424   0.03604   0.32931   0.00000  Uiso   1.00
C141   C     0.27210   0.96980   0.31306   0.00000  Uiso   1.00
C142   C     0.32033   0.90155   0.35579   0.00000  Uiso   1.00
C143   C     0.36535   0.77651   0.40879   0.00000  Uiso   1.00
C144   C     0.32765   0.11639   0.27972   0.00000  Uiso   1.00
C145   C     0.27838   0.11771   0.22177   0.00000  Uiso   1.00
C146   C     0.32950   0.11711   0.22276   0.00000  Uiso   1.00
C147   C     0.37981   0.11688   0.19876   0.00000  Uiso   1.00
C148   C     0.32762   0.19544   0.33158   0.00000  Uiso   1.00
C149   C     0.27833   0.26325   0.31722   0.00000  Uiso   1.00
C150   C     0.32942   0.32923   0.36187   0.00000  Uiso   1.00
C151   C     0.37969   0.45175   0.41839   0.00000  Uiso   1.00
C152   C     0.46414   0.11334   0.39440   0.00000  Uiso   1.00
C153   C     0.42113   0.03420   0.38624   0.00000  Uiso   1.00
C154   C     0.46946   0.96604   0.42901   0.00000  Uiso   1.00
C155   C     0.41740   0.89970   0.41282   0.00000  Uiso   1.00
C156   C     0.42454   0.11454   0.33664   0.00000  Uiso   1.00
C157   C     0.47574   0.11395   0.33772   0.00000  Uiso   1.00
C158   C     0.42656   0.11527   0.27979   0.00000  Uiso   1.00
C159   C     0.42451   0.19360   0.38851   0.00000  Uiso   1.00
C160   C     0.47569   0.25949   0.43318   0.00000  Uiso   1.00
C161   C     0.42649   0.32738   0.41890   0.00000  Uiso   1.00
H162   H     0.21033   0.11817   0.24528   0.00000  Uiso   1.00
H163   H     0.19712   0.97124   0.26899   0.00000  Uiso   1.00
H164   H     0.20340   0.11915   0.17772   0.00000  Uiso   1.00
H165   H     0.20336   0.26466   0.27317   0.00000  Uiso   1.00
H166   H     0.22521   0.80752   0.32039   0.00000  Uiso   1.00
H167   H     0.23846   0.11940   0.12793   0.00000  Uiso   1.00
H168   H     0.23835   0.42626   0.32919   0.00000  Uiso   1.00
H169   H     0.53957   0.11190   0.43872   0.00000  Uiso   1.00
H170   H     0.54443   0.96463   0.47306   0.00000  Uiso   1.00
H171   H     0.55072   0.11253   0.38178   0.00000  Uiso   1.00
H172   H     0.55067   0.25804   0.47723   0.00000  Uiso   1.00
H173   H     0.50710   0.80214   0.48601   0.00000  Uiso   1.00
H174   H     0.52035   0.11404   0.29356   0.00000  Uiso   1.00
H175   H     0.52024   0.42088   0.49482   0.00000  Uiso   1.00
O176   O     0.36341   0.70805   0.42229   0.00000  Uiso   1.00
O177   O     0.38079   0.11725   0.16979   0.00000  Uiso   1.00
O178   O     0.38065   0.51983   0.43385   0.00000  Uiso   1.00
N179   N     0.29088   0.82647   0.35466   0.00000  Uiso   1.00
N180   N     0.30327   0.11806   0.17473   0.00000  Uiso   1.00
N181   N     0.30317   0.40495   0.36288   0.00000  Uiso   1.00
N182   N     0.44257   0.82358   0.44378   0.00000  Uiso   1.00
N183   N     0.45495   0.11517   0.26385   0.00000  Uiso   1.00
N184   N     0.45486   0.40206   0.45200   0.00000  Uiso   1.00
C185   C     0.78576   0.38327   0.78960   0.00000  Uiso   1.00
C186   C     0.82424   0.46396   0.82931   0.00000  Uiso   1.00
C187   C     0.77210   0.53020   0.81306   0.00000  Uiso   1.00
C188   C     0.82033   0.59845   0.85579   0.00000  Uiso   1.00
C189   C     0.86535   0.72349   0.90879   0.00000  Uiso   1.00
C190   C     0.82765   0.38361   0.77972   0.00000  Uiso   1.00
C191   C     0.77838   0.38229   0.72177   0.00000  Uiso   1.00
C192   C     0.82950   0.38289   0.72276   0.00000  Uiso   1.00
C193   C     0.87981   0.38312   0.69876   0.00000  Uiso   1.00
C194   C     0.82762   0.30456   0.83158   0.00000  Uiso   1.00
C195   C     0.77833   0.23675   0.81722   0.00000  Uiso   1.00
C196   C     0.82942   0.17077   0.86187   0.00000  Uiso   1.00
C197   C     0.87969   0.04825   0.91839   0.00000  Uiso   1.00
C198   C     0.96414   0.38666   0.89440   0.00000  Uiso   1.00
C199   C     0.92113   0.46580   0.88624   0.00000  Uiso   1.00
C200   C     0.96946   0.53396   0.92901   0.00000  Uiso   1.00
C201   C     0.91740   0.60030   0.91282   0.00000  Uiso   1.00
C202   C     0.92454   0.38546   0.83664   0.00000  Uiso   1.00
C203   C     0.97574   0.38605   0.83772   0.00000  Uiso   1.00
C204   C     0.92656   0.38473   0.77979   0.00000  Uiso   1.00
C205   C     0.92451   0.30640   0.88851   0.00000  Uiso   1.00
C206   C     0.97569   0.24051   0.93318   0.00000  Uiso   1.00
C207   C     0.92649   0.17262   0.91890   0.00000  Uiso   1.00
H208   H     0.71033   0.38183   0.74528   0.00000  Uiso   1.00
H209   H     0.69712   0.52876   0.76899   0.00000  Uiso   1.00
H210   H     0.70340   0.38085   0.67772   0.00000  Uiso   1.00
H211   H     0.70336   0.23534   0.77317   0.00000  Uiso   1.00
H212   H     0.72521   0.69248   0.82039   0.00000  Uiso   1.00
H213   H     0.73846   0.38060   0.62793   0.00000  Uiso   1.00
H214   H     0.73835   0.07374   0.82919   0.00000  Uiso   1.00
H215   H     0.03957   0.38810   0.93872   0.00000  Uiso   1.00
H216   H     0.04443   0.53537   0.97306   0.00000  Uiso   1.00
H217   H     0.05072   0.38747   0.88178   0.00000  Uiso   1.00
H218   H     0.05067   0.24196   0.97723   0.00000  Uiso   1.00
H219   H     0.00710   0.69786   0.98601   0.00000  Uiso   1.00
H220   H     0.02035   0.38596   0.79356   0.00000  Uiso   1.00
H221   H     0.02024   0.07912   0.99482   0.00000  Uiso   1.00
O222   O     0.86341   0.79195   0.92229   0.00000  Uiso   1.00
O223   O     0.88079   0.38275   0.66979   0.00000  Uiso   1.00
O224   O     0.88065   0.98017   0.93385   0.00000  Uiso   1.00
N225   N     0.79088   0.67353   0.85466   0.00000  Uiso   1.00
N226   N     0.80327   0.38194   0.67473   0.00000  Uiso   1.00
N227   N     0.80317   0.09505   0.86288   0.00000  Uiso   1.00
N228   N     0.94257   0.67642   0.94378   0.00000  Uiso   1.00
N229   N     0.95495   0.38483   0.76385   0.00000  Uiso   1.00
N230   N     0.95486   0.09794   0.95200   0.00000  Uiso   1.00
C231   C     0.28576   0.88327   0.78960   0.00000  Uiso   1.00
C232   C     0.32424   0.96396   0.82931   0.00000  Uiso   1.00
C233   C     0.27210   0.03020   0.81306   0.00000  Uiso   1.00
C234   C     0.32033   0.09845   0.85579   0.00000  Uiso   1.00
C235   C     0.36535   0.22349   0.90879   0.00000  Uiso   1.00
C236   C     0.32765   0.88361   0.77972   0.00000  Uiso   1.00
C237   C     0.27838   0.88229   0.72177   0.00000  Uiso   1.00
C238   C     0.32950   0.88289   0.72276   0.00000  Uiso   1.00
C239   C     0.37981   0.88312   0.69876   0.00000  Uiso   1.00
C240   C     0.32762   0.80456   0.83158   0.00000  Uiso   1.00
C241   C     0.27833   0.73675   0.81722   0.00000  Uiso   1.00
C242   C     0.32942   0.67077   0.86187   0.00000  Uiso   1.00
C243   C     0.37969   0.54825   0.91839   0.00000  Uiso   1.00
C244   C     0.46414   0.88666   0.89440   0.00000  Uiso   1.00
C245   C     0.42113   0.96580   0.88624   0.00000  Uiso   1.00
C246   C     0.46946   0.03396   0.92901   0.00000  Uiso   1.00
C247   C     0.41740   0.10030   0.91282   0.00000  Uiso   1.00
C248   C     0.42454   0.88546   0.83664   0.00000  Uiso   1.00
C249   C     0.47574   0.88605   0.83772   0.00000  Uiso   1.00
C250   C     0.42656   0.88473   0.77979   0.00000  Uiso   1.00
C251   C     0.42451   0.80640   0.88851   0.00000  Uiso   1.00
C252   C     0.47569   0.74051   0.93318   0.00000  Uiso   1.00
C253   C     0.42649   0.67262   0.91890   0.00000  Uiso   1.00
H254   H     0.21033   0.88183   0.74528   0.00000  Uiso   1.00
H255   H     0.19712   0.02876   0.76899   0.00000  Uiso   1.00
H256   H     0.20340   0.88085   0.67772   0.00000  Uiso   1.00
H257   H     0.20336   0.73534   0.77317   0.00000  Uiso   1.00
H258   H     0.22521   0.19248   0.82039   0.00000  Uiso   1.00
H259   H     0.23846   0.88060   0.62793   0.00000  Uiso   1.00
H260   H     0.23835   0.57374   0.82919   0.00000  Uiso   1.00
H261   H     0.53957   0.88810   0.93872   0.00000  Uiso   1.00
H262   H     0.54443   0.03537   0.97306   0.00000  Uiso   1.00
H263   H     0.55072   0.88747   0.88178   0.00000  Uiso   1.00
H264   H     0.55067   0.74196   0.97723   0.00000  Uiso   1.00
H265   H     0.50710   0.19786   0.98601   0.00000  Uiso   1.00
H266   H     0.52035   0.88596   0.79356   0.00000  Uiso   1.00
H267   H     0.52024   0.57912   0.99482   0.00000  Uiso   1.00
O268   O     0.36341   0.29195   0.92229   0.00000  Uiso   1.00
O269   O     0.38079   0.88275   0.66979   0.00000  Uiso   1.00
O270   O     0.38065   0.48017   0.93385   0.00000  Uiso   1.00
N271   N     0.29088   0.17353   0.85466   0.00000  Uiso   1.00
N272   N     0.30327   0.88194   0.67473   0.00000  Uiso   1.00
N273   N     0.30317   0.59505   0.86288   0.00000  Uiso   1.00
N274   N     0.44257   0.17642   0.94378   0.00000  Uiso   1.00
N275   N     0.45495   0.88483   0.76385   0.00000  Uiso   1.00
N276   N     0.45486   0.59794   0.95200   0.00000  Uiso   1.00
C277   C     0.21424   0.38327   0.71040   0.00000  Uiso   1.00
C278   C     0.17576   0.46396   0.67069   0.00000  Uiso   1.00
C279   C     0.22790   0.53020   0.68694   0.00000  Uiso   1.00
C280   C     0.17967   0.59845   0.64421   0.00000  Uiso   1.00
C281   C     0.13465   0.72349   0.59121   0.00000  Uiso   1.00
C282   C     0.17235   0.38361   0.72028   0.00000  Uiso   1.00
C283   C     0.22162   0.38229   0.77823   0.00000  Uiso   1.00
C284   C     0.17050   0.38289   0.77724   0.00000  Uiso   1.00
C285   C     0.12019   0.38312   0.80124   0.00000  Uiso   1.00
C286   C     0.17238   0.30456   0.66842   0.00000  Uiso   1.00
C287   C     0.22167   0.23675   0.68278   0.00000  Uiso   1.00
C288   C     0.17058   0.17077   0.63813   0.00000  Uiso   1.00
C289   C     0.12031   0.04825   0.58161   0.00000  Uiso   1.00
C290   C     0.03586   0.38666   0.60560   0.00000  Uiso   1.00
C291   C     0.07887   0.46580   0.61376   0.00000  Uiso   1.00
C292   C     0.03054   0.53396   0.57099   0.00000  Uiso   1.00
C293   C     0.08260   0.60030   0.58718   0.00000  Uiso   1.00
C294   C     0.07546   0.38546   0.66336   0.00000  Uiso   1.00
C295   C     0.02426   0.38605   0.66228   0.00000  Uiso   1.00
C296   C     0.07344   0.38473   0.72021   0.00000  Uiso   1.00
C297   C     0.07549   0.30640   0.61149   0.00000  Uiso   1.00
C298   C     0.02431   0.24051   0.56682   0.00000  Uiso   1.00
C299   C     0.07351   0.17262   0.58110   0.00000  Uiso   1.00
H300   H     0.28967   0.38183   0.75472   0.00000  Uiso   1.00
H301   H     0.30288   0.52876   0.73101   0.00000  Uiso   1.00
H302   H     0.29660   0.38085   0.82228   0.00000  Uiso   1.00
H303   H     0.29664   0.23534   0.72683   0.00000  Uiso   1.00
H304   H     0.27479   0.69248   0.67961   0.00000  Uiso   1.00
H305   H     0.26154   0.38060   0.87207   0.00000  Uiso   1.00
H306   H     0.26165   0.07374   0.67081   0.00000  Uiso   1.00
H307   H     0.96043   0.38810   0.56128   0.00000  Uiso   1.00
H308   H     0.95557   0.53537   0.52694   0.00000  Uiso   1.00
H309   H     0.94928   0.38747   0.61822   0.00000  Uiso   1.00
H310   H     0.94933   0.24196   0.52277   0.00000  Uiso   1.00
H311   H     0.99290   0.69786   0.51399   0.00000  Uiso   1.00
H312   H     0.97965   0.38596   0.70644   0.00000  Uiso   1.00
H313   H     0.97976   0.07912   0.50518   0.00000  Uiso   1.00
O314   O     0.13659   0.79195   0.57771   0.00000  Uiso   1.00
O315   O     0.11921   0.38275   0.83021   0.00000  Uiso   1.00
O316   O     0.11935   0.98017   0.56615   0.00000  Uiso   1.00
N317   N     0.20912   0.67353   0.64534   0.00000  Uiso   1.00
N318   N     0.19673   0.38194   0.82527   0.00000  Uiso   1.00
N319   N     0.19683   0.09505   0.63712   0.00000  Uiso   1.00
N320   N     0.05743   0.67642   0.55622   0.00000  Uiso   1.00
N321   N     0.04505   0.38483   0.73615   0.00000  Uiso   1.00
N322   N     0.04514   0.09794   0.54800   0.00000  Uiso   1.00
C323   C     0.71424   0.88327   0.71040   0.00000  Uiso   1.00
C324   C     0.67576   0.96396   0.67069   0.00000  Uiso   1.00
C325   C     0.72790   0.03020   0.68694   0.00000  Uiso   1.00
C326   C     0.67967   0.09845   0.64421   0.00000  Uiso   1.00
C327   C     0.63465   0.22349   0.59121   0.00000  Uiso   1.00
C328   C     0.67235   0.88361   0.72028   0.00000  Uiso   1.00
C329   C     0.72162   0.88229   0.77823   0.00000  Uiso   1.00
C330   C     0.67050   0.88289   0.77724   0.00000  Uiso   1.00
C331   C     0.62019   0.88312   0.80124   0.00000  Uiso   1.00
C332   C     0.67238   0.80456   0.66842   0.00000  Uiso   1.00
C333   C     0.72167   0.73675   0.68278   0.00000  Uiso   1.00
C334   C     0.67058   0.67077   0.63813   0.00000  Uiso   1.00
C335   C     0.62031   0.54825   0.58161   0.00000  Uiso   1.00
C336   C     0.53586   0.88666   0.60560   0.00000  Uiso   1.00
C337   C     0.57887   0.96580   0.61376   0.00000  Uiso   1.00
C338   C     0.53054   0.03396   0.57099   0.00000  Uiso   1.00
C339   C     0.58260   0.10030   0.58718   0.00000  Uiso   1.00
C340   C     0.57546   0.88546   0.66336   0.00000  Uiso   1.00
C341   C     0.52426   0.88605   0.66228   0.00000  Uiso   1.00
C342   C     0.57344   0.88473   0.72021   0.00000  Uiso   1.00
C343   C     0.57549   0.80640   0.61149   0.00000  Uiso   1.00
C344   C     0.52431   0.74051   0.56682   0.00000  Uiso   1.00
C345   C     0.57351   0.67262   0.58110   0.00000  Uiso   1.00
H346   H     0.78967   0.88183   0.75472   0.00000  Uiso   1.00
H347   H     0.80288   0.02876   0.73101   0.00000  Uiso   1.00
H348   H     0.79660   0.88085   0.82228   0.00000  Uiso   1.00
H349   H     0.79664   0.73534   0.72683   0.00000  Uiso   1.00
H350   H     0.77479   0.19248   0.67961   0.00000  Uiso   1.00
H351   H     0.76154   0.88060   0.87207   0.00000  Uiso   1.00
H352   H     0.76165   0.57374   0.67081   0.00000  Uiso   1.00
H353   H     0.46043   0.88810   0.56128   0.00000  Uiso   1.00
H354   H     0.45557   0.03537   0.52694   0.00000  Uiso   1.00
H355   H     0.44928   0.88747   0.61822   0.00000  Uiso   1.00
H356   H     0.44933   0.74196   0.52277   0.00000  Uiso   1.00
H357   H     0.49290   0.19786   0.51399   0.00000  Uiso   1.00
H358   H     0.47965   0.88596   0.70644   0.00000  Uiso   1.00
H359   H     0.47976   0.57912   0.50518   0.00000  Uiso   1.00
O360   O     0.63659   0.29195   0.57771   0.00000  Uiso   1.00
O361   O     0.61921   0.88275   0.83021   0.00000  Uiso   1.00
O362   O     0.61935   0.48017   0.56615   0.00000  Uiso   1.00
N363   N     0.70912   0.17353   0.64534   0.00000  Uiso   1.00
N364   N     0.69673   0.88194   0.82527   0.00000  Uiso   1.00
N365   N     0.69683   0.59505   0.63712   0.00000  Uiso   1.00
N366   N     0.55743   0.17642   0.55622   0.00000  Uiso   1.00
N367   N     0.54505   0.88483   0.73615   0.00000  Uiso   1.00
N368   N     0.54514   0.59794   0.54800   0.00000  Uiso   1.00
