data_job_02658
_audit_creation_date              2018-12-19
_audit_creation_method            'Materials Studio'
_symmetry_space_group_name_H-M    'P1'
_symmetry_Int_Tables_number       1
_symmetry_cell_setting            triclinic
loop_
_symmetry_equiv_pos_as_xyz
  x,y,z
_cell_length_a                    13.7212
_cell_length_b                    37.7729
_cell_length_c                    18.2548
_cell_angle_alpha                 90.0000
_cell_angle_beta                  90.0000
_cell_angle_gamma                 90.0000
loop_
_atom_site_label
_atom_site_type_symbol
_atom_site_fract_x
_atom_site_fract_y
_atom_site_fract_z
_atom_site_U_iso_or_equiv
_atom_site_adp_type
_atom_site_occupancy
C1     C     0.91712   0.83434   0.36665   0.00000  Uiso   1.00
C2     C     0.84394   0.82916   0.30470   0.00000  Uiso   1.00
C3     C     0.86661   0.82553   0.23100   0.00000  Uiso   1.00
C4     C     0.78921   0.82104   0.18290   0.00000  Uiso   1.00
C5     C     0.69026   0.81315   0.08293   0.00000  Uiso   1.00
C6     C     0.88724   0.86838   0.40554   0.00000  Uiso   1.00
C7     C     0.94632   0.89771   0.41662   0.00000  Uiso   1.00
C8     C     0.90537   0.92624   0.45341   0.00000  Uiso   1.00
C9     C     0.87366   0.97922   0.51004   0.00000  Uiso   1.00
C10    C     0.89837   0.80444   0.42099   0.00000  Uiso   1.00
C11    C     0.96682   0.78003   0.44508   0.00000  Uiso   1.00
C12    C     0.93524   0.75473   0.49490   0.00000  Uiso   1.00
C13    C     0.92082   0.70844   0.57552   0.00000  Uiso   1.00
C14    C     0.73935   0.83283   0.41230   0.00000  Uiso   1.00
C15    C     0.74738   0.82834   0.32950   0.00000  Uiso   1.00
C16    C     0.66992   0.82386   0.28150   0.00000  Uiso   1.00
C17    C     0.69247   0.82022   0.20773   0.00000  Uiso   1.00
C18    C     0.79068   0.86756   0.43033   0.00000  Uiso   1.00
C19    C     0.74963   0.89605   0.46712   0.00000  Uiso   1.00
C20    C     0.80864   0.92542   0.47825   0.00000  Uiso   1.00
C21    C     0.80181   0.80362   0.44578   0.00000  Uiso   1.00
C22    C     0.77013   0.77836   0.49558   0.00000  Uiso   1.00
C23    C     0.83851   0.75391   0.51974   0.00000  Uiso   1.00
H24    H     0.99230   0.83497   0.34735   0.00000  Uiso   1.00
H25    H     0.94135   0.82617   0.21183   0.00000  Uiso   1.00
H26    H     0.02105   0.89834   0.39744   0.00000  Uiso   1.00
H27    H     0.04153   0.78067   0.42589   0.00000  Uiso   1.00
H28    H     0.84227   0.81605   0.07252   0.00000  Uiso   1.00
H29    H     0.01033   0.96823   0.46389   0.00000  Uiso   1.00
H30    H     0.05354   0.72010   0.52389   0.00000  Uiso   1.00
H31    H     0.66417   0.83219   0.43160   0.00000  Uiso   1.00
H32    H     0.59520   0.82323   0.30070   0.00000  Uiso   1.00
H33    H     0.67491   0.89540   0.48630   0.00000  Uiso   1.00
H34    H     0.69540   0.77773   0.51475   0.00000  Uiso   1.00
H35    H     0.56133   0.81367   0.14464   0.00000  Uiso   1.00
H36    H     0.72939   0.96584   0.53601   0.00000  Uiso   1.00
H37    H     0.77260   0.71772   0.59601   0.00000  Uiso   1.00
O38    O     0.66235   0.80903   0.02095   0.00000  Uiso   1.00
O39    O     0.88285   0.00867   0.53442   0.00000  Uiso   1.00
O40    O     0.93953   0.68313   0.61314   0.00000  Uiso   1.00
N41    N     0.78561   0.81671   0.10746   0.00000  Uiso   1.00
N42    N     0.94274   0.95899   0.47335   0.00000  Uiso   1.00
N43    N     0.98314   0.72702   0.52947   0.00000  Uiso   1.00
N44    N     0.63444   0.81543   0.14627   0.00000  Uiso   1.00
N45    N     0.79157   0.95771   0.51216   0.00000  Uiso   1.00
N46    N     0.83197   0.72573   0.56828   0.00000  Uiso   1.00
C47    C     0.58288   0.16566   0.36665   0.00000  Uiso   1.00
C48    C     0.65606   0.17084   0.30470   0.00000  Uiso   1.00
C49    C     0.63339   0.17447   0.23100   0.00000  Uiso   1.00
C50    C     0.71079   0.17896   0.18290   0.00000  Uiso   1.00
C51    C     0.80974   0.18685   0.08293   0.00000  Uiso   1.00
C52    C     0.61276   0.13162   0.40554   0.00000  Uiso   1.00
C53    C     0.55368   0.10229   0.41662   0.00000  Uiso   1.00
C54    C     0.59463   0.07376   0.45341   0.00000  Uiso   1.00
C55    C     0.62634   0.02078   0.51004   0.00000  Uiso   1.00
C56    C     0.60163   0.19556   0.42099   0.00000  Uiso   1.00
C57    C     0.53318   0.21997   0.44508   0.00000  Uiso   1.00
C58    C     0.56476   0.24527   0.49490   0.00000  Uiso   1.00
C59    C     0.57918   0.29156   0.57552   0.00000  Uiso   1.00
C60    C     0.76065   0.16717   0.41230   0.00000  Uiso   1.00
C61    C     0.75262   0.17166   0.32950   0.00000  Uiso   1.00
C62    C     0.83008   0.17614   0.28150   0.00000  Uiso   1.00
C63    C     0.80753   0.17978   0.20773   0.00000  Uiso   1.00
C64    C     0.70932   0.13244   0.43033   0.00000  Uiso   1.00
C65    C     0.75037   0.10395   0.46712   0.00000  Uiso   1.00
C66    C     0.69136   0.07458   0.47825   0.00000  Uiso   1.00
C67    C     0.69819   0.19638   0.44578   0.00000  Uiso   1.00
C68    C     0.72987   0.22164   0.49558   0.00000  Uiso   1.00
C69    C     0.66149   0.24609   0.51974   0.00000  Uiso   1.00
H70    H     0.50770   0.16503   0.34735   0.00000  Uiso   1.00
H71    H     0.55865   0.17383   0.21183   0.00000  Uiso   1.00
H72    H     0.47895   0.10166   0.39744   0.00000  Uiso   1.00
H73    H     0.45847   0.21933   0.42589   0.00000  Uiso   1.00
H74    H     0.65773   0.18395   0.07252   0.00000  Uiso   1.00
H75    H     0.48967   0.03177   0.46389   0.00000  Uiso   1.00
H76    H     0.44646   0.27990   0.52389   0.00000  Uiso   1.00
H77    H     0.83583   0.16781   0.43160   0.00000  Uiso   1.00
H78    H     0.90480   0.17677   0.30070   0.00000  Uiso   1.00
H79    H     0.82509   0.10460   0.48630   0.00000  Uiso   1.00
H80    H     0.80460   0.22227   0.51475   0.00000  Uiso   1.00
H81    H     0.93867   0.18633   0.14464   0.00000  Uiso   1.00
H82    H     0.77061   0.03416   0.53601   0.00000  Uiso   1.00
H83    H     0.72740   0.28228   0.59601   0.00000  Uiso   1.00
O84    O     0.83765   0.19097   0.02095   0.00000  Uiso   1.00
O85    O     0.61715   0.99133   0.53442   0.00000  Uiso   1.00
O86    O     0.56047   0.31687   0.61314   0.00000  Uiso   1.00
N87    N     0.71439   0.18329   0.10746   0.00000  Uiso   1.00
N88    N     0.55726   0.04101   0.47335   0.00000  Uiso   1.00
N89    N     0.51686   0.27298   0.52947   0.00000  Uiso   1.00
N90    N     0.86556   0.18457   0.14627   0.00000  Uiso   1.00
N91    N     0.70843   0.04229   0.51216   0.00000  Uiso   1.00
N92    N     0.66803   0.27427   0.56828   0.00000  Uiso   1.00
C93    C     0.58288   0.33434   0.13335   0.00000  Uiso   1.00
C94    C     0.65606   0.32916   0.19530   0.00000  Uiso   1.00
C95    C     0.63339   0.32553   0.26900   0.00000  Uiso   1.00
C96    C     0.71079   0.32104   0.31710   0.00000  Uiso   1.00
C97    C     0.80974   0.31315   0.41707   0.00000  Uiso   1.00
C98    C     0.61276   0.36838   0.09446   0.00000  Uiso   1.00
C99    C     0.55368   0.39771   0.08338   0.00000  Uiso   1.00
C100   C     0.59463   0.42624   0.04659   0.00000  Uiso   1.00
C101   C     0.62634   0.47922   0.98996   0.00000  Uiso   1.00
C102   C     0.60163   0.30444   0.07901   0.00000  Uiso   1.00
C103   C     0.53318   0.28003   0.05492   0.00000  Uiso   1.00
C104   C     0.56476   0.25473   0.00510   0.00000  Uiso   1.00
C105   C     0.57918   0.20844   0.92448   0.00000  Uiso   1.00
C106   C     0.76065   0.33283   0.08770   0.00000  Uiso   1.00
C107   C     0.75262   0.32834   0.17050   0.00000  Uiso   1.00
C108   C     0.83008   0.32386   0.21850   0.00000  Uiso   1.00
C109   C     0.80753   0.32022   0.29227   0.00000  Uiso   1.00
C110   C     0.70932   0.36756   0.06967   0.00000  Uiso   1.00
C111   C     0.75037   0.39605   0.03288   0.00000  Uiso   1.00
C112   C     0.69136   0.42542   0.02175   0.00000  Uiso   1.00
C113   C     0.69819   0.30362   0.05422   0.00000  Uiso   1.00
C114   C     0.72987   0.27836   0.00442   0.00000  Uiso   1.00
C115   C     0.66149   0.25391   0.98026   0.00000  Uiso   1.00
H116   H     0.50770   0.33497   0.15265   0.00000  Uiso   1.00
H117   H     0.55865   0.32617   0.28817   0.00000  Uiso   1.00
H118   H     0.47895   0.39834   0.10256   0.00000  Uiso   1.00
H119   H     0.45847   0.28067   0.07411   0.00000  Uiso   1.00
H120   H     0.65773   0.31605   0.42748   0.00000  Uiso   1.00
H121   H     0.48967   0.46823   0.03611   0.00000  Uiso   1.00
H122   H     0.44646   0.22010   0.97611   0.00000  Uiso   1.00
H123   H     0.83583   0.33219   0.06840   0.00000  Uiso   1.00
H124   H     0.90480   0.32323   0.19930   0.00000  Uiso   1.00
H125   H     0.82509   0.39540   0.01370   0.00000  Uiso   1.00
H126   H     0.80460   0.27773   0.98525   0.00000  Uiso   1.00
H127   H     0.93867   0.31367   0.35536   0.00000  Uiso   1.00
H128   H     0.77061   0.46584   0.96399   0.00000  Uiso   1.00
H129   H     0.72740   0.21772   0.90399   0.00000  Uiso   1.00
O130   O     0.83765   0.30903   0.47905   0.00000  Uiso   1.00
O131   O     0.61715   0.50867   0.96558   0.00000  Uiso   1.00
O132   O     0.56047   0.18313   0.88686   0.00000  Uiso   1.00
N133   N     0.71439   0.31671   0.39254   0.00000  Uiso   1.00
N134   N     0.55726   0.45899   0.02665   0.00000  Uiso   1.00
N135   N     0.51686   0.22702   0.97053   0.00000  Uiso   1.00
N136   N     0.86556   0.31543   0.35373   0.00000  Uiso   1.00
N137   N     0.70843   0.45771   0.98784   0.00000  Uiso   1.00
N138   N     0.66803   0.22573   0.93172   0.00000  Uiso   1.00
C139   C     0.91712   0.66566   0.13335   0.00000  Uiso   1.00
C140   C     0.84394   0.67084   0.19530   0.00000  Uiso   1.00
C141   C     0.86661   0.67447   0.26900   0.00000  Uiso   1.00
C142   C     0.78921   0.67896   0.31710   0.00000  Uiso   1.00
C143   C     0.69026   0.68685   0.41707   0.00000  Uiso   1.00
C144   C     0.88724   0.63162   0.09446   0.00000  Uiso   1.00
C145   C     0.94632   0.60229   0.08338   0.00000  Uiso   1.00
C146   C     0.90537   0.57376   0.04659   0.00000  Uiso   1.00
C147   C     0.87366   0.52078   0.98996   0.00000  Uiso   1.00
C148   C     0.89837   0.69556   0.07901   0.00000  Uiso   1.00
C149   C     0.96682   0.71997   0.05492   0.00000  Uiso   1.00
C150   C     0.93524   0.74527   0.00510   0.00000  Uiso   1.00
C151   C     0.92082   0.79156   0.92448   0.00000  Uiso   1.00
C152   C     0.73935   0.66717   0.08770   0.00000  Uiso   1.00
C153   C     0.74738   0.67166   0.17050   0.00000  Uiso   1.00
C154   C     0.66992   0.67614   0.21850   0.00000  Uiso   1.00
C155   C     0.69247   0.67978   0.29227   0.00000  Uiso   1.00
C156   C     0.79068   0.63244   0.06967   0.00000  Uiso   1.00
C157   C     0.74963   0.60395   0.03288   0.00000  Uiso   1.00
C158   C     0.80864   0.57458   0.02175   0.00000  Uiso   1.00
C159   C     0.80181   0.69638   0.05422   0.00000  Uiso   1.00
C160   C     0.77013   0.72164   0.00442   0.00000  Uiso   1.00
C161   C     0.83851   0.74609   0.98026   0.00000  Uiso   1.00
H162   H     0.99230   0.66503   0.15265   0.00000  Uiso   1.00
H163   H     0.94135   0.67383   0.28817   0.00000  Uiso   1.00
H164   H     0.02105   0.60166   0.10256   0.00000  Uiso   1.00
H165   H     0.04153   0.71933   0.07411   0.00000  Uiso   1.00
H166   H     0.84227   0.68395   0.42748   0.00000  Uiso   1.00
H167   H     0.01033   0.53177   0.03611   0.00000  Uiso   1.00
H168   H     0.05354   0.77990   0.97611   0.00000  Uiso   1.00
H169   H     0.66417   0.66781   0.06840   0.00000  Uiso   1.00
H170   H     0.59520   0.67677   0.19930   0.00000  Uiso   1.00
H171   H     0.67491   0.60460   0.01370   0.00000  Uiso   1.00
H172   H     0.69540   0.72227   0.98525   0.00000  Uiso   1.00
H173   H     0.56133   0.68633   0.35536   0.00000  Uiso   1.00
H174   H     0.72939   0.53416   0.96399   0.00000  Uiso   1.00
H175   H     0.77260   0.78228   0.90399   0.00000  Uiso   1.00
O176   O     0.66235   0.69097   0.47905   0.00000  Uiso   1.00
O177   O     0.88285   0.49133   0.96558   0.00000  Uiso   1.00
O178   O     0.93953   0.81687   0.88686   0.00000  Uiso   1.00
N179   N     0.78561   0.68329   0.39254   0.00000  Uiso   1.00
N180   N     0.94274   0.54101   0.02665   0.00000  Uiso   1.00
N181   N     0.98314   0.77298   0.97053   0.00000  Uiso   1.00
N182   N     0.63444   0.68457   0.35373   0.00000  Uiso   1.00
N183   N     0.79157   0.54229   0.98784   0.00000  Uiso   1.00
N184   N     0.83197   0.77427   0.93172   0.00000  Uiso   1.00
C185   C     0.08288   0.16566   0.63335   0.00000  Uiso   1.00
C186   C     0.15606   0.17084   0.69530   0.00000  Uiso   1.00
C187   C     0.13339   0.17447   0.76900   0.00000  Uiso   1.00
C188   C     0.21079   0.17896   0.81710   0.00000  Uiso   1.00
C189   C     0.30974   0.18685   0.91707   0.00000  Uiso   1.00
C190   C     0.11276   0.13162   0.59446   0.00000  Uiso   1.00
C191   C     0.05368   0.10229   0.58338   0.00000  Uiso   1.00
C192   C     0.09463   0.07376   0.54659   0.00000  Uiso   1.00
C193   C     0.12634   0.02078   0.48996   0.00000  Uiso   1.00
C194   C     0.10163   0.19556   0.57901   0.00000  Uiso   1.00
C195   C     0.03318   0.21997   0.55492   0.00000  Uiso   1.00
C196   C     0.06476   0.24527   0.50510   0.00000  Uiso   1.00
C197   C     0.07918   0.29156   0.42448   0.00000  Uiso   1.00
C198   C     0.26065   0.16717   0.58770   0.00000  Uiso   1.00
C199   C     0.25262   0.17166   0.67050   0.00000  Uiso   1.00
C200   C     0.33008   0.17614   0.71850   0.00000  Uiso   1.00
C201   C     0.30753   0.17978   0.79227   0.00000  Uiso   1.00
C202   C     0.20932   0.13244   0.56967   0.00000  Uiso   1.00
C203   C     0.25037   0.10395   0.53288   0.00000  Uiso   1.00
C204   C     0.19136   0.07458   0.52175   0.00000  Uiso   1.00
C205   C     0.19819   0.19638   0.55422   0.00000  Uiso   1.00
C206   C     0.22987   0.22164   0.50442   0.00000  Uiso   1.00
C207   C     0.16149   0.24609   0.48026   0.00000  Uiso   1.00
H208   H     0.00770   0.16503   0.65265   0.00000  Uiso   1.00
H209   H     0.05865   0.17383   0.78817   0.00000  Uiso   1.00
H210   H     0.97895   0.10166   0.60256   0.00000  Uiso   1.00
H211   H     0.95847   0.21933   0.57411   0.00000  Uiso   1.00
H212   H     0.15773   0.18395   0.92748   0.00000  Uiso   1.00
H213   H     0.98967   0.03177   0.53611   0.00000  Uiso   1.00
H214   H     0.94646   0.27990   0.47611   0.00000  Uiso   1.00
H215   H     0.33583   0.16781   0.56840   0.00000  Uiso   1.00
H216   H     0.40480   0.17677   0.69930   0.00000  Uiso   1.00
H217   H     0.32509   0.10460   0.51370   0.00000  Uiso   1.00
H218   H     0.30460   0.22227   0.48525   0.00000  Uiso   1.00
H219   H     0.43867   0.18633   0.85536   0.00000  Uiso   1.00
H220   H     0.27061   0.03416   0.46399   0.00000  Uiso   1.00
H221   H     0.22740   0.28228   0.40399   0.00000  Uiso   1.00
O222   O     0.33765   0.19097   0.97905   0.00000  Uiso   1.00
O223   O     0.11715   0.99133   0.46558   0.00000  Uiso   1.00
O224   O     0.06047   0.31687   0.38686   0.00000  Uiso   1.00
N225   N     0.21439   0.18329   0.89254   0.00000  Uiso   1.00
N226   N     0.05726   0.04101   0.52665   0.00000  Uiso   1.00
N227   N     0.01686   0.27298   0.47053   0.00000  Uiso   1.00
N228   N     0.36556   0.18457   0.85373   0.00000  Uiso   1.00
N229   N     0.20843   0.04229   0.48784   0.00000  Uiso   1.00
N230   N     0.16803   0.27427   0.43172   0.00000  Uiso   1.00
C231   C     0.41712   0.83434   0.63335   0.00000  Uiso   1.00
C232   C     0.34394   0.82916   0.69530   0.00000  Uiso   1.00
C233   C     0.36661   0.82553   0.76900   0.00000  Uiso   1.00
C234   C     0.28921   0.82104   0.81710   0.00000  Uiso   1.00
C235   C     0.19026   0.81315   0.91707   0.00000  Uiso   1.00
C236   C     0.38724   0.86838   0.59446   0.00000  Uiso   1.00
C237   C     0.44632   0.89771   0.58338   0.00000  Uiso   1.00
C238   C     0.40537   0.92624   0.54659   0.00000  Uiso   1.00
C239   C     0.37366   0.97922   0.48996   0.00000  Uiso   1.00
C240   C     0.39837   0.80444   0.57901   0.00000  Uiso   1.00
C241   C     0.46682   0.78003   0.55492   0.00000  Uiso   1.00
C242   C     0.43524   0.75473   0.50510   0.00000  Uiso   1.00
C243   C     0.42082   0.70844   0.42448   0.00000  Uiso   1.00
C244   C     0.23935   0.83283   0.58770   0.00000  Uiso   1.00
C245   C     0.24738   0.82834   0.67050   0.00000  Uiso   1.00
C246   C     0.16992   0.82386   0.71850   0.00000  Uiso   1.00
C247   C     0.19247   0.82022   0.79227   0.00000  Uiso   1.00
C248   C     0.29068   0.86756   0.56967   0.00000  Uiso   1.00
C249   C     0.24963   0.89605   0.53288   0.00000  Uiso   1.00
C250   C     0.30864   0.92542   0.52175   0.00000  Uiso   1.00
C251   C     0.30181   0.80362   0.55422   0.00000  Uiso   1.00
C252   C     0.27013   0.77836   0.50442   0.00000  Uiso   1.00
C253   C     0.33851   0.75391   0.48026   0.00000  Uiso   1.00
H254   H     0.49230   0.83497   0.65265   0.00000  Uiso   1.00
H255   H     0.44135   0.82617   0.78817   0.00000  Uiso   1.00
H256   H     0.52105   0.89834   0.60256   0.00000  Uiso   1.00
H257   H     0.54153   0.78067   0.57411   0.00000  Uiso   1.00
H258   H     0.34227   0.81605   0.92748   0.00000  Uiso   1.00
H259   H     0.51033   0.96823   0.53611   0.00000  Uiso   1.00
H260   H     0.55354   0.72010   0.47611   0.00000  Uiso   1.00
H261   H     0.16417   0.83219   0.56840   0.00000  Uiso   1.00
H262   H     0.09520   0.82323   0.69930   0.00000  Uiso   1.00
H263   H     0.17491   0.89540   0.51370   0.00000  Uiso   1.00
H264   H     0.19540   0.77773   0.48525   0.00000  Uiso   1.00
H265   H     0.06133   0.81367   0.85536   0.00000  Uiso   1.00
H266   H     0.22939   0.96584   0.46399   0.00000  Uiso   1.00
H267   H     0.27260   0.71772   0.40399   0.00000  Uiso   1.00
O268   O     0.16235   0.80903   0.97905   0.00000  Uiso   1.00
O269   O     0.38285   0.00867   0.46558   0.00000  Uiso   1.00
O270   O     0.43953   0.68313   0.38686   0.00000  Uiso   1.00
N271   N     0.28561   0.81671   0.89254   0.00000  Uiso   1.00
N272   N     0.44274   0.95899   0.52665   0.00000  Uiso   1.00
N273   N     0.48314   0.72702   0.47053   0.00000  Uiso   1.00
N274   N     0.13444   0.81543   0.85373   0.00000  Uiso   1.00
N275   N     0.29157   0.95771   0.48784   0.00000  Uiso   1.00
N276   N     0.33197   0.72573   0.43172   0.00000  Uiso   1.00
C277   C     0.41712   0.66566   0.86665   0.00000  Uiso   1.00
C278   C     0.34394   0.67084   0.80470   0.00000  Uiso   1.00
C279   C     0.36661   0.67447   0.73100   0.00000  Uiso   1.00
C280   C     0.28921   0.67896   0.68290   0.00000  Uiso   1.00
C281   C     0.19026   0.68685   0.58293   0.00000  Uiso   1.00
C282   C     0.38724   0.63162   0.90554   0.00000  Uiso   1.00
C283   C     0.44632   0.60229   0.91662   0.00000  Uiso   1.00
C284   C     0.40537   0.57376   0.95341   0.00000  Uiso   1.00
C285   C     0.37366   0.52078   0.01004   0.00000  Uiso   1.00
C286   C     0.39837   0.69556   0.92099   0.00000  Uiso   1.00
C287   C     0.46682   0.71997   0.94508   0.00000  Uiso   1.00
C288   C     0.43524   0.74527   0.99490   0.00000  Uiso   1.00
C289   C     0.42082   0.79156   0.07552   0.00000  Uiso   1.00
C290   C     0.23935   0.66717   0.91230   0.00000  Uiso   1.00
C291   C     0.24738   0.67166   0.82950   0.00000  Uiso   1.00
C292   C     0.16992   0.67614   0.78150   0.00000  Uiso   1.00
C293   C     0.19247   0.67978   0.70773   0.00000  Uiso   1.00
C294   C     0.29068   0.63244   0.93033   0.00000  Uiso   1.00
C295   C     0.24963   0.60395   0.96712   0.00000  Uiso   1.00
C296   C     0.30864   0.57458   0.97825   0.00000  Uiso   1.00
C297   C     0.30181   0.69638   0.94578   0.00000  Uiso   1.00
C298   C     0.27013   0.72164   0.99558   0.00000  Uiso   1.00
C299   C     0.33851   0.74609   0.01974   0.00000  Uiso   1.00
H300   H     0.49230   0.66503   0.84735   0.00000  Uiso   1.00
H301   H     0.44135   0.67383   0.71183   0.00000  Uiso   1.00
H302   H     0.52105   0.60166   0.89744   0.00000  Uiso   1.00
H303   H     0.54153   0.71933   0.92589   0.00000  Uiso   1.00
H304   H     0.34227   0.68395   0.57252   0.00000  Uiso   1.00
H305   H     0.51033   0.53177   0.96389   0.00000  Uiso   1.00
H306   H     0.55354   0.77990   0.02389   0.00000  Uiso   1.00
H307   H     0.16417   0.66781   0.93160   0.00000  Uiso   1.00
H308   H     0.09520   0.67677   0.80070   0.00000  Uiso   1.00
H309   H     0.17491   0.60460   0.98630   0.00000  Uiso   1.00
H310   H     0.19540   0.72227   0.01475   0.00000  Uiso   1.00
H311   H     0.06133   0.68633   0.64464   0.00000  Uiso   1.00
H312   H     0.22939   0.53416   0.03601   0.00000  Uiso   1.00
H313   H     0.27260   0.78228   0.09601   0.00000  Uiso   1.00
O314   O     0.16235   0.69097   0.52095   0.00000  Uiso   1.00
O315   O     0.38285   0.49133   0.03442   0.00000  Uiso   1.00
O316   O     0.43953   0.81687   0.11314   0.00000  Uiso   1.00
N317   N     0.28561   0.68329   0.60746   0.00000  Uiso   1.00
N318   N     0.44274   0.54101   0.97335   0.00000  Uiso   1.00
N319   N     0.48314   0.77298   0.02947   0.00000  Uiso   1.00
N320   N     0.13444   0.68457   0.64627   0.00000  Uiso   1.00
N321   N     0.29157   0.54229   0.01216   0.00000  Uiso   1.00
N322   N     0.33197   0.77427   0.06828   0.00000  Uiso   1.00
C323   C     0.08288   0.33434   0.86665   0.00000  Uiso   1.00
C324   C     0.15606   0.32916   0.80470   0.00000  Uiso   1.00
C325   C     0.13339   0.32553   0.73100   0.00000  Uiso   1.00
C326   C     0.21079   0.32104   0.68290   0.00000  Uiso   1.00
C327   C     0.30974   0.31315   0.58293   0.00000  Uiso   1.00
C328   C     0.11276   0.36838   0.90554   0.00000  Uiso   1.00
C329   C     0.05368   0.39771   0.91662   0.00000  Uiso   1.00
C330   C     0.09463   0.42624   0.95341   0.00000  Uiso   1.00
C331   C     0.12634   0.47922   0.01004   0.00000  Uiso   1.00
C332   C     0.10163   0.30444   0.92099   0.00000  Uiso   1.00
C333   C     0.03318   0.28003   0.94508   0.00000  Uiso   1.00
C334   C     0.06476   0.25473   0.99490   0.00000  Uiso   1.00
C335   C     0.07918   0.20844   0.07552   0.00000  Uiso   1.00
C336   C     0.26065   0.33283   0.91230   0.00000  Uiso   1.00
C337   C     0.25262   0.32834   0.82950   0.00000  Uiso   1.00
C338   C     0.33008   0.32386   0.78150   0.00000  Uiso   1.00
C339   C     0.30753   0.32022   0.70773   0.00000  Uiso   1.00
C340   C     0.20932   0.36756   0.93033   0.00000  Uiso   1.00
C341   C     0.25037   0.39605   0.96712   0.00000  Uiso   1.00
C342   C     0.19136   0.42542   0.97825   0.00000  Uiso   1.00
C343   C     0.19819   0.30362   0.94578   0.00000  Uiso   1.00
C344   C     0.22987   0.27836   0.99558   0.00000  Uiso   1.00
C345   C     0.16149   0.25391   0.01974   0.00000  Uiso   1.00
H346   H     0.00770   0.33497   0.84735   0.00000  Uiso   1.00
H347   H     0.05865   0.32617   0.71183   0.00000  Uiso   1.00
H348   H     0.97895   0.39834   0.89744   0.00000  Uiso   1.00
H349   H     0.95847   0.28067   0.92589   0.00000  Uiso   1.00
H350   H     0.15773   0.31605   0.57252   0.00000  Uiso   1.00
H351   H     0.98967   0.46823   0.96389   0.00000  Uiso   1.00
H352   H     0.94646   0.22010   0.02389   0.00000  Uiso   1.00
H353   H     0.33583   0.33219   0.93160   0.00000  Uiso   1.00
H354   H     0.40480   0.32323   0.80070   0.00000  Uiso   1.00
H355   H     0.32509   0.39540   0.98630   0.00000  Uiso   1.00
H356   H     0.30460   0.27773   0.01475   0.00000  Uiso   1.00
H357   H     0.43867   0.31367   0.64464   0.00000  Uiso   1.00
H358   H     0.27061   0.46584   0.03601   0.00000  Uiso   1.00
H359   H     0.22740   0.21772   0.09601   0.00000  Uiso   1.00
O360   O     0.33765   0.30903   0.52095   0.00000  Uiso   1.00
O361   O     0.11715   0.50867   0.03442   0.00000  Uiso   1.00
O362   O     0.06047   0.18313   0.11314   0.00000  Uiso   1.00
N363   N     0.21439   0.31671   0.60746   0.00000  Uiso   1.00
N364   N     0.05726   0.45899   0.97335   0.00000  Uiso   1.00
N365   N     0.01686   0.22702   0.02947   0.00000  Uiso   1.00
N366   N     0.36556   0.31543   0.64627   0.00000  Uiso   1.00
N367   N     0.20843   0.45771   0.01216   0.00000  Uiso   1.00
N368   N     0.16803   0.22573   0.06828   0.00000  Uiso   1.00
