data_job_06277
_audit_creation_date              2018-12-19
_audit_creation_method            'Materials Studio'
_symmetry_space_group_name_H-M    'P1'
_symmetry_Int_Tables_number       1
_symmetry_cell_setting            triclinic
loop_
_symmetry_equiv_pos_as_xyz
  x,y,z
_cell_length_a                    15.4342
_cell_length_b                    15.4647
_cell_length_c                    15.4922
_cell_angle_alpha                 98.8598
_cell_angle_beta                  98.8685
_cell_angle_gamma                 98.8687
loop_
_atom_site_label
_atom_site_type_symbol
_atom_site_fract_x
_atom_site_fract_y
_atom_site_fract_z
_atom_site_U_iso_or_equiv
_atom_site_adp_type
_atom_site_occupancy
C1     C     0.55033   0.90430   0.30146   0.00000  Uiso   1.00
C2     C     0.51848   0.80377   0.28380   0.00000  Uiso   1.00
C3     C     0.54842   0.74530   0.33607   0.00000  Uiso   1.00
C4     C     0.51099   0.65578   0.30860   0.00000  Uiso   1.00
C5     C     0.47146   0.50422   0.29287   0.00000  Uiso   1.00
C6     C     0.58342   0.92597   0.21808   0.00000  Uiso   1.00
C7     C     0.66795   0.97025   0.21511   0.00000  Uiso   1.00
C8     C     0.68518   0.98361   0.13233   0.00000  Uiso   1.00
C9     C     0.74644   0.02183   0.01458   0.00000  Uiso   1.00
C10    C     0.46706   0.94546   0.30537   0.00000  Uiso   1.00
C11    C     0.45376   0.00616   0.37578   0.00000  Uiso   1.00
C12    C     0.37302   0.03595   0.36648   0.00000  Uiso   1.00
C13    C     0.25362   0.10443   0.38426   0.00000  Uiso   1.00
C14    C     0.43061   0.84929   0.15974   0.00000  Uiso   1.00
C15    C     0.45346   0.77389   0.20682   0.00000  Uiso   1.00
C16    C     0.41596   0.68443   0.17927   0.00000  Uiso   1.00
C17    C     0.44584   0.62584   0.23149   0.00000  Uiso   1.00
C18    C     0.51840   0.89609   0.14111   0.00000  Uiso   1.00
C19    C     0.53549   0.90939   0.05831   0.00000  Uiso   1.00
C20    C     0.62003   0.95368   0.05521   0.00000  Uiso   1.00
C21    C     0.40203   0.91558   0.22839   0.00000  Uiso   1.00
C22    C     0.32130   0.94529   0.21898   0.00000  Uiso   1.00
C23    C     0.30788   0.00602   0.28936   0.00000  Uiso   1.00
H24    H     0.60096   0.92757   0.36138   0.00000  Uiso   1.00
H25    H     0.59876   0.76845   0.39563   0.00000  Uiso   1.00
H26    H     0.71826   0.99338   0.27469   0.00000  Uiso   1.00
H27    H     0.50410   0.02927   0.43533   0.00000  Uiso   1.00
H28    H     0.56765   0.57885   0.39963   0.00000  Uiso   1.00
H29    H     0.81962   0.05315   0.14463   0.00000  Uiso   1.00
H30    H     0.36803   0.12885   0.48338   0.00000  Uiso   1.00
H31    H     0.37998   0.82603   0.09981   0.00000  Uiso   1.00
H32    H     0.36564   0.66133   0.11970   0.00000  Uiso   1.00
H33    H     0.48515   0.88626   0.99876   0.00000  Uiso   1.00
H34    H     0.27099   0.92215   0.15940   0.00000  Uiso   1.00
H35    H     0.37845   0.49191   0.17567   0.00000  Uiso   1.00
H36    H     0.63043   0.96622   0.92067   0.00000  Uiso   1.00
H37    H     0.17883   0.04191   0.25942   0.00000  Uiso   1.00
O38    O     0.46763   0.42887   0.30544   0.00000  Uiso   1.00
O39    O     0.79820   0.05115   0.97089   0.00000  Uiso   1.00
O40    O     0.20572   0.15045   0.41533   0.00000  Uiso   1.00
N41    N     0.52508   0.58100   0.34420   0.00000  Uiso   1.00
N42    N     0.76066   0.02443   0.10579   0.00000  Uiso   1.00
N43    N     0.33847   0.09521   0.42248   0.00000  Uiso   1.00
N44    N     0.42327   0.53421   0.22369   0.00000  Uiso   1.00
N45    N     0.65886   0.97765   0.98528   0.00000  Uiso   1.00
N46    N     0.23666   0.04843   0.30198   0.00000  Uiso   1.00
C47    C     0.30156   0.55011   0.90416   0.00000  Uiso   1.00
C48    C     0.28386   0.51833   0.80381   0.00000  Uiso   1.00
C49    C     0.33634   0.54823   0.74547   0.00000  Uiso   1.00
C50    C     0.30880   0.51087   0.65610   0.00000  Uiso   1.00
C51    C     0.29304   0.47143   0.50482   0.00000  Uiso   1.00
C52    C     0.21785   0.58309   0.92576   0.00000  Uiso   1.00
C53    C     0.21483   0.66745   0.96995   0.00000  Uiso   1.00
C54    C     0.13172   0.68461   0.98324   0.00000  Uiso   1.00
C55    C     0.01349   0.74570   0.02134   0.00000  Uiso   1.00
C56    C     0.30551   0.46700   0.94527   0.00000  Uiso   1.00
C57    C     0.37618   0.45374   0.00588   0.00000  Uiso   1.00
C58    C     0.36686   0.37316   0.03562   0.00000  Uiso   1.00
C59    C     0.38473   0.25400   0.10401   0.00000  Uiso   1.00
C60    C     0.15934   0.43058   0.84921   0.00000  Uiso   1.00
C61    C     0.20661   0.45341   0.77397   0.00000  Uiso   1.00
C62    C     0.17899   0.41599   0.68467   0.00000  Uiso   1.00
C63    C     0.23141   0.44583   0.62620   0.00000  Uiso   1.00
C64    C     0.14060   0.51818   0.89591   0.00000  Uiso   1.00
C65    C     0.05748   0.53521   0.90915   0.00000  Uiso   1.00
C66    C     0.05433   0.61957   0.95334   0.00000  Uiso   1.00
C67    C     0.22826   0.40208   0.91542   0.00000  Uiso   1.00
C68    C     0.21883   0.32151   0.94508   0.00000  Uiso   1.00
C69    C     0.28947   0.30813   0.00572   0.00000  Uiso   1.00
H70    H     0.36170   0.60065   0.92740   0.00000  Uiso   1.00
H71    H     0.39611   0.59848   0.76859   0.00000  Uiso   1.00
H72    H     0.27462   0.71767   0.99304   0.00000  Uiso   1.00
H73    H     0.43595   0.50400   0.02897   0.00000  Uiso   1.00
H74    H     0.40018   0.56746   0.57935   0.00000  Uiso   1.00
H75    H     0.14402   0.81878   0.05265   0.00000  Uiso   1.00
H76    H     0.48420   0.36821   0.12840   0.00000  Uiso   1.00
H77    H     0.09919   0.38004   0.82598   0.00000  Uiso   1.00
H78    H     0.11920   0.36576   0.66159   0.00000  Uiso   1.00
H79    H     0.99772   0.48496   0.88605   0.00000  Uiso   1.00
H80    H     0.15904   0.27128   0.92197   0.00000  Uiso   1.00
H81    H     0.17543   0.37858   0.49250   0.00000  Uiso   1.00
H82    H     0.91927   0.62990   0.96581   0.00000  Uiso   1.00
H83    H     0.25945   0.17933   0.04156   0.00000  Uiso   1.00
O84    O     0.30568   0.46762   0.42962   0.00000  Uiso   1.00
O85    O     0.96962   0.79734   0.05058   0.00000  Uiso   1.00
O86    O     0.41593   0.20620   0.14996   0.00000  Uiso   1.00
N87    N     0.34455   0.52495   0.58147   0.00000  Uiso   1.00
N88    N     0.10505   0.75993   0.02397   0.00000  Uiso   1.00
N89    N     0.42308   0.33869   0.09481   0.00000  Uiso   1.00
N90    N     0.22361   0.42331   0.53474   0.00000  Uiso   1.00
N91    N     0.98411   0.65829   0.97724   0.00000  Uiso   1.00
N92    N     0.30215   0.23706   0.04807   0.00000  Uiso   1.00
C93    C     0.90449   0.30150   0.54987   0.00000  Uiso   1.00
C94    C     0.80376   0.28381   0.51811   0.00000  Uiso   1.00
C95    C     0.74517   0.33615   0.54793   0.00000  Uiso   1.00
C96    C     0.65547   0.30865   0.51061   0.00000  Uiso   1.00
C97    C     0.50362   0.29287   0.47119   0.00000  Uiso   1.00
C98    C     0.92618   0.21797   0.58282   0.00000  Uiso   1.00
C99    C     0.97053   0.21496   0.66704   0.00000  Uiso   1.00
C100   C     0.98390   0.13202   0.68418   0.00000  Uiso   1.00
C101   C     0.02216   0.01404   0.74520   0.00000  Uiso   1.00
C102   C     0.94577   0.30546   0.46693   0.00000  Uiso   1.00
C103   C     0.00660   0.37601   0.45372   0.00000  Uiso   1.00
C104   C     0.03647   0.36673   0.37330   0.00000  Uiso   1.00
C105   C     0.10514   0.38460   0.25438   0.00000  Uiso   1.00
C106   C     0.84939   0.15957   0.43057   0.00000  Uiso   1.00
C107   C     0.77384   0.20671   0.45331   0.00000  Uiso   1.00
C108   C     0.68421   0.17912   0.41593   0.00000  Uiso   1.00
C109   C     0.62549   0.23141   0.44569   0.00000  Uiso   1.00
C110   C     0.89626   0.14087   0.51802   0.00000  Uiso   1.00
C111   C     0.90957   0.05792   0.53504   0.00000  Uiso   1.00
C112   C     0.95392   0.05479   0.61927   0.00000  Uiso   1.00
C113   C     0.91584   0.22837   0.40213   0.00000  Uiso   1.00
C114   C     0.94563   0.21897   0.32172   0.00000  Uiso   1.00
C115   C     0.00649   0.28950   0.30838   0.00000  Uiso   1.00
H116   H     0.92779   0.36152   0.60033   0.00000  Uiso   1.00
H117   H     0.76836   0.39581   0.59809   0.00000  Uiso   1.00
H118   H     0.99369   0.27463   0.71717   0.00000  Uiso   1.00
H119   H     0.02974   0.43566   0.50388   0.00000  Uiso   1.00
H120   H     0.57839   0.39981   0.56705   0.00000  Uiso   1.00
H121   H     0.05354   0.14430   0.81814   0.00000  Uiso   1.00
H122   H     0.12958   0.48386   0.36837   0.00000  Uiso   1.00
H123   H     0.82609   0.09954   0.38012   0.00000  Uiso   1.00
H124   H     0.66107   0.11945   0.36579   0.00000  Uiso   1.00
H125   H     0.88640   0.99827   0.48488   0.00000  Uiso   1.00
H126   H     0.92246   0.15931   0.27159   0.00000  Uiso   1.00
H127   H     0.49131   0.17550   0.37851   0.00000  Uiso   1.00
H128   H     0.96647   0.92000   0.62960   0.00000  Uiso   1.00
H129   H     0.04250   0.25956   0.17983   0.00000  Uiso   1.00
O130   O     0.42812   0.30546   0.46735   0.00000  Uiso   1.00
O131   O     0.05152   0.97026   0.79676   0.00000  Uiso   1.00
O132   O     0.15127   0.41576   0.20668   0.00000  Uiso   1.00
N133   N     0.58054   0.34429   0.52463   0.00000  Uiso   1.00
N134   N     0.02477   0.10541   0.75939   0.00000  Uiso   1.00
N135   N     0.09588   0.42286   0.33890   0.00000  Uiso   1.00
N136   N     0.53369   0.22360   0.42318   0.00000  Uiso   1.00
N137   N     0.97791   0.98471   0.65793   0.00000  Uiso   1.00
N138   N     0.04902   0.30217   0.23745   0.00000  Uiso   1.00
C139   C     0.44966   0.09570   0.69854   0.00000  Uiso   1.00
C140   C     0.48151   0.19623   0.71620   0.00000  Uiso   1.00
C141   C     0.45158   0.25470   0.66393   0.00000  Uiso   1.00
C142   C     0.48901   0.34422   0.69139   0.00000  Uiso   1.00
C143   C     0.52854   0.49578   0.70713   0.00000  Uiso   1.00
C144   C     0.41658   0.07403   0.78192   0.00000  Uiso   1.00
C145   C     0.33205   0.02975   0.78489   0.00000  Uiso   1.00
C146   C     0.31482   0.01639   0.86767   0.00000  Uiso   1.00
C147   C     0.25356   0.97817   0.98542   0.00000  Uiso   1.00
C148   C     0.53294   0.05454   0.69463   0.00000  Uiso   1.00
C149   C     0.54624   0.99384   0.62422   0.00000  Uiso   1.00
C150   C     0.62698   0.96405   0.63352   0.00000  Uiso   1.00
C151   C     0.74638   0.89557   0.61574   0.00000  Uiso   1.00
C152   C     0.56939   0.15071   0.84026   0.00000  Uiso   1.00
C153   C     0.54654   0.22611   0.79318   0.00000  Uiso   1.00
C154   C     0.58404   0.31557   0.82073   0.00000  Uiso   1.00
C155   C     0.55416   0.37416   0.76851   0.00000  Uiso   1.00
C156   C     0.48160   0.10391   0.85889   0.00000  Uiso   1.00
C157   C     0.46450   0.09061   0.94169   0.00000  Uiso   1.00
C158   C     0.37997   0.04632   0.94479   0.00000  Uiso   1.00
C159   C     0.59797   0.08442   0.77160   0.00000  Uiso   1.00
C160   C     0.67870   0.05471   0.78102   0.00000  Uiso   1.00
C161   C     0.69212   0.99398   0.71064   0.00000  Uiso   1.00
H162   H     0.39904   0.07243   0.63862   0.00000  Uiso   1.00
H163   H     0.40124   0.23155   0.60437   0.00000  Uiso   1.00
H164   H     0.28174   0.00662   0.72531   0.00000  Uiso   1.00
H165   H     0.49590   0.97073   0.56467   0.00000  Uiso   1.00
H166   H     0.43235   0.42115   0.60037   0.00000  Uiso   1.00
H167   H     0.18038   0.94685   0.85537   0.00000  Uiso   1.00
H168   H     0.63197   0.87115   0.51662   0.00000  Uiso   1.00
H169   H     0.62002   0.17397   0.90019   0.00000  Uiso   1.00
H170   H     0.63436   0.33867   0.88030   0.00000  Uiso   1.00
H171   H     0.51485   0.11374   0.00124   0.00000  Uiso   1.00
H172   H     0.72900   0.07785   0.84059   0.00000  Uiso   1.00
H173   H     0.62155   0.50809   0.82433   0.00000  Uiso   1.00
H174   H     0.36957   0.03378   0.07933   0.00000  Uiso   1.00
H175   H     0.82117   0.95809   0.74057   0.00000  Uiso   1.00
O176   O     0.53237   0.57113   0.69456   0.00000  Uiso   1.00
O177   O     0.20180   0.94885   0.02911   0.00000  Uiso   1.00
O178   O     0.79428   0.84955   0.58467   0.00000  Uiso   1.00
N179   N     0.47492   0.41900   0.65580   0.00000  Uiso   1.00
N180   N     0.23934   0.97557   0.89421   0.00000  Uiso   1.00
N181   N     0.66153   0.90479   0.57752   0.00000  Uiso   1.00
N182   N     0.57673   0.46579   0.77631   0.00000  Uiso   1.00
N183   N     0.34114   0.02235   0.01472   0.00000  Uiso   1.00
N184   N     0.76334   0.95157   0.69802   0.00000  Uiso   1.00
C185   C     0.69844   0.44989   0.09584   0.00000  Uiso   1.00
C186   C     0.71614   0.48167   0.19619   0.00000  Uiso   1.00
C187   C     0.66366   0.45177   0.25453   0.00000  Uiso   1.00
C188   C     0.69120   0.48913   0.34390   0.00000  Uiso   1.00
C189   C     0.70696   0.52857   0.49518   0.00000  Uiso   1.00
C190   C     0.78215   0.41690   0.07424   0.00000  Uiso   1.00
C191   C     0.78517   0.33255   0.03005   0.00000  Uiso   1.00
C192   C     0.86828   0.31539   0.01676   0.00000  Uiso   1.00
C193   C     0.98651   0.25430   0.97866   0.00000  Uiso   1.00
C194   C     0.69449   0.53300   0.05473   0.00000  Uiso   1.00
C195   C     0.62382   0.54626   0.99412   0.00000  Uiso   1.00
C196   C     0.63314   0.62684   0.96438   0.00000  Uiso   1.00
C197   C     0.61527   0.74600   0.89599   0.00000  Uiso   1.00
C198   C     0.84066   0.56942   0.15079   0.00000  Uiso   1.00
C199   C     0.79339   0.54659   0.22603   0.00000  Uiso   1.00
C200   C     0.82101   0.58401   0.31533   0.00000  Uiso   1.00
C201   C     0.76859   0.55417   0.37380   0.00000  Uiso   1.00
C202   C     0.85940   0.48182   0.10409   0.00000  Uiso   1.00
C203   C     0.94252   0.46479   0.09085   0.00000  Uiso   1.00
C204   C     0.94567   0.38043   0.04666   0.00000  Uiso   1.00
C205   C     0.77174   0.59792   0.08458   0.00000  Uiso   1.00
C206   C     0.78117   0.67849   0.05492   0.00000  Uiso   1.00
C207   C     0.71053   0.69187   0.99428   0.00000  Uiso   1.00
H208   H     0.63830   0.39935   0.07260   0.00000  Uiso   1.00
H209   H     0.60389   0.40152   0.23141   0.00000  Uiso   1.00
H210   H     0.72538   0.28233   0.00696   0.00000  Uiso   1.00
H211   H     0.56405   0.49600   0.97103   0.00000  Uiso   1.00
H212   H     0.59982   0.43254   0.42065   0.00000  Uiso   1.00
H213   H     0.85598   0.18122   0.94735   0.00000  Uiso   1.00
H214   H     0.51580   0.63179   0.87160   0.00000  Uiso   1.00
H215   H     0.90080   0.61996   0.17402   0.00000  Uiso   1.00
H216   H     0.88080   0.63424   0.33841   0.00000  Uiso   1.00
H217   H     0.00228   0.51504   0.11395   0.00000  Uiso   1.00
H218   H     0.84096   0.72872   0.07803   0.00000  Uiso   1.00
H219   H     0.82457   0.62142   0.50750   0.00000  Uiso   1.00
H220   H     0.08073   0.37010   0.03419   0.00000  Uiso   1.00
H221   H     0.74055   0.82067   0.95844   0.00000  Uiso   1.00
O222   O     0.69432   0.53238   0.57038   0.00000  Uiso   1.00
O223   O     0.03038   0.20266   0.94942   0.00000  Uiso   1.00
O224   O     0.58407   0.79380   0.85004   0.00000  Uiso   1.00
N225   N     0.65545   0.47505   0.41853   0.00000  Uiso   1.00
N226   N     0.89495   0.24007   0.97603   0.00000  Uiso   1.00
N227   N     0.57692   0.66131   0.90519   0.00000  Uiso   1.00
N228   N     0.77639   0.57669   0.46526   0.00000  Uiso   1.00
N229   N     0.01589   0.34171   0.02276   0.00000  Uiso   1.00
N230   N     0.69785   0.76294   0.95192   0.00000  Uiso   1.00
C231   C     0.09551   0.69850   0.45013   0.00000  Uiso   1.00
C232   C     0.19624   0.71619   0.48189   0.00000  Uiso   1.00
C233   C     0.25483   0.66385   0.45207   0.00000  Uiso   1.00
C234   C     0.34453   0.69135   0.48939   0.00000  Uiso   1.00
C235   C     0.49638   0.70713   0.52881   0.00000  Uiso   1.00
C236   C     0.07382   0.78203   0.41718   0.00000  Uiso   1.00
C237   C     0.02947   0.78504   0.33296   0.00000  Uiso   1.00
C238   C     0.01610   0.86798   0.31582   0.00000  Uiso   1.00
C239   C     0.97784   0.98596   0.25480   0.00000  Uiso   1.00
C240   C     0.05423   0.69454   0.53307   0.00000  Uiso   1.00
C241   C     0.99340   0.62399   0.54628   0.00000  Uiso   1.00
C242   C     0.96352   0.63327   0.62670   0.00000  Uiso   1.00
C243   C     0.89486   0.61540   0.74562   0.00000  Uiso   1.00
C244   C     0.15061   0.84043   0.56943   0.00000  Uiso   1.00
C245   C     0.22616   0.79329   0.54669   0.00000  Uiso   1.00
C246   C     0.31579   0.82088   0.58407   0.00000  Uiso   1.00
C247   C     0.37451   0.76859   0.55431   0.00000  Uiso   1.00
C248   C     0.10374   0.85913   0.48198   0.00000  Uiso   1.00
C249   C     0.09043   0.94208   0.46496   0.00000  Uiso   1.00
C250   C     0.04608   0.94521   0.38073   0.00000  Uiso   1.00
C251   C     0.08416   0.77163   0.59787   0.00000  Uiso   1.00
C252   C     0.05437   0.78103   0.67828   0.00000  Uiso   1.00
C253   C     0.99351   0.71050   0.69162   0.00000  Uiso   1.00
H254   H     0.07221   0.63848   0.39967   0.00000  Uiso   1.00
H255   H     0.23164   0.60419   0.40191   0.00000  Uiso   1.00
H256   H     0.00631   0.72537   0.28283   0.00000  Uiso   1.00
H257   H     0.97025   0.56434   0.49612   0.00000  Uiso   1.00
H258   H     0.42161   0.60019   0.43295   0.00000  Uiso   1.00
H259   H     0.94646   0.85570   0.18186   0.00000  Uiso   1.00
H260   H     0.87042   0.51614   0.63163   0.00000  Uiso   1.00
H261   H     0.17391   0.90046   0.61988   0.00000  Uiso   1.00
H262   H     0.33893   0.88055   0.63421   0.00000  Uiso   1.00
H263   H     0.11360   0.00173   0.51512   0.00000  Uiso   1.00
H264   H     0.07754   0.84069   0.72841   0.00000  Uiso   1.00
H265   H     0.50869   0.82450   0.62149   0.00000  Uiso   1.00
H266   H     0.03353   0.08000   0.37040   0.00000  Uiso   1.00
H267   H     0.95750   0.74044   0.82017   0.00000  Uiso   1.00
O268   O     0.57188   0.69454   0.53265   0.00000  Uiso   1.00
O269   O     0.94848   0.02974   0.20324   0.00000  Uiso   1.00
O270   O     0.84873   0.58424   0.79332   0.00000  Uiso   1.00
N271   N     0.41946   0.65571   0.47537   0.00000  Uiso   1.00
N272   N     0.97523   0.89459   0.24061   0.00000  Uiso   1.00
N273   N     0.90412   0.57714   0.66110   0.00000  Uiso   1.00
N274   N     0.46631   0.77640   0.57682   0.00000  Uiso   1.00
N275   N     0.02209   0.01529   0.34206   0.00000  Uiso   1.00
N276   N     0.95098   0.69783   0.76255   0.00000  Uiso   1.00
