data_job_03903
_audit_creation_date              2018-12-19
_audit_creation_method            'Materials Studio'
_symmetry_space_group_name_H-M    'P1'
_symmetry_Int_Tables_number       1
_symmetry_cell_setting            triclinic
loop_
_symmetry_equiv_pos_as_xyz
  x,y,z
_cell_length_a                    9.8180
_cell_length_b                    18.6399
_cell_length_c                    16.3559
_cell_angle_alpha                 90.0000
_cell_angle_beta                  78.8585
_cell_angle_gamma                 90.0000
loop_
_atom_site_label
_atom_site_type_symbol
_atom_site_fract_x
_atom_site_fract_y
_atom_site_fract_z
_atom_site_U_iso_or_equiv
_atom_site_adp_type
_atom_site_occupancy
C1     C     0.97605   0.19542   0.98484   0.00000  Uiso   1.00
C2     C     0.09998   0.21422   0.91655   0.00000  Uiso   1.00
C3     C     0.23767   0.21596   0.92547   0.00000  Uiso   1.00
C4     C     0.33573   0.23444   0.85555   0.00000  Uiso   1.00
C5     C     0.53399   0.26120   0.76111   0.00000  Uiso   1.00
C6     C     0.87727   0.25917   0.99093   0.00000  Uiso   1.00
C7     C     0.82769   0.29871   0.06239   0.00000  Uiso   1.00
C8     C     0.73825   0.35502   0.05508   0.00000  Uiso   1.00
C9     C     0.59067   0.45156   0.07612   0.00000  Uiso   1.00
C10    C     0.90245   0.13323   0.95107   0.00000  Uiso   1.00
C11    C     0.87400   0.06687   0.98903   0.00000  Uiso   1.00
C12    C     0.80573   0.01715   0.94817   0.00000  Uiso   1.00
C13    C     0.69725   0.91813   0.90733   0.00000  Uiso   1.00
C14    C     0.90535   0.22512   0.84482   0.00000  Uiso   1.00
C15    C     0.06158   0.23035   0.84050   0.00000  Uiso   1.00
C16    C     0.15945   0.24882   0.77055   0.00000  Uiso   1.00
C17    C     0.29726   0.25059   0.77936   0.00000  Uiso   1.00
C18    C     0.83887   0.27530   0.91488   0.00000  Uiso   1.00
C19    C     0.74947   0.33157   0.90747   0.00000  Uiso   1.00
C20    C     0.69977   0.37119   0.97889   0.00000  Uiso   1.00
C21    C     0.86405   0.14936   0.87502   0.00000  Uiso   1.00
C22    C     0.79579   0.09973   0.83410   0.00000  Uiso   1.00
C23    C     0.76725   0.03331   0.87198   0.00000  Uiso   1.00
H24    H     0.00594   0.18286   0.04405   0.00000  Uiso   1.00
H25    H     0.26735   0.20348   0.98434   0.00000  Uiso   1.00
H26    H     0.85742   0.28621   0.12123   0.00000  Uiso   1.00
H27    H     0.90374   0.05441   0.04788   0.00000  Uiso   1.00
H28    H     0.54022   0.23348   0.88461   0.00000  Uiso   1.00
H29    H     0.67582   0.40791   0.17326   0.00000  Uiso   1.00
H30    H     0.77349   0.91911   0.01859   0.00000  Uiso   1.00
H31    H     0.87545   0.23768   0.78560   0.00000  Uiso   1.00
H32    H     0.12970   0.26130   0.71170   0.00000  Uiso   1.00
H33    H     0.71977   0.34403   0.84860   0.00000  Uiso   1.00
H34    H     0.76609   0.11223   0.77525   0.00000  Uiso   1.00
H35    H     0.42850   0.28041   0.66332   0.00000  Uiso   1.00
H36    H     0.56410   0.45484   0.95199   0.00000  Uiso   1.00
H37    H     0.66177   0.96604   0.79731   0.00000  Uiso   1.00
O38    O     0.65396   0.27152   0.73002   0.00000  Uiso   1.00
O39    O     0.51989   0.50035   0.10874   0.00000  Uiso   1.00
O40    O     0.64804   0.85906   0.90580   0.00000  Uiso   1.00
N41    N     0.47904   0.24127   0.84266   0.00000  Uiso   1.00
N42    N     0.67090   0.40436   0.11254   0.00000  Uiso   1.00
N43    N     0.76217   0.94737   0.96794   0.00000  Uiso   1.00
N44    N     0.41892   0.26652   0.72359   0.00000  Uiso   1.00
N45    N     0.61078   0.42961   0.99347   0.00000  Uiso   1.00
N46    N     0.70206   0.97263   0.84887   0.00000  Uiso   1.00
C47    C     0.02395   0.69542   0.51516   0.00000  Uiso   1.00
C48    C     0.90002   0.71422   0.58345   0.00000  Uiso   1.00
C49    C     0.76233   0.71596   0.57453   0.00000  Uiso   1.00
C50    C     0.66427   0.73444   0.64445   0.00000  Uiso   1.00
C51    C     0.46601   0.76120   0.73889   0.00000  Uiso   1.00
C52    C     0.12273   0.75917   0.50907   0.00000  Uiso   1.00
C53    C     0.17231   0.79871   0.43761   0.00000  Uiso   1.00
C54    C     0.26175   0.85502   0.44492   0.00000  Uiso   1.00
C55    C     0.40933   0.95156   0.42388   0.00000  Uiso   1.00
C56    C     0.09755   0.63323   0.54893   0.00000  Uiso   1.00
C57    C     0.12600   0.56687   0.51097   0.00000  Uiso   1.00
C58    C     0.19427   0.51715   0.55183   0.00000  Uiso   1.00
C59    C     0.30275   0.41813   0.59267   0.00000  Uiso   1.00
C60    C     0.09465   0.72512   0.65518   0.00000  Uiso   1.00
C61    C     0.93842   0.73035   0.65950   0.00000  Uiso   1.00
C62    C     0.84055   0.74882   0.72945   0.00000  Uiso   1.00
C63    C     0.70274   0.75059   0.72064   0.00000  Uiso   1.00
C64    C     0.16113   0.77530   0.58512   0.00000  Uiso   1.00
C65    C     0.25053   0.83157   0.59253   0.00000  Uiso   1.00
C66    C     0.30023   0.87119   0.52111   0.00000  Uiso   1.00
C67    C     0.13595   0.64936   0.62498   0.00000  Uiso   1.00
C68    C     0.20421   0.59973   0.66590   0.00000  Uiso   1.00
C69    C     0.23275   0.53331   0.62802   0.00000  Uiso   1.00
H70    H     0.99406   0.68286   0.45595   0.00000  Uiso   1.00
H71    H     0.73265   0.70348   0.51566   0.00000  Uiso   1.00
H72    H     0.14258   0.78621   0.37877   0.00000  Uiso   1.00
H73    H     0.09626   0.55441   0.45212   0.00000  Uiso   1.00
H74    H     0.45978   0.73348   0.61539   0.00000  Uiso   1.00
H75    H     0.32418   0.90791   0.32674   0.00000  Uiso   1.00
H76    H     0.22651   0.41911   0.48141   0.00000  Uiso   1.00
H77    H     0.12455   0.73768   0.71440   0.00000  Uiso   1.00
H78    H     0.87030   0.76130   0.78830   0.00000  Uiso   1.00
H79    H     0.28023   0.84403   0.65140   0.00000  Uiso   1.00
H80    H     0.23391   0.61223   0.72475   0.00000  Uiso   1.00
H81    H     0.57150   0.78041   0.83668   0.00000  Uiso   1.00
H82    H     0.43590   0.95484   0.54801   0.00000  Uiso   1.00
H83    H     0.33823   0.46604   0.70269   0.00000  Uiso   1.00
O84    O     0.34604   0.77152   0.76998   0.00000  Uiso   1.00
O85    O     0.48011   0.00035   0.39126   0.00000  Uiso   1.00
O86    O     0.35196   0.35906   0.59420   0.00000  Uiso   1.00
N87    N     0.52096   0.74127   0.65734   0.00000  Uiso   1.00
N88    N     0.32910   0.90436   0.38746   0.00000  Uiso   1.00
N89    N     0.23783   0.44737   0.53206   0.00000  Uiso   1.00
N90    N     0.58108   0.76652   0.77641   0.00000  Uiso   1.00
N91    N     0.38922   0.92961   0.50653   0.00000  Uiso   1.00
N92    N     0.29794   0.47263   0.65113   0.00000  Uiso   1.00
C93    C     0.02395   0.80458   0.01516   0.00000  Uiso   1.00
C94    C     0.90002   0.78578   0.08345   0.00000  Uiso   1.00
C95    C     0.76233   0.78404   0.07453   0.00000  Uiso   1.00
C96    C     0.66427   0.76556   0.14445   0.00000  Uiso   1.00
C97    C     0.46601   0.73880   0.23889   0.00000  Uiso   1.00
C98    C     0.12273   0.74083   0.00907   0.00000  Uiso   1.00
C99    C     0.17231   0.70129   0.93761   0.00000  Uiso   1.00
C100   C     0.26175   0.64498   0.94492   0.00000  Uiso   1.00
C101   C     0.40933   0.54844   0.92388   0.00000  Uiso   1.00
C102   C     0.09755   0.86677   0.04893   0.00000  Uiso   1.00
C103   C     0.12600   0.93313   0.01097   0.00000  Uiso   1.00
C104   C     0.19427   0.98285   0.05183   0.00000  Uiso   1.00
C105   C     0.30275   0.08187   0.09267   0.00000  Uiso   1.00
C106   C     0.09465   0.77488   0.15518   0.00000  Uiso   1.00
C107   C     0.93842   0.76965   0.15950   0.00000  Uiso   1.00
C108   C     0.84055   0.75118   0.22945   0.00000  Uiso   1.00
C109   C     0.70274   0.74941   0.22064   0.00000  Uiso   1.00
C110   C     0.16113   0.72470   0.08512   0.00000  Uiso   1.00
C111   C     0.25053   0.66843   0.09253   0.00000  Uiso   1.00
C112   C     0.30023   0.62881   0.02111   0.00000  Uiso   1.00
C113   C     0.13595   0.85064   0.12498   0.00000  Uiso   1.00
C114   C     0.20421   0.90027   0.16590   0.00000  Uiso   1.00
C115   C     0.23275   0.96669   0.12802   0.00000  Uiso   1.00
H116   H     0.99406   0.81714   0.95595   0.00000  Uiso   1.00
H117   H     0.73265   0.79652   0.01566   0.00000  Uiso   1.00
H118   H     0.14258   0.71379   0.87877   0.00000  Uiso   1.00
H119   H     0.09626   0.94559   0.95212   0.00000  Uiso   1.00
H120   H     0.45978   0.76652   0.11539   0.00000  Uiso   1.00
H121   H     0.32418   0.59209   0.82674   0.00000  Uiso   1.00
H122   H     0.22651   0.08089   0.98141   0.00000  Uiso   1.00
H123   H     0.12455   0.76232   0.21440   0.00000  Uiso   1.00
H124   H     0.87030   0.73870   0.28830   0.00000  Uiso   1.00
H125   H     0.28023   0.65597   0.15140   0.00000  Uiso   1.00
H126   H     0.23391   0.88777   0.22475   0.00000  Uiso   1.00
H127   H     0.57150   0.71959   0.33668   0.00000  Uiso   1.00
H128   H     0.43590   0.54516   0.04801   0.00000  Uiso   1.00
H129   H     0.33823   0.03396   0.20269   0.00000  Uiso   1.00
O130   O     0.34604   0.72848   0.26998   0.00000  Uiso   1.00
O131   O     0.48011   0.49965   0.89126   0.00000  Uiso   1.00
O132   O     0.35196   0.14094   0.09420   0.00000  Uiso   1.00
N133   N     0.52096   0.75873   0.15734   0.00000  Uiso   1.00
N134   N     0.32910   0.59564   0.88746   0.00000  Uiso   1.00
N135   N     0.23783   0.05263   0.03206   0.00000  Uiso   1.00
N136   N     0.58108   0.73348   0.27641   0.00000  Uiso   1.00
N137   N     0.38922   0.57039   0.00653   0.00000  Uiso   1.00
N138   N     0.29794   0.02737   0.15113   0.00000  Uiso   1.00
C139   C     0.97605   0.30458   0.48484   0.00000  Uiso   1.00
C140   C     0.09998   0.28578   0.41655   0.00000  Uiso   1.00
C141   C     0.23767   0.28404   0.42547   0.00000  Uiso   1.00
C142   C     0.33573   0.26556   0.35555   0.00000  Uiso   1.00
C143   C     0.53399   0.23880   0.26111   0.00000  Uiso   1.00
C144   C     0.87727   0.24083   0.49093   0.00000  Uiso   1.00
C145   C     0.82769   0.20129   0.56239   0.00000  Uiso   1.00
C146   C     0.73825   0.14498   0.55508   0.00000  Uiso   1.00
C147   C     0.59067   0.04844   0.57612   0.00000  Uiso   1.00
C148   C     0.90245   0.36677   0.45107   0.00000  Uiso   1.00
C149   C     0.87400   0.43313   0.48903   0.00000  Uiso   1.00
C150   C     0.80573   0.48285   0.44817   0.00000  Uiso   1.00
C151   C     0.69725   0.58187   0.40733   0.00000  Uiso   1.00
C152   C     0.90535   0.27488   0.34482   0.00000  Uiso   1.00
C153   C     0.06158   0.26965   0.34050   0.00000  Uiso   1.00
C154   C     0.15945   0.25118   0.27055   0.00000  Uiso   1.00
C155   C     0.29726   0.24941   0.27936   0.00000  Uiso   1.00
C156   C     0.83887   0.22470   0.41488   0.00000  Uiso   1.00
C157   C     0.74947   0.16843   0.40747   0.00000  Uiso   1.00
C158   C     0.69977   0.12881   0.47889   0.00000  Uiso   1.00
C159   C     0.86405   0.35064   0.37502   0.00000  Uiso   1.00
C160   C     0.79579   0.40027   0.33410   0.00000  Uiso   1.00
C161   C     0.76725   0.46669   0.37198   0.00000  Uiso   1.00
H162   H     0.00594   0.31714   0.54405   0.00000  Uiso   1.00
H163   H     0.26735   0.29652   0.48434   0.00000  Uiso   1.00
H164   H     0.85742   0.21379   0.62123   0.00000  Uiso   1.00
H165   H     0.90374   0.44559   0.54788   0.00000  Uiso   1.00
H166   H     0.54022   0.26652   0.38461   0.00000  Uiso   1.00
H167   H     0.67582   0.09209   0.67326   0.00000  Uiso   1.00
H168   H     0.77349   0.58089   0.51859   0.00000  Uiso   1.00
H169   H     0.87545   0.26232   0.28560   0.00000  Uiso   1.00
H170   H     0.12970   0.23870   0.21170   0.00000  Uiso   1.00
H171   H     0.71977   0.15597   0.34860   0.00000  Uiso   1.00
H172   H     0.76609   0.38777   0.27525   0.00000  Uiso   1.00
H173   H     0.42850   0.21959   0.16332   0.00000  Uiso   1.00
H174   H     0.56410   0.04516   0.45199   0.00000  Uiso   1.00
H175   H     0.66177   0.53396   0.29731   0.00000  Uiso   1.00
O176   O     0.65396   0.22848   0.23002   0.00000  Uiso   1.00
O177   O     0.51989   0.99965   0.60874   0.00000  Uiso   1.00
O178   O     0.64804   0.64094   0.40580   0.00000  Uiso   1.00
N179   N     0.47904   0.25873   0.34266   0.00000  Uiso   1.00
N180   N     0.67090   0.09564   0.61254   0.00000  Uiso   1.00
N181   N     0.76217   0.55263   0.46794   0.00000  Uiso   1.00
N182   N     0.41892   0.23348   0.22359   0.00000  Uiso   1.00
N183   N     0.61078   0.07039   0.49347   0.00000  Uiso   1.00
N184   N     0.70206   0.52737   0.34887   0.00000  Uiso   1.00
