data_job_04432
_audit_creation_date              2018-12-19
_audit_creation_method            'Materials Studio'
_symmetry_space_group_name_H-M    'P1'
_symmetry_Int_Tables_number       1
_symmetry_cell_setting            triclinic
loop_
_symmetry_equiv_pos_as_xyz
  x,y,z
_cell_length_a                    16.7611
_cell_length_b                    20.1018
_cell_length_c                    12.9188
_cell_angle_alpha                 90.0000
_cell_angle_beta                  93.3367
_cell_angle_gamma                 90.0000
loop_
_atom_site_label
_atom_site_type_symbol
_atom_site_fract_x
_atom_site_fract_y
_atom_site_fract_z
_atom_site_U_iso_or_equiv
_atom_site_adp_type
_atom_site_occupancy
C1     C     0.07016   0.45992   0.47256   0.00000  Uiso   1.00
C2     C     0.98181   0.45471   0.43804   0.00000  Uiso   1.00
C3     C     0.94170   0.39667   0.40886   0.00000  Uiso   1.00
C4     C     0.86093   0.40234   0.37981   0.00000  Uiso   1.00
C5     C     0.72973   0.38489   0.32613   0.00000  Uiso   1.00
C6     C     0.10590   0.51043   0.40034   0.00000  Uiso   1.00
C7     C     0.17012   0.49924   0.33948   0.00000  Uiso   1.00
C8     C     0.19381   0.55183   0.27870   0.00000  Uiso   1.00
C9     C     0.25529   0.62091   0.16656   0.00000  Uiso   1.00
C10    C     0.07333   0.49226   0.57949   0.00000  Uiso   1.00
C11    C     0.11019   0.46580   0.66926   0.00000  Uiso   1.00
C12    C     0.10647   0.50309   0.75932   0.00000  Uiso   1.00
C13    C     0.11739   0.54395   0.92534   0.00000  Uiso   1.00
C14    C     0.99804   0.57321   0.47286   0.00000  Uiso   1.00
C15    C     0.94264   0.51624   0.43820   0.00000  Uiso   1.00
C16    C     0.86191   0.52200   0.40919   0.00000  Uiso   1.00
C17    C     0.82168   0.46398   0.37998   0.00000  Uiso   1.00
C18    C     0.06673   0.57196   0.40050   0.00000  Uiso   1.00
C19    C     0.09033   0.62458   0.33981   0.00000  Uiso   1.00
C20    C     0.15457   0.61347   0.27887   0.00000  Uiso   1.00
C21    C     0.03416   0.55379   0.57966   0.00000  Uiso   1.00
C22    C     0.03039   0.59113   0.66960   0.00000  Uiso   1.00
C23    C     0.06723   0.56473   0.75949   0.00000  Uiso   1.00
H24    H     0.10066   0.41202   0.47243   0.00000  Uiso   1.00
H25    H     0.97204   0.34906   0.40873   0.00000  Uiso   1.00
H26    H     0.20043   0.45162   0.33937   0.00000  Uiso   1.00
H27    H     0.14050   0.41818   0.66910   0.00000  Uiso   1.00
H28    H     0.81218   0.30639   0.33815   0.00000  Uiso   1.00
H29    H     0.29377   0.52267   0.19193   0.00000  Uiso   1.00
H30    H     0.16740   0.45214   0.88724   0.00000  Uiso   1.00
H31    H     0.96754   0.62111   0.47299   0.00000  Uiso   1.00
H32    H     0.83161   0.56963   0.40933   0.00000  Uiso   1.00
H33    H     0.06000   0.67219   0.33996   0.00000  Uiso   1.00
H34    H     0.00007   0.63875   0.66970   0.00000  Uiso   1.00
H35    H     0.69820   0.48542   0.33863   0.00000  Uiso   1.00
H36    H     0.17979   0.70169   0.19241   0.00000  Uiso   1.00
H37    H     0.05342   0.63116   0.88771   0.00000  Uiso   1.00
O38    O     0.66818   0.35827   0.29646   0.00000  Uiso   1.00
O39    O     0.30002   0.64201   0.10465   0.00000  Uiso   1.00
O40    O     0.13422   0.54948   0.01687   0.00000  Uiso   1.00
N41    N     0.80400   0.35559   0.34702   0.00000  Uiso   1.00
N42    N     0.25425   0.55779   0.21030   0.00000  Uiso   1.00
N43    N     0.13612   0.49186   0.86035   0.00000  Uiso   1.00
N44    N     0.74267   0.45192   0.34728   0.00000  Uiso   1.00
N45    N     0.19292   0.65412   0.21056   0.00000  Uiso   1.00
N46    N     0.07479   0.58819   0.86060   0.00000  Uiso   1.00
C47    C     0.88535   0.74410   0.21558   0.00000  Uiso   1.00
C48    C     0.88860   0.67085   0.18539   0.00000  Uiso   1.00
C49    C     0.95660   0.63632   0.16059   0.00000  Uiso   1.00
C50    C     0.94710   0.56959   0.13505   0.00000  Uiso   1.00
C51    C     0.96352   0.46058   0.08823   0.00000  Uiso   1.00
C52    C     0.82396   0.77618   0.13941   0.00000  Uiso   1.00
C53    C     0.83761   0.83022   0.07595   0.00000  Uiso   1.00
C54    C     0.77368   0.85217   0.01171   0.00000  Uiso   1.00
C55    C     0.68973   0.90673   0.89356   0.00000  Uiso   1.00
C56    C     0.84907   0.74612   0.32107   0.00000  Uiso   1.00
C57    C     0.88381   0.77489   0.41036   0.00000  Uiso   1.00
C58    C     0.84102   0.77154   0.49906   0.00000  Uiso   1.00
C59    C     0.79606   0.77941   0.66296   0.00000  Uiso   1.00
C60    C     0.74756   0.68699   0.21433   0.00000  Uiso   1.00
C61    C     0.81376   0.63983   0.18471   0.00000  Uiso   1.00
C62    C     0.80415   0.57313   0.15921   0.00000  Uiso   1.00
C63    C     0.87212   0.53851   0.13437   0.00000  Uiso   1.00
C64    C     0.74912   0.74517   0.13873   0.00000  Uiso   1.00
C65    C     0.68516   0.76704   0.07457   0.00000  Uiso   1.00
C66    C     0.69870   0.82109   0.01103   0.00000  Uiso   1.00
C67    C     0.77423   0.71510   0.32039   0.00000  Uiso   1.00
C68    C     0.73137   0.71170   0.40897   0.00000  Uiso   1.00
C69    C     0.76604   0.74046   0.49838   0.00000  Uiso   1.00
H70    H     0.94362   0.76825   0.21610   0.00000  Uiso   1.00
H71    H     0.01451   0.66035   0.16111   0.00000  Uiso   1.00
H72    H     0.89553   0.85422   0.07650   0.00000  Uiso   1.00
H73    H     0.94173   0.79889   0.41085   0.00000  Uiso   1.00
H74    H     0.06009   0.52704   0.09981   0.00000  Uiso   1.00
H75    H     0.80921   0.93585   0.92143   0.00000  Uiso   1.00
H76    H     0.90664   0.81919   0.62647   0.00000  Uiso   1.00
H77    H     0.68929   0.66284   0.21380   0.00000  Uiso   1.00
H78    H     0.74623   0.54914   0.15869   0.00000  Uiso   1.00
H79    H     0.62725   0.74302   0.07407   0.00000  Uiso   1.00
H80    H     0.67345   0.68769   0.40842   0.00000  Uiso   1.00
H81    H     0.84235   0.43678   0.09784   0.00000  Uiso   1.00
H82    H     0.59146   0.84560   0.91945   0.00000  Uiso   1.00
H83    H     0.68889   0.72893   0.62450   0.00000  Uiso   1.00
O84    O     0.99326   0.40903   0.06258   0.00000  Uiso   1.00
O85    O     0.66411   0.94539   0.82856   0.00000  Uiso   1.00
O86    O     0.79193   0.79232   0.75356   0.00000  Uiso   1.00
N87    N     0.00103   0.52140   0.10693   0.00000  Uiso   1.00
N88    N     0.76648   0.90361   0.94014   0.00000  Uiso   1.00
N89    N     0.85756   0.79455   0.59929   0.00000  Uiso   1.00
N90    N     0.88387   0.47283   0.10587   0.00000  Uiso   1.00
N91    N     0.64931   0.85504   0.93908   0.00000  Uiso   1.00
N92    N     0.74039   0.74598   0.59823   0.00000  Uiso   1.00
C93    C     0.50955   0.58452   0.96868   0.00000  Uiso   1.00
C94    C     0.59767   0.58391   0.94526   0.00000  Uiso   1.00
C95    C     0.64053   0.63768   0.91031   0.00000  Uiso   1.00
C96    C     0.72058   0.62698   0.89344   0.00000  Uiso   1.00
C97    C     0.85195   0.63550   0.85437   0.00000  Uiso   1.00
C98    C     0.47003   0.52973   0.90208   0.00000  Uiso   1.00
C99    C     0.40557   0.53794   0.83084   0.00000  Uiso   1.00
C100   C     0.37816   0.48164   0.77763   0.00000  Uiso   1.00
C101   C     0.31133   0.40603   0.67159   0.00000  Uiso   1.00
C102   C     0.50612   0.56138   0.08074   0.00000  Uiso   1.00
C103   C     0.47198   0.59620   0.15971   0.00000  Uiso   1.00
C104   C     0.47493   0.56653   0.25692   0.00000  Uiso   1.00
C105   C     0.46414   0.54007   0.42826   0.00000  Uiso   1.00
C106   C     0.57548   0.46992   0.00088   0.00000  Uiso   1.00
C107   C     0.63348   0.52166   0.96275   0.00000  Uiso   1.00
C108   C     0.71348   0.51089   0.94593   0.00000  Uiso   1.00
C109   C     0.75646   0.56463   0.91096   0.00000  Uiso   1.00
C110   C     0.50584   0.46749   0.91957   0.00000  Uiso   1.00
C111   C     0.47852   0.41115   0.86647   0.00000  Uiso   1.00
C112   C     0.41403   0.41928   0.79515   0.00000  Uiso   1.00
C113   C     0.54193   0.49914   0.09823   0.00000  Uiso   1.00
C114   C     0.54493   0.46941   0.19534   0.00000  Uiso   1.00
C115   C     0.51081   0.50418   0.27444   0.00000  Uiso   1.00
H116   H     0.48166   0.63298   0.95505   0.00000  Uiso   1.00
H117   H     0.61279   0.68584   0.89677   0.00000  Uiso   1.00
H118   H     0.37786   0.58612   0.81733   0.00000  Uiso   1.00
H119   H     0.44427   0.64436   0.14615   0.00000  Uiso   1.00
H120   H     0.77397   0.71699   0.83983   0.00000  Uiso   1.00
H121   H     0.27858   0.50672   0.67234   0.00000  Uiso   1.00
H122   H     0.41861   0.62954   0.36572   0.00000  Uiso   1.00
H123   H     0.60336   0.42146   0.01450   0.00000  Uiso   1.00
H124   H     0.74118   0.46271   0.95948   0.00000  Uiso   1.00
H125   H     0.50624   0.36299   0.88003   0.00000  Uiso   1.00
H126   H     0.57265   0.42124   0.20885   0.00000  Uiso   1.00
H127   H     0.87817   0.53589   0.89072   0.00000  Uiso   1.00
H128   H     0.38277   0.32562   0.72323   0.00000  Uiso   1.00
H129   H     0.52281   0.44845   0.41661   0.00000  Uiso   1.00
O130   O     0.91452   0.65739   0.82797   0.00000  Uiso   1.00
O131   O     0.26458   0.38153   0.60825   0.00000  Uiso   1.00
O132   O     0.44831   0.54267   0.51795   0.00000  Uiso   1.00
N133   N     0.77958   0.66871   0.85938   0.00000  Uiso   1.00
N134   N     0.31643   0.47212   0.70277   0.00000  Uiso   1.00
N135   N     0.44733   0.58694   0.35102   0.00000  Uiso   1.00
N136   N     0.83565   0.57126   0.88676   0.00000  Uiso   1.00
N137   N     0.37250   0.37468   0.73016   0.00000  Uiso   1.00
N138   N     0.50340   0.48950   0.37840   0.00000  Uiso   1.00
C139   C     0.67764   0.32108   0.74219   0.00000  Uiso   1.00
C140   C     0.68382   0.39393   0.71074   0.00000  Uiso   1.00
C141   C     0.62093   0.43884   0.70173   0.00000  Uiso   1.00
C142   C     0.63890   0.50324   0.67197   0.00000  Uiso   1.00
C143   C     0.63663   0.61350   0.62613   0.00000  Uiso   1.00
C144   C     0.71143   0.28096   0.65462   0.00000  Uiso   1.00
C145   C     0.67174   0.23089   0.59844   0.00000  Uiso   1.00
C146   C     0.71296   0.20018   0.52144   0.00000  Uiso   1.00
C147   C     0.75357   0.13503   0.38853   0.00000  Uiso   1.00
C148   C     0.73618   0.31197   0.83595   0.00000  Uiso   1.00
C149   C     0.71730   0.28795   0.93224   0.00000  Uiso   1.00
C150   C     0.77937   0.28333   0.00790   0.00000  Uiso   1.00
C151   C     0.85839   0.26632   0.15654   0.00000  Uiso   1.00
C152   C     0.82141   0.35556   0.70536   0.00000  Uiso   1.00
C153   C     0.76192   0.41266   0.69073   0.00000  Uiso   1.00
C154   C     0.77999   0.47700   0.66098   0.00000  Uiso   1.00
C155   C     0.71713   0.52201   0.65193   0.00000  Uiso   1.00
C156   C     0.78952   0.29969   0.63461   0.00000  Uiso   1.00
C157   C     0.83081   0.26905   0.55769   0.00000  Uiso   1.00
C158   C     0.79120   0.21895   0.50140   0.00000  Uiso   1.00
C159   C     0.81427   0.33070   0.81595   0.00000  Uiso   1.00
C160   C     0.87637   0.32611   0.89148   0.00000  Uiso   1.00
C161   C     0.85760   0.30210   0.98786   0.00000  Uiso   1.00
H162   H     0.61684   0.30649   0.75776   0.00000  Uiso   1.00
H163   H     0.56050   0.42433   0.71721   0.00000  Uiso   1.00
H164   H     0.61131   0.21640   0.61395   0.00000  Uiso   1.00
H165   H     0.65687   0.27346   0.94769   0.00000  Uiso   1.00
H166   H     0.53247   0.56323   0.66340   0.00000  Uiso   1.00
H167   H     0.63962   0.12479   0.44568   0.00000  Uiso   1.00
H168   H     0.73568   0.24510   0.14944   0.00000  Uiso   1.00
H169   H     0.88221   0.37015   0.68978   0.00000  Uiso   1.00
H170   H     0.84043   0.49148   0.64550   0.00000  Uiso   1.00
H171   H     0.89124   0.28356   0.54223   0.00000  Uiso   1.00
H172   H     0.93680   0.34061   0.87597   0.00000  Uiso   1.00
H173   H     0.75967   0.61773   0.60519   0.00000  Uiso   1.00
H174   H     0.86683   0.17929   0.38747   0.00000  Uiso   1.00
H175   H     0.96288   0.29961   0.09123   0.00000  Uiso   1.00
O176   O     0.61379   0.66914   0.60636   0.00000  Uiso   1.00
O177   O     0.75438   0.09392   0.32074   0.00000  Uiso   1.00
O178   O     0.88041   0.25177   0.24405   0.00000  Uiso   1.00
N179   N     0.59168   0.55941   0.65579   0.00000  Uiso   1.00
N180   N     0.69186   0.14950   0.45223   0.00000  Uiso   1.00
N181   N     0.78167   0.26196   0.11018   0.00000  Uiso   1.00
N182   N     0.71393   0.58874   0.62447   0.00000  Uiso   1.00
N183   N     0.81411   0.17883   0.42091   0.00000  Uiso   1.00
N184   N     0.90392   0.29129   0.07886   0.00000  Uiso   1.00
C185   C     0.92984   0.95992   0.52744   0.00000  Uiso   1.00
C186   C     0.01819   0.95471   0.56196   0.00000  Uiso   1.00
C187   C     0.05830   0.89667   0.59114   0.00000  Uiso   1.00
C188   C     0.13907   0.90234   0.62019   0.00000  Uiso   1.00
C189   C     0.27027   0.88489   0.67387   0.00000  Uiso   1.00
C190   C     0.89410   0.01043   0.59966   0.00000  Uiso   1.00
C191   C     0.82988   0.99924   0.66052   0.00000  Uiso   1.00
C192   C     0.80619   0.05183   0.72130   0.00000  Uiso   1.00
C193   C     0.74471   0.12091   0.83344   0.00000  Uiso   1.00
C194   C     0.92667   0.99226   0.42051   0.00000  Uiso   1.00
C195   C     0.88981   0.96580   0.33074   0.00000  Uiso   1.00
C196   C     0.89353   0.00309   0.24068   0.00000  Uiso   1.00
C197   C     0.88261   0.04395   0.07466   0.00000  Uiso   1.00
C198   C     0.00196   0.07321   0.52714   0.00000  Uiso   1.00
C199   C     0.05736   0.01624   0.56180   0.00000  Uiso   1.00
C200   C     0.13809   0.02200   0.59081   0.00000  Uiso   1.00
C201   C     0.17832   0.96398   0.62002   0.00000  Uiso   1.00
C202   C     0.93327   0.07196   0.59950   0.00000  Uiso   1.00
C203   C     0.90967   0.12458   0.66019   0.00000  Uiso   1.00
C204   C     0.84543   0.11347   0.72113   0.00000  Uiso   1.00
C205   C     0.96584   0.05379   0.42034   0.00000  Uiso   1.00
C206   C     0.96961   0.09113   0.33040   0.00000  Uiso   1.00
C207   C     0.93277   0.06473   0.24051   0.00000  Uiso   1.00
H208   H     0.89934   0.91202   0.52757   0.00000  Uiso   1.00
H209   H     0.02796   0.84906   0.59127   0.00000  Uiso   1.00
H210   H     0.79957   0.95162   0.66063   0.00000  Uiso   1.00
H211   H     0.85950   0.91818   0.33090   0.00000  Uiso   1.00
H212   H     0.18782   0.80639   0.66185   0.00000  Uiso   1.00
H213   H     0.70623   0.02267   0.80807   0.00000  Uiso   1.00
H214   H     0.83260   0.95214   0.11276   0.00000  Uiso   1.00
H215   H     0.03246   0.12111   0.52701   0.00000  Uiso   1.00
H216   H     0.16839   0.06963   0.59067   0.00000  Uiso   1.00
H217   H     0.94000   0.17219   0.66004   0.00000  Uiso   1.00
H218   H     0.99993   0.13875   0.33030   0.00000  Uiso   1.00
H219   H     0.30180   0.98542   0.66137   0.00000  Uiso   1.00
H220   H     0.82021   0.20169   0.80759   0.00000  Uiso   1.00
H221   H     0.94658   0.13116   0.11229   0.00000  Uiso   1.00
O222   O     0.33182   0.85827   0.70354   0.00000  Uiso   1.00
O223   O     0.69998   0.14201   0.89535   0.00000  Uiso   1.00
O224   O     0.86578   0.04948   0.98313   0.00000  Uiso   1.00
N225   N     0.19600   0.85559   0.65298   0.00000  Uiso   1.00
N226   N     0.74575   0.05779   0.78970   0.00000  Uiso   1.00
N227   N     0.86388   0.99186   0.13965   0.00000  Uiso   1.00
N228   N     0.25733   0.95192   0.65272   0.00000  Uiso   1.00
N229   N     0.80708   0.15412   0.78944   0.00000  Uiso   1.00
N230   N     0.92521   0.08819   0.13940   0.00000  Uiso   1.00
C231   C     0.11465   0.24410   0.78442   0.00000  Uiso   1.00
C232   C     0.11140   0.17085   0.81461   0.00000  Uiso   1.00
C233   C     0.04340   0.13632   0.83941   0.00000  Uiso   1.00
C234   C     0.05290   0.06959   0.86495   0.00000  Uiso   1.00
C235   C     0.03648   0.96058   0.91177   0.00000  Uiso   1.00
C236   C     0.17604   0.27618   0.86059   0.00000  Uiso   1.00
C237   C     0.16239   0.33022   0.92405   0.00000  Uiso   1.00
C238   C     0.22632   0.35217   0.98829   0.00000  Uiso   1.00
C239   C     0.31027   0.40673   0.10644   0.00000  Uiso   1.00
C240   C     0.15093   0.24612   0.67893   0.00000  Uiso   1.00
C241   C     0.11619   0.27489   0.58964   0.00000  Uiso   1.00
C242   C     0.15898   0.27154   0.50094   0.00000  Uiso   1.00
C243   C     0.20394   0.27941   0.33704   0.00000  Uiso   1.00
C244   C     0.25244   0.18699   0.78567   0.00000  Uiso   1.00
C245   C     0.18624   0.13983   0.81529   0.00000  Uiso   1.00
C246   C     0.19585   0.07313   0.84079   0.00000  Uiso   1.00
C247   C     0.12788   0.03851   0.86563   0.00000  Uiso   1.00
C248   C     0.25088   0.24517   0.86127   0.00000  Uiso   1.00
C249   C     0.31484   0.26704   0.92543   0.00000  Uiso   1.00
C250   C     0.30130   0.32109   0.98897   0.00000  Uiso   1.00
C251   C     0.22577   0.21510   0.67961   0.00000  Uiso   1.00
C252   C     0.26863   0.21170   0.59103   0.00000  Uiso   1.00
C253   C     0.23396   0.24046   0.50162   0.00000  Uiso   1.00
H254   H     0.05638   0.26825   0.78390   0.00000  Uiso   1.00
H255   H     0.98549   0.16035   0.83889   0.00000  Uiso   1.00
H256   H     0.10447   0.35422   0.92350   0.00000  Uiso   1.00
H257   H     0.05827   0.29889   0.58915   0.00000  Uiso   1.00
H258   H     0.93991   0.02704   0.90019   0.00000  Uiso   1.00
H259   H     0.19079   0.43585   0.07857   0.00000  Uiso   1.00
H260   H     0.09336   0.31919   0.37353   0.00000  Uiso   1.00
H261   H     0.31071   0.16284   0.78620   0.00000  Uiso   1.00
H262   H     0.25377   0.04914   0.84131   0.00000  Uiso   1.00
H263   H     0.37275   0.24302   0.92593   0.00000  Uiso   1.00
H264   H     0.32655   0.18769   0.59158   0.00000  Uiso   1.00
H265   H     0.15765   0.93678   0.90216   0.00000  Uiso   1.00
H266   H     0.40854   0.34560   0.08055   0.00000  Uiso   1.00
H267   H     0.31111   0.22893   0.37550   0.00000  Uiso   1.00
O268   O     0.00674   0.90903   0.93742   0.00000  Uiso   1.00
O269   O     0.33589   0.44539   0.17144   0.00000  Uiso   1.00
O270   O     0.20807   0.29232   0.24644   0.00000  Uiso   1.00
N271   N     0.99897   0.02140   0.89307   0.00000  Uiso   1.00
N272   N     0.23352   0.40361   0.05986   0.00000  Uiso   1.00
N273   N     0.14244   0.29455   0.40071   0.00000  Uiso   1.00
N274   N     0.11613   0.97283   0.89413   0.00000  Uiso   1.00
N275   N     0.35069   0.35504   0.06092   0.00000  Uiso   1.00
N276   N     0.25961   0.24598   0.40177   0.00000  Uiso   1.00
C277   C     0.49045   0.08452   0.03132   0.00000  Uiso   1.00
C278   C     0.40233   0.08391   0.05474   0.00000  Uiso   1.00
C279   C     0.35947   0.13768   0.08969   0.00000  Uiso   1.00
C280   C     0.27942   0.12698   0.10656   0.00000  Uiso   1.00
C281   C     0.14805   0.13550   0.14563   0.00000  Uiso   1.00
C282   C     0.52997   0.02973   0.09792   0.00000  Uiso   1.00
C283   C     0.59443   0.03794   0.16916   0.00000  Uiso   1.00
C284   C     0.62184   0.98164   0.22237   0.00000  Uiso   1.00
C285   C     0.68867   0.90603   0.32841   0.00000  Uiso   1.00
C286   C     0.49388   0.06138   0.91926   0.00000  Uiso   1.00
C287   C     0.52802   0.09620   0.84029   0.00000  Uiso   1.00
C288   C     0.52507   0.06653   0.74308   0.00000  Uiso   1.00
C289   C     0.53586   0.04007   0.57174   0.00000  Uiso   1.00
C290   C     0.42452   0.96992   0.99912   0.00000  Uiso   1.00
C291   C     0.36652   0.02166   0.03725   0.00000  Uiso   1.00
C292   C     0.28652   0.01089   0.05407   0.00000  Uiso   1.00
C293   C     0.24354   0.06463   0.08904   0.00000  Uiso   1.00
C294   C     0.49416   0.96749   0.08043   0.00000  Uiso   1.00
C295   C     0.52148   0.91115   0.13353   0.00000  Uiso   1.00
C296   C     0.58597   0.91928   0.20485   0.00000  Uiso   1.00
C297   C     0.45807   0.99914   0.90177   0.00000  Uiso   1.00
C298   C     0.45507   0.96941   0.80466   0.00000  Uiso   1.00
C299   C     0.48919   0.00418   0.72556   0.00000  Uiso   1.00
H300   H     0.51834   0.13298   0.04495   0.00000  Uiso   1.00
H301   H     0.38721   0.18584   0.10323   0.00000  Uiso   1.00
H302   H     0.62214   0.08612   0.18267   0.00000  Uiso   1.00
H303   H     0.55573   0.14436   0.85385   0.00000  Uiso   1.00
H304   H     0.22603   0.21699   0.16017   0.00000  Uiso   1.00
H305   H     0.72142   0.00672   0.32766   0.00000  Uiso   1.00
H306   H     0.58139   0.12954   0.63428   0.00000  Uiso   1.00
H307   H     0.39664   0.92146   0.98550   0.00000  Uiso   1.00
H308   H     0.25882   0.96271   0.04052   0.00000  Uiso   1.00
H309   H     0.49376   0.86299   0.11997   0.00000  Uiso   1.00
H310   H     0.42735   0.92124   0.79115   0.00000  Uiso   1.00
H311   H     0.12183   0.03589   0.10928   0.00000  Uiso   1.00
H312   H     0.61723   0.82562   0.27677   0.00000  Uiso   1.00
H313   H     0.47719   0.94845   0.58339   0.00000  Uiso   1.00
O314   O     0.08548   0.15739   0.17203   0.00000  Uiso   1.00
O315   O     0.73542   0.88153   0.39175   0.00000  Uiso   1.00
O316   O     0.55169   0.04267   0.48205   0.00000  Uiso   1.00
N317   N     0.22042   0.16871   0.14062   0.00000  Uiso   1.00
N318   N     0.68357   0.97212   0.29723   0.00000  Uiso   1.00
N319   N     0.55267   0.08694   0.64898   0.00000  Uiso   1.00
N320   N     0.16435   0.07126   0.11324   0.00000  Uiso   1.00
N321   N     0.62750   0.87468   0.26984   0.00000  Uiso   1.00
N322   N     0.49660   0.98950   0.62160   0.00000  Uiso   1.00
C323   C     0.32236   0.82108   0.25781   0.00000  Uiso   1.00
C324   C     0.31618   0.89393   0.28926   0.00000  Uiso   1.00
C325   C     0.37907   0.93884   0.29827   0.00000  Uiso   1.00
C326   C     0.36110   0.00324   0.32803   0.00000  Uiso   1.00
C327   C     0.36337   0.11350   0.37387   0.00000  Uiso   1.00
C328   C     0.28857   0.78096   0.34538   0.00000  Uiso   1.00
C329   C     0.32826   0.73089   0.40156   0.00000  Uiso   1.00
C330   C     0.28704   0.70018   0.47856   0.00000  Uiso   1.00
C331   C     0.24643   0.63503   0.61147   0.00000  Uiso   1.00
C332   C     0.26382   0.81197   0.16405   0.00000  Uiso   1.00
C333   C     0.28270   0.78795   0.06776   0.00000  Uiso   1.00
C334   C     0.22063   0.78333   0.99210   0.00000  Uiso   1.00
C335   C     0.14161   0.76632   0.84346   0.00000  Uiso   1.00
C336   C     0.17859   0.85556   0.29464   0.00000  Uiso   1.00
C337   C     0.23808   0.91266   0.30927   0.00000  Uiso   1.00
C338   C     0.22001   0.97700   0.33902   0.00000  Uiso   1.00
C339   C     0.28287   0.02201   0.34807   0.00000  Uiso   1.00
C340   C     0.21048   0.79969   0.36539   0.00000  Uiso   1.00
C341   C     0.16919   0.76905   0.44231   0.00000  Uiso   1.00
C342   C     0.20880   0.71895   0.49860   0.00000  Uiso   1.00
C343   C     0.18573   0.83070   0.18405   0.00000  Uiso   1.00
C344   C     0.12363   0.82611   0.10852   0.00000  Uiso   1.00
C345   C     0.14240   0.80210   0.01214   0.00000  Uiso   1.00
H346   H     0.38316   0.80649   0.24224   0.00000  Uiso   1.00
H347   H     0.43950   0.92433   0.28279   0.00000  Uiso   1.00
H348   H     0.38869   0.71640   0.38605   0.00000  Uiso   1.00
H349   H     0.34313   0.77346   0.05231   0.00000  Uiso   1.00
H350   H     0.46753   0.06323   0.33660   0.00000  Uiso   1.00
H351   H     0.36038   0.62479   0.55432   0.00000  Uiso   1.00
H352   H     0.26432   0.74510   0.85056   0.00000  Uiso   1.00
H353   H     0.11779   0.87015   0.31022   0.00000  Uiso   1.00
H354   H     0.15957   0.99148   0.35450   0.00000  Uiso   1.00
H355   H     0.10876   0.78356   0.45777   0.00000  Uiso   1.00
H356   H     0.06320   0.84061   0.12403   0.00000  Uiso   1.00
H357   H     0.24033   0.11773   0.39481   0.00000  Uiso   1.00
H358   H     0.13317   0.67929   0.61253   0.00000  Uiso   1.00
H359   H     0.03712   0.79961   0.90877   0.00000  Uiso   1.00
O360   O     0.38621   0.16914   0.39364   0.00000  Uiso   1.00
O361   O     0.24562   0.59392   0.67926   0.00000  Uiso   1.00
O362   O     0.11959   0.75177   0.75595   0.00000  Uiso   1.00
N363   N     0.40832   0.05941   0.34421   0.00000  Uiso   1.00
N364   N     0.30814   0.64950   0.54777   0.00000  Uiso   1.00
N365   N     0.21833   0.76196   0.88982   0.00000  Uiso   1.00
N366   N     0.28607   0.08874   0.37553   0.00000  Uiso   1.00
N367   N     0.18589   0.67883   0.57909   0.00000  Uiso   1.00
N368   N     0.09608   0.79129   0.92114   0.00000  Uiso   1.00
