data_job_05670
_audit_creation_date              2018-12-19
_audit_creation_method            'Materials Studio'
_symmetry_space_group_name_H-M    'P1'
_symmetry_Int_Tables_number       1
_symmetry_cell_setting            triclinic
loop_
_symmetry_equiv_pos_as_xyz
  x,y,z
_cell_length_a                    17.2462
_cell_length_b                    7.2351
_cell_length_c                    12.4450
_cell_angle_alpha                 90.0000
_cell_angle_beta                  126.7250
_cell_angle_gamma                 90.0000
loop_
_atom_site_label
_atom_site_type_symbol
_atom_site_fract_x
_atom_site_fract_y
_atom_site_fract_z
_atom_site_U_iso_or_equiv
_atom_site_adp_type
_atom_site_occupancy
C1     C     0.23656   0.52545   0.01109   0.00000  Uiso   1.00
C2     C     0.27908   0.46654   0.93858   0.00000  Uiso   1.00
C3     C     0.33873   0.57332   0.92326   0.00000  Uiso   1.00
C4     C     0.37003   0.49444   0.85363   0.00000  Uiso   1.00
C5     C     0.44020   0.43027   0.74894   0.00000  Uiso   1.00
C6     C     0.12725   0.50380   0.90977   0.00000  Uiso   1.00
C7     C     0.05924   0.64191   0.87025   0.00000  Uiso   1.00
C8     C     0.96273   0.59437   0.77639   0.00000  Uiso   1.00
C9     C     0.79716   0.58802   0.62706   0.00000  Uiso   1.00
C10    C     0.26875   0.37988   0.11884   0.00000  Uiso   1.00
C11    C     0.31969   0.41380   0.25511   0.00000  Uiso   1.00
C12    C     0.34229   0.26193   0.33727   0.00000  Uiso   1.00
C13    C     0.39643   0.06318   0.51255   0.00000  Uiso   1.00
C14    C     0.18609   0.19547   0.91469   0.00000  Uiso   1.00
C15    C     0.25167   0.28731   0.88621   0.00000  Uiso   1.00
C16    C     0.28290   0.20824   0.81660   0.00000  Uiso   1.00
C17    C     0.34258   0.31488   0.80118   0.00000  Uiso   1.00
C18    C     0.09984   0.32458   0.85741   0.00000  Uiso   1.00
C19    C     0.00341   0.27683   0.76360   0.00000  Uiso   1.00
C20    C     0.93527   0.41482   0.72394   0.00000  Uiso   1.00
C21    C     0.24134   0.20065   0.06648   0.00000  Uiso   1.00
C22    C     0.26386   0.04871   0.14845   0.00000  Uiso   1.00
C23    C     0.31483   0.08238   0.28481   0.00000  Uiso   1.00
H24    H     0.25789   0.66499   0.05185   0.00000  Uiso   1.00
H25    H     0.35991   0.71203   0.96378   0.00000  Uiso   1.00
H26    H     0.08047   0.78059   0.91080   0.00000  Uiso   1.00
H27    H     0.34088   0.55251   0.29559   0.00000  Uiso   1.00
H28    H     0.46091   0.68516   0.84301   0.00000  Uiso   1.00
H29    H     0.87168   0.82971   0.73133   0.00000  Uiso   1.00
H30    H     0.42082   0.34877   0.54274   0.00000  Uiso   1.00
H31    H     0.16475   0.05593   0.87392   0.00000  Uiso   1.00
H32    H     0.26168   0.06954   0.77609   0.00000  Uiso   1.00
H33    H     0.98223   0.13811   0.72310   0.00000  Uiso   1.00
H34    H     0.24264   0.91004   0.10789   0.00000  Uiso   1.00
H35    H     0.38118   0.16370   0.69066   0.00000  Uiso   1.00
H36    H     0.79194   0.30825   0.57898   0.00000  Uiso   1.00
H37    H     0.34108   0.82731   0.39039   0.00000  Uiso   1.00
O38    O     0.48646   0.44440   0.70565   0.00000  Uiso   1.00
O39    O     0.71341   0.63404   0.55915   0.00000  Uiso   1.00
O40    O     0.43387   0.00305   0.62369   0.00000  Uiso   1.00
N41    N     0.42886   0.56055   0.82060   0.00000  Uiso   1.00
N42    N     0.87797   0.69571   0.71617   0.00000  Uiso   1.00
N43    N     0.39134   0.24607   0.47477   0.00000  Uiso   1.00
N44    N     0.38596   0.27996   0.73863   0.00000  Uiso   1.00
N45    N     0.83506   0.41511   0.63420   0.00000  Uiso   1.00
N46    N     0.34844   0.96548   0.39279   0.00000  Uiso   1.00
C47    C     0.76344   0.52545   0.98891   0.00000  Uiso   1.00
C48    C     0.72092   0.46654   0.06142   0.00000  Uiso   1.00
C49    C     0.66127   0.57332   0.07674   0.00000  Uiso   1.00
C50    C     0.62997   0.49444   0.14637   0.00000  Uiso   1.00
C51    C     0.55980   0.43027   0.25106   0.00000  Uiso   1.00
C52    C     0.87275   0.50380   0.09023   0.00000  Uiso   1.00
C53    C     0.94076   0.64191   0.12975   0.00000  Uiso   1.00
C54    C     0.03727   0.59437   0.22361   0.00000  Uiso   1.00
C55    C     0.20284   0.58802   0.37294   0.00000  Uiso   1.00
C56    C     0.73125   0.37988   0.88116   0.00000  Uiso   1.00
C57    C     0.68031   0.41380   0.74489   0.00000  Uiso   1.00
C58    C     0.65771   0.26193   0.66273   0.00000  Uiso   1.00
C59    C     0.60357   0.06318   0.48745   0.00000  Uiso   1.00
C60    C     0.81391   0.19547   0.08531   0.00000  Uiso   1.00
C61    C     0.74833   0.28731   0.11379   0.00000  Uiso   1.00
C62    C     0.71710   0.20824   0.18340   0.00000  Uiso   1.00
C63    C     0.65742   0.31488   0.19882   0.00000  Uiso   1.00
C64    C     0.90016   0.32458   0.14259   0.00000  Uiso   1.00
C65    C     0.99659   0.27683   0.23640   0.00000  Uiso   1.00
C66    C     0.06473   0.41482   0.27606   0.00000  Uiso   1.00
C67    C     0.75866   0.20065   0.93352   0.00000  Uiso   1.00
C68    C     0.73614   0.04871   0.85155   0.00000  Uiso   1.00
C69    C     0.68517   0.08238   0.71519   0.00000  Uiso   1.00
H70    H     0.74211   0.66499   0.94815   0.00000  Uiso   1.00
H71    H     0.64009   0.71203   0.03622   0.00000  Uiso   1.00
H72    H     0.91953   0.78059   0.08920   0.00000  Uiso   1.00
H73    H     0.65912   0.55251   0.70441   0.00000  Uiso   1.00
H74    H     0.53909   0.68516   0.15699   0.00000  Uiso   1.00
H75    H     0.12832   0.82971   0.26867   0.00000  Uiso   1.00
H76    H     0.57918   0.34877   0.45726   0.00000  Uiso   1.00
H77    H     0.83525   0.05593   0.12608   0.00000  Uiso   1.00
H78    H     0.73832   0.06954   0.22391   0.00000  Uiso   1.00
H79    H     0.01777   0.13811   0.27690   0.00000  Uiso   1.00
H80    H     0.75736   0.91004   0.89211   0.00000  Uiso   1.00
H81    H     0.61882   0.16370   0.30934   0.00000  Uiso   1.00
H82    H     0.20806   0.30825   0.42102   0.00000  Uiso   1.00
H83    H     0.65892   0.82731   0.60961   0.00000  Uiso   1.00
O84    O     0.51354   0.44440   0.29435   0.00000  Uiso   1.00
O85    O     0.28659   0.63404   0.44085   0.00000  Uiso   1.00
O86    O     0.56613   0.00305   0.37631   0.00000  Uiso   1.00
N87    N     0.57114   0.56055   0.17940   0.00000  Uiso   1.00
N88    N     0.12203   0.69571   0.28383   0.00000  Uiso   1.00
N89    N     0.60866   0.24607   0.52523   0.00000  Uiso   1.00
N90    N     0.61404   0.27996   0.26137   0.00000  Uiso   1.00
N91    N     0.16494   0.41511   0.36580   0.00000  Uiso   1.00
N92    N     0.65156   0.96548   0.60721   0.00000  Uiso   1.00
