data_job_03426
_audit_creation_date              2018-12-19
_audit_creation_method            'Materials Studio'
_symmetry_space_group_name_H-M    'P1'
_symmetry_Int_Tables_number       1
_symmetry_cell_setting            triclinic
loop_
_symmetry_equiv_pos_as_xyz
  x,y,z
_cell_length_a                    22.0077
_cell_length_b                    12.8618
_cell_length_c                    21.4637
_cell_angle_alpha                 90.0000
_cell_angle_beta                  64.9195
_cell_angle_gamma                 90.0000
loop_
_atom_site_label
_atom_site_type_symbol
_atom_site_fract_x
_atom_site_fract_y
_atom_site_fract_z
_atom_site_U_iso_or_equiv
_atom_site_adp_type
_atom_site_occupancy
C1     C     0.76472   0.00072   0.16258   0.00000  Uiso   1.00
C2     C     0.79226   0.10699   0.13222   0.00000  Uiso   1.00
C3     C     0.78868   0.19674   0.16950   0.00000  Uiso   1.00
C4     C     0.81687   0.28614   0.13217   0.00000  Uiso   1.00
C5     C     0.85495   0.45123   0.09598   0.00000  Uiso   1.00
C6     C     0.71679   0.96896   0.13141   0.00000  Uiso   1.00
C7     C     0.64974   0.94265   0.16802   0.00000  Uiso   1.00
C8     C     0.61440   0.91584   0.13000   0.00000  Uiso   1.00
C9     C     0.53531   0.86657   0.09257   0.00000  Uiso   1.00
C10    C     0.82378   0.92562   0.13323   0.00000  Uiso   1.00
C11    C     0.84669   0.86285   0.17137   0.00000  Uiso   1.00
C12    C     0.90143   0.79953   0.13488   0.00000  Uiso   1.00
C13    C     0.98847   0.68297   0.10027   0.00000  Uiso   1.00
C14    C     0.82117   0.99986   0.02996   0.00000  Uiso   1.00
C15    C     0.82292   0.10652   0.06018   0.00000  Uiso   1.00
C16    C     0.85113   0.19580   0.02278   0.00000  Uiso   1.00
C17    C     0.84759   0.28568   0.06000   0.00000  Uiso   1.00
C18    C     0.74745   0.96849   0.05938   0.00000  Uiso   1.00
C19    C     0.71220   0.94171   0.02130   0.00000  Uiso   1.00
C20    C     0.64512   0.91538   0.05784   0.00000  Uiso   1.00
C21    C     0.85445   0.92516   0.06120   0.00000  Uiso   1.00
C22    C     0.90916   0.86191   0.02464   0.00000  Uiso   1.00
C23    C     0.93215   0.79907   0.06272   0.00000  Uiso   1.00
H24    H     0.74084   0.00108   0.21866   0.00000  Uiso   1.00
H25    H     0.76494   0.19707   0.22525   0.00000  Uiso   1.00
H26    H     0.62603   0.94301   0.22377   0.00000  Uiso   1.00
H27    H     0.82295   0.86323   0.22711   0.00000  Uiso   1.00
H28    H     0.80515   0.41418   0.20079   0.00000  Uiso   1.00
H29    H     0.51226   0.87844   0.19766   0.00000  Uiso   1.00
H30    H     0.92751   0.71020   0.20472   0.00000  Uiso   1.00
H31    H     0.84504   0.99950   0.97388   0.00000  Uiso   1.00
H32    H     0.87486   0.19542   0.96704   0.00000  Uiso   1.00
H33    H     0.73595   0.94135   0.96556   0.00000  Uiso   1.00
H34    H     0.93287   0.86157   0.96890   0.00000  Uiso   1.00
H35    H     0.89436   0.41284   0.99121   0.00000  Uiso   1.00
H36    H     0.60147   0.87709   0.98809   0.00000  Uiso   1.00
H37    H     0.01673   0.70886   0.99514   0.00000  Uiso   1.00
O38    O     0.86747   0.54242   0.09591   0.00000  Uiso   1.00
O39    O     0.48321   0.83953   0.09182   0.00000  Uiso   1.00
O40    O     0.02802   0.61882   0.10107   0.00000  Uiso   1.00
N41    N     0.82207   0.38697   0.15240   0.00000  Uiso   1.00
N42    N     0.54823   0.88610   0.14948   0.00000  Uiso   1.00
N43    N     0.93644   0.72879   0.15608   0.00000  Uiso   1.00
N44    N     0.87007   0.38625   0.03963   0.00000  Uiso   1.00
N45    N     0.59623   0.88538   0.03671   0.00000  Uiso   1.00
N46    N     0.98445   0.72807   0.04331   0.00000  Uiso   1.00
C47    C     0.26472   0.50072   0.16258   0.00000  Uiso   1.00
C48    C     0.29226   0.60699   0.13222   0.00000  Uiso   1.00
C49    C     0.28868   0.69674   0.16950   0.00000  Uiso   1.00
C50    C     0.31687   0.78614   0.13217   0.00000  Uiso   1.00
C51    C     0.35495   0.95123   0.09598   0.00000  Uiso   1.00
C52    C     0.21679   0.46896   0.13141   0.00000  Uiso   1.00
C53    C     0.14974   0.44265   0.16802   0.00000  Uiso   1.00
C54    C     0.11440   0.41584   0.13000   0.00000  Uiso   1.00
C55    C     0.03531   0.36657   0.09257   0.00000  Uiso   1.00
C56    C     0.32378   0.42562   0.13323   0.00000  Uiso   1.00
C57    C     0.34669   0.36285   0.17137   0.00000  Uiso   1.00
C58    C     0.40143   0.29953   0.13488   0.00000  Uiso   1.00
C59    C     0.48847   0.18297   0.10027   0.00000  Uiso   1.00
C60    C     0.32117   0.49986   0.02996   0.00000  Uiso   1.00
C61    C     0.32292   0.60652   0.06018   0.00000  Uiso   1.00
C62    C     0.35113   0.69580   0.02278   0.00000  Uiso   1.00
C63    C     0.34759   0.78568   0.06000   0.00000  Uiso   1.00
C64    C     0.24745   0.46849   0.05938   0.00000  Uiso   1.00
C65    C     0.21220   0.44171   0.02130   0.00000  Uiso   1.00
C66    C     0.14512   0.41538   0.05784   0.00000  Uiso   1.00
C67    C     0.35445   0.42516   0.06120   0.00000  Uiso   1.00
C68    C     0.40916   0.36191   0.02464   0.00000  Uiso   1.00
C69    C     0.43215   0.29907   0.06272   0.00000  Uiso   1.00
H70    H     0.24084   0.50108   0.21866   0.00000  Uiso   1.00
H71    H     0.26494   0.69707   0.22525   0.00000  Uiso   1.00
H72    H     0.12603   0.44301   0.22377   0.00000  Uiso   1.00
H73    H     0.32295   0.36323   0.22711   0.00000  Uiso   1.00
H74    H     0.30515   0.91418   0.20079   0.00000  Uiso   1.00
H75    H     0.01226   0.37844   0.19766   0.00000  Uiso   1.00
H76    H     0.42751   0.21020   0.20472   0.00000  Uiso   1.00
H77    H     0.34504   0.49950   0.97388   0.00000  Uiso   1.00
H78    H     0.37486   0.69542   0.96704   0.00000  Uiso   1.00
H79    H     0.23595   0.44135   0.96556   0.00000  Uiso   1.00
H80    H     0.43287   0.36157   0.96890   0.00000  Uiso   1.00
H81    H     0.39436   0.91284   0.99121   0.00000  Uiso   1.00
H82    H     0.10147   0.37709   0.98809   0.00000  Uiso   1.00
H83    H     0.51673   0.20886   0.99514   0.00000  Uiso   1.00
O84    O     0.36747   0.04242   0.09591   0.00000  Uiso   1.00
O85    O     0.98321   0.33953   0.09182   0.00000  Uiso   1.00
O86    O     0.52802   0.11882   0.10107   0.00000  Uiso   1.00
N87    N     0.32207   0.88697   0.15240   0.00000  Uiso   1.00
N88    N     0.04823   0.38610   0.14948   0.00000  Uiso   1.00
N89    N     0.43644   0.22879   0.15608   0.00000  Uiso   1.00
N90    N     0.37007   0.88625   0.03963   0.00000  Uiso   1.00
N91    N     0.09623   0.38538   0.03671   0.00000  Uiso   1.00
N92    N     0.48445   0.22807   0.04331   0.00000  Uiso   1.00
C93    C     0.23528   0.00072   0.33742   0.00000  Uiso   1.00
C94    C     0.20774   0.10699   0.36778   0.00000  Uiso   1.00
C95    C     0.21132   0.19674   0.33050   0.00000  Uiso   1.00
C96    C     0.18313   0.28614   0.36783   0.00000  Uiso   1.00
C97    C     0.14505   0.45123   0.40402   0.00000  Uiso   1.00
C98    C     0.28321   0.96896   0.36859   0.00000  Uiso   1.00
C99    C     0.35026   0.94265   0.33198   0.00000  Uiso   1.00
C100   C     0.38560   0.91584   0.37000   0.00000  Uiso   1.00
C101   C     0.46469   0.86657   0.40743   0.00000  Uiso   1.00
C102   C     0.17622   0.92562   0.36677   0.00000  Uiso   1.00
C103   C     0.15331   0.86285   0.32863   0.00000  Uiso   1.00
C104   C     0.09857   0.79953   0.36512   0.00000  Uiso   1.00
C105   C     0.01153   0.68297   0.39973   0.00000  Uiso   1.00
C106   C     0.17883   0.99986   0.47004   0.00000  Uiso   1.00
C107   C     0.17708   0.10652   0.43982   0.00000  Uiso   1.00
C108   C     0.14887   0.19580   0.47722   0.00000  Uiso   1.00
C109   C     0.15241   0.28568   0.44000   0.00000  Uiso   1.00
C110   C     0.25255   0.96849   0.44062   0.00000  Uiso   1.00
C111   C     0.28780   0.94171   0.47870   0.00000  Uiso   1.00
C112   C     0.35488   0.91538   0.44216   0.00000  Uiso   1.00
C113   C     0.14555   0.92516   0.43880   0.00000  Uiso   1.00
C114   C     0.09084   0.86191   0.47536   0.00000  Uiso   1.00
C115   C     0.06785   0.79907   0.43728   0.00000  Uiso   1.00
H116   H     0.25916   0.00108   0.28134   0.00000  Uiso   1.00
H117   H     0.23506   0.19707   0.27475   0.00000  Uiso   1.00
H118   H     0.37397   0.94301   0.27623   0.00000  Uiso   1.00
H119   H     0.17705   0.86323   0.27289   0.00000  Uiso   1.00
H120   H     0.19485   0.41418   0.29921   0.00000  Uiso   1.00
H121   H     0.48774   0.87844   0.30234   0.00000  Uiso   1.00
H122   H     0.07249   0.71020   0.29528   0.00000  Uiso   1.00
H123   H     0.15496   0.99950   0.52612   0.00000  Uiso   1.00
H124   H     0.12514   0.19542   0.53296   0.00000  Uiso   1.00
H125   H     0.26405   0.94135   0.53444   0.00000  Uiso   1.00
H126   H     0.06713   0.86157   0.53110   0.00000  Uiso   1.00
H127   H     0.10564   0.41284   0.50879   0.00000  Uiso   1.00
H128   H     0.39853   0.87709   0.51191   0.00000  Uiso   1.00
H129   H     0.98327   0.70886   0.50486   0.00000  Uiso   1.00
O130   O     0.13253   0.54242   0.40409   0.00000  Uiso   1.00
O131   O     0.51679   0.83953   0.40818   0.00000  Uiso   1.00
O132   O     0.97198   0.61882   0.39893   0.00000  Uiso   1.00
N133   N     0.17793   0.38697   0.34760   0.00000  Uiso   1.00
N134   N     0.45177   0.88610   0.35052   0.00000  Uiso   1.00
N135   N     0.06356   0.72879   0.34392   0.00000  Uiso   1.00
N136   N     0.12993   0.38625   0.46037   0.00000  Uiso   1.00
N137   N     0.40377   0.88538   0.46329   0.00000  Uiso   1.00
N138   N     0.01555   0.72807   0.45669   0.00000  Uiso   1.00
C139   C     0.73528   0.50072   0.33742   0.00000  Uiso   1.00
C140   C     0.70774   0.60699   0.36778   0.00000  Uiso   1.00
C141   C     0.71132   0.69674   0.33050   0.00000  Uiso   1.00
C142   C     0.68313   0.78614   0.36783   0.00000  Uiso   1.00
C143   C     0.64505   0.95123   0.40402   0.00000  Uiso   1.00
C144   C     0.78321   0.46896   0.36859   0.00000  Uiso   1.00
C145   C     0.85026   0.44265   0.33198   0.00000  Uiso   1.00
C146   C     0.88560   0.41584   0.37000   0.00000  Uiso   1.00
C147   C     0.96469   0.36657   0.40743   0.00000  Uiso   1.00
C148   C     0.67622   0.42562   0.36677   0.00000  Uiso   1.00
C149   C     0.65331   0.36285   0.32863   0.00000  Uiso   1.00
C150   C     0.59857   0.29953   0.36512   0.00000  Uiso   1.00
C151   C     0.51153   0.18297   0.39973   0.00000  Uiso   1.00
C152   C     0.67883   0.49986   0.47004   0.00000  Uiso   1.00
C153   C     0.67708   0.60652   0.43982   0.00000  Uiso   1.00
C154   C     0.64887   0.69580   0.47722   0.00000  Uiso   1.00
C155   C     0.65241   0.78568   0.44000   0.00000  Uiso   1.00
C156   C     0.75255   0.46849   0.44062   0.00000  Uiso   1.00
C157   C     0.78780   0.44171   0.47870   0.00000  Uiso   1.00
C158   C     0.85488   0.41538   0.44216   0.00000  Uiso   1.00
C159   C     0.64555   0.42516   0.43880   0.00000  Uiso   1.00
C160   C     0.59084   0.36191   0.47536   0.00000  Uiso   1.00
C161   C     0.56785   0.29907   0.43728   0.00000  Uiso   1.00
H162   H     0.75916   0.50108   0.28134   0.00000  Uiso   1.00
H163   H     0.73506   0.69707   0.27475   0.00000  Uiso   1.00
H164   H     0.87397   0.44301   0.27623   0.00000  Uiso   1.00
H165   H     0.67705   0.36323   0.27289   0.00000  Uiso   1.00
H166   H     0.69485   0.91418   0.29921   0.00000  Uiso   1.00
H167   H     0.98774   0.37844   0.30234   0.00000  Uiso   1.00
H168   H     0.57249   0.21020   0.29528   0.00000  Uiso   1.00
H169   H     0.65496   0.49950   0.52612   0.00000  Uiso   1.00
H170   H     0.62514   0.69542   0.53296   0.00000  Uiso   1.00
H171   H     0.76405   0.44135   0.53444   0.00000  Uiso   1.00
H172   H     0.56713   0.36157   0.53110   0.00000  Uiso   1.00
H173   H     0.60564   0.91284   0.50879   0.00000  Uiso   1.00
H174   H     0.89853   0.37709   0.51191   0.00000  Uiso   1.00
H175   H     0.48327   0.20886   0.50486   0.00000  Uiso   1.00
O176   O     0.63253   0.04242   0.40409   0.00000  Uiso   1.00
O177   O     0.01679   0.33953   0.40818   0.00000  Uiso   1.00
O178   O     0.47198   0.11882   0.39893   0.00000  Uiso   1.00
N179   N     0.67793   0.88697   0.34760   0.00000  Uiso   1.00
N180   N     0.95177   0.38610   0.35052   0.00000  Uiso   1.00
N181   N     0.56356   0.22879   0.34392   0.00000  Uiso   1.00
N182   N     0.62993   0.88625   0.46037   0.00000  Uiso   1.00
N183   N     0.90377   0.38538   0.46329   0.00000  Uiso   1.00
N184   N     0.51555   0.22807   0.45669   0.00000  Uiso   1.00
C185   C     0.23528   0.99928   0.83742   0.00000  Uiso   1.00
C186   C     0.20774   0.89301   0.86778   0.00000  Uiso   1.00
C187   C     0.21132   0.80326   0.83050   0.00000  Uiso   1.00
C188   C     0.18313   0.71386   0.86783   0.00000  Uiso   1.00
C189   C     0.14505   0.54877   0.90402   0.00000  Uiso   1.00
C190   C     0.28321   0.03104   0.86859   0.00000  Uiso   1.00
C191   C     0.35026   0.05735   0.83198   0.00000  Uiso   1.00
C192   C     0.38560   0.08416   0.87000   0.00000  Uiso   1.00
C193   C     0.46469   0.13343   0.90743   0.00000  Uiso   1.00
C194   C     0.17622   0.07438   0.86677   0.00000  Uiso   1.00
C195   C     0.15331   0.13715   0.82863   0.00000  Uiso   1.00
C196   C     0.09857   0.20047   0.86512   0.00000  Uiso   1.00
C197   C     0.01153   0.31703   0.89973   0.00000  Uiso   1.00
C198   C     0.17883   0.00014   0.97004   0.00000  Uiso   1.00
C199   C     0.17708   0.89348   0.93982   0.00000  Uiso   1.00
C200   C     0.14887   0.80420   0.97722   0.00000  Uiso   1.00
C201   C     0.15241   0.71432   0.94000   0.00000  Uiso   1.00
C202   C     0.25255   0.03151   0.94062   0.00000  Uiso   1.00
C203   C     0.28780   0.05829   0.97870   0.00000  Uiso   1.00
C204   C     0.35488   0.08462   0.94216   0.00000  Uiso   1.00
C205   C     0.14555   0.07484   0.93880   0.00000  Uiso   1.00
C206   C     0.09084   0.13809   0.97536   0.00000  Uiso   1.00
C207   C     0.06785   0.20093   0.93728   0.00000  Uiso   1.00
H208   H     0.25916   0.99892   0.78134   0.00000  Uiso   1.00
H209   H     0.23506   0.80293   0.77475   0.00000  Uiso   1.00
H210   H     0.37397   0.05699   0.77623   0.00000  Uiso   1.00
H211   H     0.17705   0.13677   0.77289   0.00000  Uiso   1.00
H212   H     0.19485   0.58582   0.79921   0.00000  Uiso   1.00
H213   H     0.48774   0.12156   0.80234   0.00000  Uiso   1.00
H214   H     0.07249   0.28980   0.79528   0.00000  Uiso   1.00
H215   H     0.15496   0.00050   0.02612   0.00000  Uiso   1.00
H216   H     0.12514   0.80458   0.03296   0.00000  Uiso   1.00
H217   H     0.26405   0.05865   0.03444   0.00000  Uiso   1.00
H218   H     0.06713   0.13843   0.03110   0.00000  Uiso   1.00
H219   H     0.10564   0.58716   0.00879   0.00000  Uiso   1.00
H220   H     0.39853   0.12291   0.01191   0.00000  Uiso   1.00
H221   H     0.98327   0.29114   0.00486   0.00000  Uiso   1.00
O222   O     0.13253   0.45758   0.90409   0.00000  Uiso   1.00
O223   O     0.51679   0.16047   0.90818   0.00000  Uiso   1.00
O224   O     0.97198   0.38118   0.89893   0.00000  Uiso   1.00
N225   N     0.17793   0.61303   0.84760   0.00000  Uiso   1.00
N226   N     0.45177   0.11390   0.85052   0.00000  Uiso   1.00
N227   N     0.06356   0.27121   0.84392   0.00000  Uiso   1.00
N228   N     0.12993   0.61375   0.96037   0.00000  Uiso   1.00
N229   N     0.40377   0.11462   0.96329   0.00000  Uiso   1.00
N230   N     0.01555   0.27193   0.95669   0.00000  Uiso   1.00
C231   C     0.73528   0.49928   0.83742   0.00000  Uiso   1.00
C232   C     0.70774   0.39301   0.86778   0.00000  Uiso   1.00
C233   C     0.71132   0.30326   0.83050   0.00000  Uiso   1.00
C234   C     0.68313   0.21386   0.86783   0.00000  Uiso   1.00
C235   C     0.64505   0.04877   0.90402   0.00000  Uiso   1.00
C236   C     0.78321   0.53104   0.86859   0.00000  Uiso   1.00
C237   C     0.85026   0.55735   0.83198   0.00000  Uiso   1.00
C238   C     0.88560   0.58416   0.87000   0.00000  Uiso   1.00
C239   C     0.96469   0.63343   0.90743   0.00000  Uiso   1.00
C240   C     0.67622   0.57438   0.86677   0.00000  Uiso   1.00
C241   C     0.65331   0.63715   0.82863   0.00000  Uiso   1.00
C242   C     0.59857   0.70047   0.86512   0.00000  Uiso   1.00
C243   C     0.51153   0.81703   0.89973   0.00000  Uiso   1.00
C244   C     0.67883   0.50014   0.97004   0.00000  Uiso   1.00
C245   C     0.67708   0.39348   0.93982   0.00000  Uiso   1.00
C246   C     0.64887   0.30420   0.97722   0.00000  Uiso   1.00
C247   C     0.65241   0.21432   0.94000   0.00000  Uiso   1.00
C248   C     0.75255   0.53151   0.94062   0.00000  Uiso   1.00
C249   C     0.78780   0.55829   0.97870   0.00000  Uiso   1.00
C250   C     0.85488   0.58462   0.94216   0.00000  Uiso   1.00
C251   C     0.64555   0.57484   0.93880   0.00000  Uiso   1.00
C252   C     0.59084   0.63809   0.97536   0.00000  Uiso   1.00
C253   C     0.56785   0.70093   0.93728   0.00000  Uiso   1.00
H254   H     0.75916   0.49892   0.78134   0.00000  Uiso   1.00
H255   H     0.73506   0.30293   0.77475   0.00000  Uiso   1.00
H256   H     0.87397   0.55699   0.77623   0.00000  Uiso   1.00
H257   H     0.67705   0.63677   0.77289   0.00000  Uiso   1.00
H258   H     0.69485   0.08582   0.79921   0.00000  Uiso   1.00
H259   H     0.98774   0.62156   0.80234   0.00000  Uiso   1.00
H260   H     0.57249   0.78980   0.79528   0.00000  Uiso   1.00
H261   H     0.65496   0.50050   0.02612   0.00000  Uiso   1.00
H262   H     0.62514   0.30458   0.03296   0.00000  Uiso   1.00
H263   H     0.76405   0.55865   0.03444   0.00000  Uiso   1.00
H264   H     0.56713   0.63843   0.03110   0.00000  Uiso   1.00
H265   H     0.60564   0.08716   0.00879   0.00000  Uiso   1.00
H266   H     0.89853   0.62291   0.01191   0.00000  Uiso   1.00
H267   H     0.48327   0.79114   0.00486   0.00000  Uiso   1.00
O268   O     0.63253   0.95758   0.90409   0.00000  Uiso   1.00
O269   O     0.01679   0.66047   0.90818   0.00000  Uiso   1.00
O270   O     0.47198   0.88118   0.89893   0.00000  Uiso   1.00
N271   N     0.67793   0.11303   0.84760   0.00000  Uiso   1.00
N272   N     0.95177   0.61390   0.85052   0.00000  Uiso   1.00
N273   N     0.56356   0.77121   0.84392   0.00000  Uiso   1.00
N274   N     0.62993   0.11375   0.96037   0.00000  Uiso   1.00
N275   N     0.90377   0.61462   0.96329   0.00000  Uiso   1.00
N276   N     0.51555   0.77193   0.95669   0.00000  Uiso   1.00
C277   C     0.76472   0.99928   0.66258   0.00000  Uiso   1.00
C278   C     0.79226   0.89301   0.63222   0.00000  Uiso   1.00
C279   C     0.78868   0.80326   0.66950   0.00000  Uiso   1.00
C280   C     0.81687   0.71386   0.63217   0.00000  Uiso   1.00
C281   C     0.85495   0.54877   0.59598   0.00000  Uiso   1.00
C282   C     0.71679   0.03104   0.63141   0.00000  Uiso   1.00
C283   C     0.64974   0.05735   0.66802   0.00000  Uiso   1.00
C284   C     0.61440   0.08416   0.63000   0.00000  Uiso   1.00
C285   C     0.53531   0.13343   0.59257   0.00000  Uiso   1.00
C286   C     0.82378   0.07438   0.63323   0.00000  Uiso   1.00
C287   C     0.84669   0.13715   0.67137   0.00000  Uiso   1.00
C288   C     0.90143   0.20047   0.63488   0.00000  Uiso   1.00
C289   C     0.98847   0.31703   0.60027   0.00000  Uiso   1.00
C290   C     0.82117   0.00014   0.52996   0.00000  Uiso   1.00
C291   C     0.82292   0.89348   0.56018   0.00000  Uiso   1.00
C292   C     0.85113   0.80420   0.52278   0.00000  Uiso   1.00
C293   C     0.84759   0.71432   0.56000   0.00000  Uiso   1.00
C294   C     0.74745   0.03151   0.55938   0.00000  Uiso   1.00
C295   C     0.71220   0.05829   0.52130   0.00000  Uiso   1.00
C296   C     0.64512   0.08462   0.55784   0.00000  Uiso   1.00
C297   C     0.85445   0.07484   0.56120   0.00000  Uiso   1.00
C298   C     0.90916   0.13809   0.52464   0.00000  Uiso   1.00
C299   C     0.93215   0.20093   0.56272   0.00000  Uiso   1.00
H300   H     0.74084   0.99892   0.71866   0.00000  Uiso   1.00
H301   H     0.76494   0.80293   0.72525   0.00000  Uiso   1.00
H302   H     0.62603   0.05699   0.72377   0.00000  Uiso   1.00
H303   H     0.82295   0.13677   0.72711   0.00000  Uiso   1.00
H304   H     0.80515   0.58582   0.70079   0.00000  Uiso   1.00
H305   H     0.51226   0.12156   0.69766   0.00000  Uiso   1.00
H306   H     0.92751   0.28980   0.70472   0.00000  Uiso   1.00
H307   H     0.84504   0.00050   0.47388   0.00000  Uiso   1.00
H308   H     0.87486   0.80458   0.46704   0.00000  Uiso   1.00
H309   H     0.73595   0.05865   0.46556   0.00000  Uiso   1.00
H310   H     0.93287   0.13843   0.46890   0.00000  Uiso   1.00
H311   H     0.89436   0.58716   0.49121   0.00000  Uiso   1.00
H312   H     0.60147   0.12291   0.48809   0.00000  Uiso   1.00
H313   H     0.01673   0.29114   0.49514   0.00000  Uiso   1.00
O314   O     0.86747   0.45758   0.59591   0.00000  Uiso   1.00
O315   O     0.48321   0.16047   0.59182   0.00000  Uiso   1.00
O316   O     0.02802   0.38118   0.60107   0.00000  Uiso   1.00
N317   N     0.82207   0.61303   0.65240   0.00000  Uiso   1.00
N318   N     0.54823   0.11390   0.64948   0.00000  Uiso   1.00
N319   N     0.93644   0.27121   0.65608   0.00000  Uiso   1.00
N320   N     0.87007   0.61375   0.53963   0.00000  Uiso   1.00
N321   N     0.59623   0.11462   0.53671   0.00000  Uiso   1.00
N322   N     0.98445   0.27193   0.54331   0.00000  Uiso   1.00
C323   C     0.26472   0.49928   0.66258   0.00000  Uiso   1.00
C324   C     0.29226   0.39301   0.63222   0.00000  Uiso   1.00
C325   C     0.28868   0.30326   0.66950   0.00000  Uiso   1.00
C326   C     0.31687   0.21386   0.63217   0.00000  Uiso   1.00
C327   C     0.35495   0.04877   0.59598   0.00000  Uiso   1.00
C328   C     0.21679   0.53104   0.63141   0.00000  Uiso   1.00
C329   C     0.14974   0.55735   0.66802   0.00000  Uiso   1.00
C330   C     0.11440   0.58416   0.63000   0.00000  Uiso   1.00
C331   C     0.03531   0.63343   0.59257   0.00000  Uiso   1.00
C332   C     0.32378   0.57438   0.63323   0.00000  Uiso   1.00
C333   C     0.34669   0.63715   0.67137   0.00000  Uiso   1.00
C334   C     0.40143   0.70047   0.63488   0.00000  Uiso   1.00
C335   C     0.48847   0.81703   0.60027   0.00000  Uiso   1.00
C336   C     0.32117   0.50014   0.52996   0.00000  Uiso   1.00
C337   C     0.32292   0.39348   0.56018   0.00000  Uiso   1.00
C338   C     0.35113   0.30420   0.52278   0.00000  Uiso   1.00
C339   C     0.34759   0.21432   0.56000   0.00000  Uiso   1.00
C340   C     0.24745   0.53151   0.55938   0.00000  Uiso   1.00
C341   C     0.21220   0.55829   0.52130   0.00000  Uiso   1.00
C342   C     0.14512   0.58462   0.55784   0.00000  Uiso   1.00
C343   C     0.35445   0.57484   0.56120   0.00000  Uiso   1.00
C344   C     0.40916   0.63809   0.52464   0.00000  Uiso   1.00
C345   C     0.43215   0.70093   0.56272   0.00000  Uiso   1.00
H346   H     0.24084   0.49892   0.71866   0.00000  Uiso   1.00
H347   H     0.26494   0.30293   0.72525   0.00000  Uiso   1.00
H348   H     0.12603   0.55699   0.72377   0.00000  Uiso   1.00
H349   H     0.32295   0.63677   0.72711   0.00000  Uiso   1.00
H350   H     0.30515   0.08582   0.70079   0.00000  Uiso   1.00
H351   H     0.01226   0.62156   0.69766   0.00000  Uiso   1.00
H352   H     0.42751   0.78980   0.70472   0.00000  Uiso   1.00
H353   H     0.34504   0.50050   0.47388   0.00000  Uiso   1.00
H354   H     0.37486   0.30458   0.46704   0.00000  Uiso   1.00
H355   H     0.23595   0.55865   0.46556   0.00000  Uiso   1.00
H356   H     0.43287   0.63843   0.46890   0.00000  Uiso   1.00
H357   H     0.39436   0.08716   0.49121   0.00000  Uiso   1.00
H358   H     0.10147   0.62291   0.48809   0.00000  Uiso   1.00
H359   H     0.51673   0.79114   0.49514   0.00000  Uiso   1.00
O360   O     0.36747   0.95758   0.59591   0.00000  Uiso   1.00
O361   O     0.98321   0.66047   0.59182   0.00000  Uiso   1.00
O362   O     0.52802   0.88118   0.60107   0.00000  Uiso   1.00
N363   N     0.32207   0.11303   0.65240   0.00000  Uiso   1.00
N364   N     0.04823   0.61390   0.64948   0.00000  Uiso   1.00
N365   N     0.43644   0.77121   0.65608   0.00000  Uiso   1.00
N366   N     0.37007   0.11375   0.53963   0.00000  Uiso   1.00
N367   N     0.09623   0.61462   0.53671   0.00000  Uiso   1.00
N368   N     0.48445   0.77193   0.54331   0.00000  Uiso   1.00
