data_job_06468
_audit_creation_date              2018-12-19
_audit_creation_method            'Materials Studio'
_symmetry_space_group_name_H-M    'P1'
_symmetry_Int_Tables_number       1
_symmetry_cell_setting            triclinic
loop_
_symmetry_equiv_pos_as_xyz
  x,y,z
_cell_length_a                    17.0734
_cell_length_b                    19.8592
_cell_length_c                    25.0261
_cell_angle_alpha                 71.5412
_cell_angle_beta                  83.6510
_cell_angle_gamma                 110.8853
loop_
_atom_site_label
_atom_site_type_symbol
_atom_site_fract_x
_atom_site_fract_y
_atom_site_fract_z
_atom_site_U_iso_or_equiv
_atom_site_adp_type
_atom_site_occupancy
C1     C     0.71129   0.53486   0.39371   0.00000  Uiso   1.00
C2     C     0.69779   0.52553   0.45735   0.00000  Uiso   1.00
C3     C     0.67307   0.57204   0.48040   0.00000  Uiso   1.00
C4     C     0.66423   0.55401   0.53968   0.00000  Uiso   1.00
C5     C     0.64098   0.54903   0.63318   0.00000  Uiso   1.00
C6     C     0.80356   0.54381   0.37431   0.00000  Uiso   1.00
C7     C     0.86775   0.60569   0.32755   0.00000  Uiso   1.00
C8     C     0.94794   0.60303   0.31694   0.00000  Uiso   1.00
C9     C     0.08887   0.62641   0.28150   0.00000  Uiso   1.00
C10    C     0.65190   0.45661   0.39351   0.00000  Uiso   1.00
C11    C     0.58859   0.44517   0.36288   0.00000  Uiso   1.00
C12    C     0.54111   0.36910   0.36842   0.00000  Uiso   1.00
C13    C     0.44657   0.25708   0.36280   0.00000  Uiso   1.00
C14    C     0.73956   0.42012   0.45799   0.00000  Uiso   1.00
C15    C     0.71315   0.46321   0.49226   0.00000  Uiso   1.00
C16    C     0.70435   0.44510   0.55152   0.00000  Uiso   1.00
C17    C     0.67961   0.49158   0.57466   0.00000  Uiso   1.00
C18    C     0.81892   0.48150   0.40923   0.00000  Uiso   1.00
C19    C     0.89903   0.47875   0.39868   0.00000  Uiso   1.00
C20    C     0.96333   0.54060   0.35191   0.00000  Uiso   1.00
C21    C     0.66725   0.39429   0.42843   0.00000  Uiso   1.00
C22    C     0.61987   0.31823   0.43401   0.00000  Uiso   1.00
C23    C     0.55650   0.30667   0.40340   0.00000  Uiso   1.00
H24    H     0.69934   0.58338   0.36652   0.00000  Uiso   1.00
H25    H     0.66120   0.62027   0.45336   0.00000  Uiso   1.00
H26    H     0.85584   0.65390   0.30054   0.00000  Uiso   1.00
H27    H     0.57673   0.49341   0.33587   0.00000  Uiso   1.00
H28    H     0.62571   0.63371   0.56504   0.00000  Uiso   1.00
H29    H     0.03613   0.70461   0.24278   0.00000  Uiso   1.00
H30    H     0.44755   0.36618   0.31728   0.00000  Uiso   1.00
H31    H     0.75152   0.37161   0.48518   0.00000  Uiso   1.00
H32    H     0.71624   0.39687   0.57853   0.00000  Uiso   1.00
H33    H     0.91089   0.43051   0.42571   0.00000  Uiso   1.00
H34    H     0.63177   0.27002   0.46104   0.00000  Uiso   1.00
H35    H     0.67039   0.45239   0.66663   0.00000  Uiso   1.00
H36    H     0.08081   0.52330   0.34437   0.00000  Uiso   1.00
H37    H     0.49223   0.18486   0.41888   0.00000  Uiso   1.00
O38    O     0.62393   0.56351   0.67510   0.00000  Uiso   1.00
O39    O     0.16237   0.65652   0.25231   0.00000  Uiso   1.00
O40    O     0.39017   0.21251   0.35006   0.00000  Uiso   1.00
N41    N     0.64105   0.58756   0.57614   0.00000  Uiso   1.00
N42    N     0.02477   0.65385   0.27485   0.00000  Uiso   1.00
N43    N     0.47452   0.33745   0.34449   0.00000  Uiso   1.00
N44    N     0.66509   0.48999   0.63080   0.00000  Uiso   1.00
N45    N     0.04881   0.55629   0.32952   0.00000  Uiso   1.00
N46    N     0.49856   0.23989   0.39916   0.00000  Uiso   1.00
C47    C     0.84400   0.91892   0.40842   0.00000  Uiso   1.00
C48    C     0.85958   0.88096   0.46712   0.00000  Uiso   1.00
C49    C     0.93854   0.88254   0.47689   0.00000  Uiso   1.00
C50    C     0.93930   0.84428   0.53373   0.00000  Uiso   1.00
C51    C     0.97498   0.79115   0.61797   0.00000  Uiso   1.00
C52    C     0.77338   0.85383   0.39898   0.00000  Uiso   1.00
C53    C     0.77987   0.83261   0.35145   0.00000  Uiso   1.00
C54    C     0.70807   0.77153   0.35093   0.00000  Uiso   1.00
C55    C     0.60990   0.67632   0.32936   0.00000  Uiso   1.00
C56    C     0.80374   0.97350   0.41642   0.00000  Uiso   1.00
C57    C     0.83574   0.05289   0.38355   0.00000  Uiso   1.00
C58    C     0.78948   0.09255   0.39771   0.00000  Uiso   1.00
C59    C     0.73845   0.18313   0.40322   0.00000  Uiso   1.00
C60    C     0.70494   0.84819   0.49199   0.00000  Uiso   1.00
C61    C     0.78405   0.84254   0.51251   0.00000  Uiso   1.00
C62    C     0.78469   0.80428   0.56936   0.00000  Uiso   1.00
C63    C     0.86364   0.80580   0.57921   0.00000  Uiso   1.00
C64    C     0.69785   0.81541   0.44437   0.00000  Uiso   1.00
C65    C     0.62602   0.75435   0.44392   0.00000  Uiso   1.00
C66    C     0.63240   0.73304   0.39641   0.00000  Uiso   1.00
C67    C     0.72821   0.93508   0.46182   0.00000  Uiso   1.00
C68    C     0.68189   0.97462   0.47602   0.00000  Uiso   1.00
C69    C     0.71382   0.05406   0.44318   0.00000  Uiso   1.00
H70    H     0.90280   0.94883   0.37308   0.00000  Uiso   1.00
H71    H     0.99697   0.91227   0.44175   0.00000  Uiso   1.00
H72    H     0.83832   0.86236   0.31633   0.00000  Uiso   1.00
H73    H     0.89419   0.08260   0.34843   0.00000  Uiso   1.00
H74    H     0.06807   0.85477   0.53790   0.00000  Uiso   1.00
H75    H     0.73354   0.74955   0.27344   0.00000  Uiso   1.00
H76    H     0.85134   0.21396   0.34112   0.00000  Uiso   1.00
H77    H     0.64614   0.81827   0.52733   0.00000  Uiso   1.00
H78    H     0.72623   0.77455   0.60447   0.00000  Uiso   1.00
H79    H     0.56758   0.72464   0.47905   0.00000  Uiso   1.00
H80    H     0.62345   0.94487   0.51115   0.00000  Uiso   1.00
H81    H     0.84833   0.74298   0.66997   0.00000  Uiso   1.00
H82    H     0.51380   0.63776   0.40551   0.00000  Uiso   1.00
H83    H     0.63160   0.10217   0.47320   0.00000  Uiso   1.00
O84    O     0.01551   0.77244   0.65189   0.00000  Uiso   1.00
O85    O     0.57662   0.63441   0.30493   0.00000  Uiso   1.00
O86    O     0.73117   0.24371   0.39373   0.00000  Uiso   1.00
N87    N     0.00537   0.83447   0.55840   0.00000  Uiso   1.00
N88    N     0.69261   0.73609   0.31115   0.00000  Uiso   1.00
N89    N     0.80273   0.17027   0.37442   0.00000  Uiso   1.00
N90    N     0.88712   0.77432   0.62947   0.00000  Uiso   1.00
N91    N     0.57436   0.67594   0.38222   0.00000  Uiso   1.00
N92    N     0.68448   0.11012   0.44548   0.00000  Uiso   1.00
C93    C     0.14616   0.81966   0.34171   0.00000  Uiso   1.00
C94    C     0.09970   0.76955   0.40560   0.00000  Uiso   1.00
C95    C     0.01837   0.70776   0.42631   0.00000  Uiso   1.00
C96    C     0.98718   0.66927   0.48629   0.00000  Uiso   1.00
C97    C     0.90766   0.58806   0.57975   0.00000  Uiso   1.00
C98    C     0.16679   0.90372   0.33482   0.00000  Uiso   1.00
C99    C     0.14188   0.95473   0.29600   0.00000  Uiso   1.00
C100   C     0.16718   0.02918   0.29640   0.00000  Uiso   1.00
C101   C     0.19187   0.15628   0.27993   0.00000  Uiso   1.00
C102   C     0.23312   0.81418   0.33246   0.00000  Uiso   1.00
C103   C     0.26399   0.78992   0.29166   0.00000  Uiso   1.00
C104   C     0.34515   0.78901   0.29006   0.00000  Uiso   1.00
C105   C     0.47282   0.77709   0.26994   0.00000  Uiso   1.00
C106   C     0.23539   0.86119   0.41141   0.00000  Uiso   1.00
C107   C     0.14817   0.79212   0.44346   0.00000  Uiso   1.00
C108   C     0.11710   0.75371   0.50343   0.00000  Uiso   1.00
C109   C     0.03574   0.69187   0.52422   0.00000  Uiso   1.00
C110   C     0.21526   0.92628   0.37268   0.00000  Uiso   1.00
C111   C     0.24061   0.00068   0.37312   0.00000  Uiso   1.00
C112   C     0.21573   0.05178   0.33432   0.00000  Uiso   1.00
C113   C     0.28159   0.83674   0.37033   0.00000  Uiso   1.00
C114   C     0.36272   0.83587   0.36878   0.00000  Uiso   1.00
C115   C     0.39371   0.81161   0.32799   0.00000  Uiso   1.00
H116   H     0.10842   0.80210   0.31223   0.00000  Uiso   1.00
H117   H     0.98088   0.69032   0.39700   0.00000  Uiso   1.00
H118   H     0.10438   0.93725   0.26671   0.00000  Uiso   1.00
H119   H     0.22647   0.77247   0.26237   0.00000  Uiso   1.00
H120   H     0.86083   0.57636   0.50767   0.00000  Uiso   1.00
H121   H     0.12126   0.09703   0.23294   0.00000  Uiso   1.00
H122   H     0.37872   0.74956   0.22379   0.00000  Uiso   1.00
H123   H     0.27313   0.87876   0.44089   0.00000  Uiso   1.00
H124   H     0.15463   0.77118   0.53272   0.00000  Uiso   1.00
H125   H     0.27812   0.01812   0.40243   0.00000  Uiso   1.00
H126   H     0.40021   0.85333   0.39809   0.00000  Uiso   1.00
H127   H     0.00185   0.64199   0.61783   0.00000  Uiso   1.00
H128   H     0.26228   0.16267   0.34309   0.00000  Uiso   1.00
H129   H     0.51973   0.81519   0.33395   0.00000  Uiso   1.00
O130   O     0.85040   0.53704   0.62084   0.00000  Uiso   1.00
O131   O     0.19209   0.22015   0.26039   0.00000  Uiso   1.00
O132   O     0.52985   0.76427   0.24839   0.00000  Uiso   1.00
N133   N     0.91029   0.60656   0.52100   0.00000  Uiso   1.00
N134   N     0.15376   0.09336   0.26414   0.00000  Uiso   1.00
N135   N     0.39447   0.76852   0.25558   0.00000  Uiso   1.00
N136   N     0.98618   0.64188   0.58027   0.00000  Uiso   1.00
N137   N     0.22965   0.12867   0.32341   0.00000  Uiso   1.00
N138   N     0.47035   0.80383   0.31485   0.00000  Uiso   1.00
C139   C     0.03870   0.72460   0.86515   0.00000  Uiso   1.00
C140   C     0.06167   0.68873   0.92134   0.00000  Uiso   1.00
C141   C     0.07558   0.62115   0.93764   0.00000  Uiso   1.00
C142   C     0.09596   0.59798   0.99073   0.00000  Uiso   1.00
C143   C     0.13073   0.53577   0.07256   0.00000  Uiso   1.00
C144   C     0.10786   0.80807   0.83530   0.00000  Uiso   1.00
C145   C     0.16060   0.84083   0.77926   0.00000  Uiso   1.00
C146   C     0.21985   0.91812   0.75992   0.00000  Uiso   1.00
C147   C     0.32629   0.04121   0.70816   0.00000  Uiso   1.00
C148   C     0.95441   0.73116   0.88357   0.00000  Uiso   1.00
C149   C     0.87812   0.69926   0.86811   0.00000  Uiso   1.00
C150   C     0.80817   0.71181   0.88941   0.00000  Uiso   1.00
C151   C     0.67635   0.71548   0.91260   0.00000  Uiso   1.00
C152   C     0.05015   0.80362   0.93046   0.00000  Uiso   1.00
C153   C     0.06790   0.73165   0.95681   0.00000  Uiso   1.00
C154   C     0.08825   0.70857   0.00989   0.00000  Uiso   1.00
C155   C     0.10218   0.64097   0.02627   0.00000  Uiso   1.00
C156   C     0.11409   0.85099   0.87077   0.00000  Uiso   1.00
C157   C     0.17327   0.92825   0.85151   0.00000  Uiso   1.00
C158   C     0.22608   0.96112   0.79546   0.00000  Uiso   1.00
C159   C     0.96063   0.77407   0.91905   0.00000  Uiso   1.00
C160   C     0.89079   0.78668   0.94037   0.00000  Uiso   1.00
C161   C     0.81440   0.75481   0.92494   0.00000  Uiso   1.00
H162   H     0.03386   0.69120   0.83753   0.00000  Uiso   1.00
H163   H     0.07077   0.58796   0.91017   0.00000  Uiso   1.00
H164   H     0.15576   0.80761   0.75181   0.00000  Uiso   1.00
H165   H     0.87333   0.66606   0.84066   0.00000  Uiso   1.00
H166   H     0.11447   0.49245   0.00634   0.00000  Uiso   1.00
H167   H     0.29366   0.95559   0.67243   0.00000  Uiso   1.00
H168   H     0.69809   0.65711   0.85976   0.00000  Uiso   1.00
H169   H     0.05499   0.83703   0.95808   0.00000  Uiso   1.00
H170   H     0.09306   0.74180   0.03733   0.00000  Uiso   1.00
H171   H     0.17806   0.96144   0.87897   0.00000  Uiso   1.00
H172   H     0.89562   0.81989   0.96782   0.00000  Uiso   1.00
H173   H     0.13257   0.61731   0.10955   0.00000  Uiso   1.00
H174   H     0.31176   0.08046   0.77563   0.00000  Uiso   1.00
H175   H     0.71619   0.78197   0.96297   0.00000  Uiso   1.00
O176   O     0.14821   0.48961   0.10790   0.00000  Uiso   1.00
O177   O     0.38329   0.09724   0.66981   0.00000  Uiso   1.00
O178   O     0.60192   0.70564   0.91560   0.00000  Uiso   1.00
N179   N     0.11348   0.53489   0.01976   0.00000  Uiso   1.00
N180   N     0.28103   0.96791   0.70757   0.00000  Uiso   1.00
N181   N     0.72423   0.68887   0.88270   0.00000  Uiso   1.00
N182   N     0.12322   0.60208   0.07529   0.00000  Uiso   1.00
N183   N     0.29077   0.03509   0.76311   0.00000  Uiso   1.00
N184   N     0.73397   0.75605   0.93824   0.00000  Uiso   1.00
C185   C     0.32492   0.48803   0.82621   0.00000  Uiso   1.00
C186   C     0.32503   0.49824   0.88409   0.00000  Uiso   1.00
C187   C     0.39457   0.54778   0.89675   0.00000  Uiso   1.00
C188   C     0.38163   0.54871   0.95222   0.00000  Uiso   1.00
C189   C     0.39390   0.57172   0.03581   0.00000  Uiso   1.00
C190   C     0.25051   0.50537   0.80625   0.00000  Uiso   1.00
C191   C     0.25739   0.56091   0.75346   0.00000  Uiso   1.00
C192   C     0.18172   0.56782   0.74341   0.00000  Uiso   1.00
C193   C     0.07829   0.60187   0.70613   0.00000  Uiso   1.00
C194   C     0.29874   0.40124   0.84037   0.00000  Uiso   1.00
C195   C     0.34616   0.36922   0.81626   0.00000  Uiso   1.00
C196   C     0.31109   0.28846   0.83493   0.00000  Uiso   1.00
C197   C     0.28254   0.16083   0.85063   0.00000  Uiso   1.00
C198   C     0.17829   0.40155   0.90222   0.00000  Uiso   1.00
C199   C     0.24538   0.45126   0.92537   0.00000  Uiso   1.00
C200   C     0.23234   0.45211   0.98084   0.00000  Uiso   1.00
C201   C     0.30185   0.50165   0.99358   0.00000  Uiso   1.00
C202   C     0.17087   0.45840   0.84753   0.00000  Uiso   1.00
C203   C     0.09517   0.46523   0.83756   0.00000  Uiso   1.00
C204   C     0.10193   0.52076   0.78477   0.00000  Uiso   1.00
C205   C     0.21910   0.35426   0.88166   0.00000  Uiso   1.00
C206   C     0.18394   0.27354   0.90036   0.00000  Uiso   1.00
C207   C     0.23130   0.24141   0.87629   0.00000  Uiso   1.00
H208   H     0.38692   0.52460   0.79407   0.00000  Uiso   1.00
H209   H     0.45619   0.58413   0.86479   0.00000  Uiso   1.00
H210   H     0.31903   0.59724   0.72152   0.00000  Uiso   1.00
H211   H     0.40779   0.40559   0.78432   0.00000  Uiso   1.00
H212   H     0.49785   0.62944   0.96139   0.00000  Uiso   1.00
H213   H     0.20865   0.65706   0.65930   0.00000  Uiso   1.00
H214   H     0.39581   0.25292   0.79171   0.00000  Uiso   1.00
H215   H     0.11628   0.36498   0.93436   0.00000  Uiso   1.00
H216   H     0.17070   0.41575   0.01278   0.00000  Uiso   1.00
H217   H     0.03354   0.42886   0.86951   0.00000  Uiso   1.00
H218   H     0.12230   0.23721   0.93231   0.00000  Uiso   1.00
H219   H     0.26614   0.49278   0.08151   0.00000  Uiso   1.00
H220   H     0.97693   0.52040   0.77941   0.00000  Uiso   1.00
H221   H     0.16410   0.11626   0.91183   0.00000  Uiso   1.00
O222   O     0.42266   0.59740   0.07050   0.00000  Uiso   1.00
O223   O     0.04324   0.63364   0.67416   0.00000  Uiso   1.00
O224   O     0.28880   0.10341   0.84789   0.00000  Uiso   1.00
N225   N     0.43585   0.59030   0.97890   0.00000  Uiso   1.00
N226   N     0.16547   0.61613   0.69647   0.00000  Uiso   1.00
N227   N     0.34044   0.23829   0.82025   0.00000  Uiso   1.00
N228   N     0.31117   0.51676   0.04354   0.00000  Uiso   1.00
N229   N     0.04078   0.54259   0.76110   0.00000  Uiso   1.00
N230   N     0.21576   0.16476   0.88489   0.00000  Uiso   1.00
C231   C     0.53573   0.00054   0.84994   0.00000  Uiso   1.00
C232   C     0.48610   0.92809   0.90551   0.00000  Uiso   1.00
C233   C     0.41282   0.91476   0.94471   0.00000  Uiso   1.00
C234   C     0.37694   0.84483   0.99290   0.00000  Uiso   1.00
C235   C     0.29434   0.74061   0.07786   0.00000  Uiso   1.00
C236   C     0.53770   0.97133   0.80053   0.00000  Uiso   1.00
C237   C     0.50783   0.99436   0.75147   0.00000  Uiso   1.00
C238   C     0.51540   0.96084   0.71129   0.00000  Uiso   1.00
C239   C     0.51299   0.92379   0.63326   0.00000  Uiso   1.00
C240   C     0.62902   0.03336   0.85464   0.00000  Uiso   1.00
C241   C     0.67593   0.10855   0.85105   0.00000  Uiso   1.00
C242   C     0.76039   0.12726   0.85641   0.00000  Uiso   1.00
C243   C     0.89975   0.18652   0.86238   0.00000  Uiso   1.00
C244   C     0.60232   0.90007   0.86580   0.00000  Uiso   1.00
C245   C     0.52227   0.87351   0.91412   0.00000  Uiso   1.00
C246   C     0.48649   0.80359   0.96227   0.00000  Uiso   1.00
C247   C     0.41317   0.79016   0.00154   0.00000  Uiso   1.00
C248   C     0.57387   0.91675   0.80915   0.00000  Uiso   1.00
C249   C     0.58150   0.88319   0.76903   0.00000  Uiso   1.00
C250   C     0.55164   0.90616   0.71992   0.00000  Uiso   1.00
C251   C     0.66519   0.97878   0.86326   0.00000  Uiso   1.00
C252   C     0.74960   0.99738   0.86861   0.00000  Uiso   1.00
C253   C     0.79663   0.07259   0.86504   0.00000  Uiso   1.00
H254   H     0.50757   0.04303   0.84322   0.00000  Uiso   1.00
H255   H     0.38484   0.95701   0.93802   0.00000  Uiso   1.00
H256   H     0.47985   0.03660   0.74481   0.00000  Uiso   1.00
H257   H     0.64792   0.15077   0.84438   0.00000  Uiso   1.00
H258   H     0.26470   0.83755   0.04692   0.00000  Uiso   1.00
H259   H     0.46506   0.00540   0.63952   0.00000  Uiso   1.00
H260   H     0.81947   0.24615   0.84947   0.00000  Uiso   1.00
H261   H     0.63048   0.85758   0.87251   0.00000  Uiso   1.00
H262   H     0.51450   0.76137   0.96892   0.00000  Uiso   1.00
H263   H     0.60950   0.84096   0.77571   0.00000  Uiso   1.00
H264   H     0.77757   0.95513   0.87528   0.00000  Uiso   1.00
H265   H     0.36993   0.67876   0.07199   0.00000  Uiso   1.00
H266   H     0.57029   0.84661   0.66459   0.00000  Uiso   1.00
H267   H     0.92470   0.08736   0.87455   0.00000  Uiso   1.00
O268   O     0.23878   0.69820   0.12234   0.00000  Uiso   1.00
O269   O     0.50165   0.91842   0.58784   0.00000  Uiso   1.00
O270   O     0.96662   0.23428   0.86330   0.00000  Uiso   1.00
N271   N     0.30540   0.81339   0.03959   0.00000  Uiso   1.00
N272   N     0.49270   0.97031   0.65870   0.00000  Uiso   1.00
N273   N     0.82405   0.19540   0.85498   0.00000  Uiso   1.00
N274   N     0.36202   0.72794   0.05309   0.00000  Uiso   1.00
N275   N     0.54933   0.88486   0.67220   0.00000  Uiso   1.00
N276   N     0.88068   0.10996   0.86847   0.00000  Uiso   1.00
C277   C     0.28871   0.46514   0.60629   0.00000  Uiso   1.00
C278   C     0.30221   0.47447   0.54265   0.00000  Uiso   1.00
C279   C     0.32693   0.42796   0.51960   0.00000  Uiso   1.00
C280   C     0.33577   0.44599   0.46032   0.00000  Uiso   1.00
C281   C     0.35902   0.45097   0.36682   0.00000  Uiso   1.00
C282   C     0.19644   0.45619   0.62569   0.00000  Uiso   1.00
C283   C     0.13225   0.39431   0.67245   0.00000  Uiso   1.00
C284   C     0.05206   0.39697   0.68306   0.00000  Uiso   1.00
C285   C     0.91113   0.37359   0.71850   0.00000  Uiso   1.00
C286   C     0.34810   0.54339   0.60649   0.00000  Uiso   1.00
C287   C     0.41141   0.55483   0.63712   0.00000  Uiso   1.00
C288   C     0.45889   0.63090   0.63158   0.00000  Uiso   1.00
C289   C     0.55343   0.74292   0.63720   0.00000  Uiso   1.00
C290   C     0.26044   0.57988   0.54201   0.00000  Uiso   1.00
C291   C     0.28685   0.53679   0.50774   0.00000  Uiso   1.00
C292   C     0.29565   0.55490   0.44848   0.00000  Uiso   1.00
C293   C     0.32039   0.50842   0.42534   0.00000  Uiso   1.00
C294   C     0.18108   0.51850   0.59077   0.00000  Uiso   1.00
C295   C     0.10097   0.52125   0.60132   0.00000  Uiso   1.00
C296   C     0.03667   0.45940   0.64809   0.00000  Uiso   1.00
C297   C     0.33275   0.60571   0.57157   0.00000  Uiso   1.00
C298   C     0.38013   0.68177   0.56599   0.00000  Uiso   1.00
C299   C     0.44350   0.69333   0.59660   0.00000  Uiso   1.00
H300   H     0.30066   0.41662   0.63348   0.00000  Uiso   1.00
H301   H     0.33880   0.37973   0.54664   0.00000  Uiso   1.00
H302   H     0.14416   0.34610   0.69946   0.00000  Uiso   1.00
H303   H     0.42327   0.50659   0.66413   0.00000  Uiso   1.00
H304   H     0.37429   0.36629   0.43496   0.00000  Uiso   1.00
H305   H     0.96387   0.29539   0.75722   0.00000  Uiso   1.00
H306   H     0.55245   0.63382   0.68272   0.00000  Uiso   1.00
H307   H     0.24848   0.62839   0.51482   0.00000  Uiso   1.00
H308   H     0.28376   0.60313   0.42147   0.00000  Uiso   1.00
H309   H     0.08911   0.56949   0.57429   0.00000  Uiso   1.00
H310   H     0.36823   0.72998   0.53896   0.00000  Uiso   1.00
H311   H     0.32961   0.54761   0.33337   0.00000  Uiso   1.00
H312   H     0.91919   0.47670   0.65563   0.00000  Uiso   1.00
H313   H     0.50777   0.81514   0.58112   0.00000  Uiso   1.00
O314   O     0.37607   0.43649   0.32490   0.00000  Uiso   1.00
O315   O     0.83763   0.34348   0.74769   0.00000  Uiso   1.00
O316   O     0.60983   0.78749   0.64994   0.00000  Uiso   1.00
N317   N     0.35895   0.41244   0.42386   0.00000  Uiso   1.00
N318   N     0.97523   0.34615   0.72515   0.00000  Uiso   1.00
N319   N     0.52548   0.66255   0.65551   0.00000  Uiso   1.00
N320   N     0.33491   0.51001   0.36920   0.00000  Uiso   1.00
N321   N     0.95119   0.44371   0.67048   0.00000  Uiso   1.00
N322   N     0.50144   0.76011   0.60084   0.00000  Uiso   1.00
C323   C     0.15600   0.08108   0.59158   0.00000  Uiso   1.00
C324   C     0.14042   0.11904   0.53288   0.00000  Uiso   1.00
C325   C     0.06146   0.11746   0.52311   0.00000  Uiso   1.00
C326   C     0.06070   0.15572   0.46627   0.00000  Uiso   1.00
C327   C     0.02502   0.20885   0.38203   0.00000  Uiso   1.00
C328   C     0.22662   0.14617   0.60102   0.00000  Uiso   1.00
C329   C     0.22013   0.16739   0.64855   0.00000  Uiso   1.00
C330   C     0.29193   0.22847   0.64907   0.00000  Uiso   1.00
C331   C     0.39010   0.32368   0.67064   0.00000  Uiso   1.00
C332   C     0.19626   0.02650   0.58358   0.00000  Uiso   1.00
C333   C     0.16426   0.94711   0.61645   0.00000  Uiso   1.00
C334   C     0.21052   0.90745   0.60229   0.00000  Uiso   1.00
C335   C     0.26155   0.81687   0.59678   0.00000  Uiso   1.00
C336   C     0.29506   0.15181   0.50801   0.00000  Uiso   1.00
C337   C     0.21595   0.15746   0.48749   0.00000  Uiso   1.00
C338   C     0.21531   0.19572   0.43064   0.00000  Uiso   1.00
C339   C     0.13636   0.19420   0.42079   0.00000  Uiso   1.00
C340   C     0.30215   0.18459   0.55563   0.00000  Uiso   1.00
C341   C     0.37398   0.24565   0.55608   0.00000  Uiso   1.00
C342   C     0.36760   0.26696   0.60359   0.00000  Uiso   1.00
C343   C     0.27179   0.06492   0.53818   0.00000  Uiso   1.00
C344   C     0.31811   0.02538   0.52398   0.00000  Uiso   1.00
C345   C     0.28618   0.94594   0.55682   0.00000  Uiso   1.00
H346   H     0.09720   0.05117   0.62692   0.00000  Uiso   1.00
H347   H     0.00303   0.08773   0.55825   0.00000  Uiso   1.00
H348   H     0.16168   0.13764   0.68367   0.00000  Uiso   1.00
H349   H     0.10581   0.91740   0.65157   0.00000  Uiso   1.00
H350   H     0.93193   0.14523   0.46210   0.00000  Uiso   1.00
H351   H     0.26646   0.25045   0.72656   0.00000  Uiso   1.00
H352   H     0.14866   0.78604   0.65888   0.00000  Uiso   1.00
H353   H     0.35386   0.18173   0.47267   0.00000  Uiso   1.00
H354   H     0.27377   0.22545   0.39553   0.00000  Uiso   1.00
H355   H     0.43242   0.27536   0.52095   0.00000  Uiso   1.00
H356   H     0.37655   0.05513   0.48885   0.00000  Uiso   1.00
H357   H     0.15167   0.25702   0.33003   0.00000  Uiso   1.00
H358   H     0.48620   0.36224   0.59449   0.00000  Uiso   1.00
H359   H     0.36840   0.89783   0.52680   0.00000  Uiso   1.00
O360   O     0.98449   0.22756   0.34811   0.00000  Uiso   1.00
O361   O     0.42338   0.36559   0.69507   0.00000  Uiso   1.00
O362   O     0.26883   0.75629   0.60627   0.00000  Uiso   1.00
N363   N     0.99463   0.16553   0.44160   0.00000  Uiso   1.00
N364   N     0.30739   0.26391   0.68885   0.00000  Uiso   1.00
N365   N     0.19727   0.82973   0.62558   0.00000  Uiso   1.00
N366   N     0.11288   0.22568   0.37053   0.00000  Uiso   1.00
N367   N     0.42564   0.32406   0.61778   0.00000  Uiso   1.00
N368   N     0.31552   0.88988   0.55452   0.00000  Uiso   1.00
C369   C     0.85384   0.18034   0.65829   0.00000  Uiso   1.00
C370   C     0.90030   0.23045   0.59440   0.00000  Uiso   1.00
C371   C     0.98163   0.29224   0.57369   0.00000  Uiso   1.00
C372   C     0.01282   0.33073   0.51371   0.00000  Uiso   1.00
C373   C     0.09234   0.41194   0.42025   0.00000  Uiso   1.00
C374   C     0.83321   0.09628   0.66518   0.00000  Uiso   1.00
C375   C     0.85812   0.04527   0.70400   0.00000  Uiso   1.00
C376   C     0.83282   0.97082   0.70360   0.00000  Uiso   1.00
C377   C     0.80813   0.84372   0.72007   0.00000  Uiso   1.00
C378   C     0.76688   0.18582   0.66754   0.00000  Uiso   1.00
C379   C     0.73601   0.21008   0.70834   0.00000  Uiso   1.00
C380   C     0.65485   0.21099   0.70994   0.00000  Uiso   1.00
C381   C     0.52718   0.22291   0.73006   0.00000  Uiso   1.00
C382   C     0.76461   0.13881   0.58859   0.00000  Uiso   1.00
C383   C     0.85183   0.20788   0.55654   0.00000  Uiso   1.00
C384   C     0.88290   0.24629   0.49657   0.00000  Uiso   1.00
C385   C     0.96426   0.30813   0.47578   0.00000  Uiso   1.00
C386   C     0.78474   0.07372   0.62732   0.00000  Uiso   1.00
C387   C     0.75939   0.99932   0.62688   0.00000  Uiso   1.00
C388   C     0.78427   0.94822   0.66568   0.00000  Uiso   1.00
C389   C     0.71841   0.16326   0.62967   0.00000  Uiso   1.00
C390   C     0.63728   0.16413   0.63122   0.00000  Uiso   1.00
C391   C     0.60629   0.18839   0.67201   0.00000  Uiso   1.00
H392   H     0.89158   0.19790   0.68777   0.00000  Uiso   1.00
H393   H     0.01912   0.30968   0.60300   0.00000  Uiso   1.00
H394   H     0.89562   0.06275   0.73329   0.00000  Uiso   1.00
H395   H     0.77353   0.22753   0.73763   0.00000  Uiso   1.00
H396   H     0.13917   0.42364   0.49233   0.00000  Uiso   1.00
H397   H     0.87874   0.90297   0.76706   0.00000  Uiso   1.00
H398   H     0.62128   0.25044   0.77621   0.00000  Uiso   1.00
H399   H     0.72687   0.12124   0.55911   0.00000  Uiso   1.00
H400   H     0.84537   0.22882   0.46728   0.00000  Uiso   1.00
H401   H     0.72188   0.98188   0.59757   0.00000  Uiso   1.00
H402   H     0.59979   0.14667   0.60191   0.00000  Uiso   1.00
H403   H     0.99815   0.35801   0.38217   0.00000  Uiso   1.00
H404   H     0.73772   0.83733   0.65691   0.00000  Uiso   1.00
H405   H     0.48027   0.18481   0.66605   0.00000  Uiso   1.00
O406   O     0.14960   0.46296   0.37916   0.00000  Uiso   1.00
O407   O     0.80791   0.77985   0.73961   0.00000  Uiso   1.00
O408   O     0.47015   0.23573   0.75161   0.00000  Uiso   1.00
N409   N     0.08971   0.39344   0.47900   0.00000  Uiso   1.00
N410   N     0.84624   0.90664   0.73586   0.00000  Uiso   1.00
N411   N     0.60553   0.23148   0.74442   0.00000  Uiso   1.00
N412   N     0.01382   0.35812   0.41973   0.00000  Uiso   1.00
N413   N     0.77035   0.87133   0.67659   0.00000  Uiso   1.00
N414   N     0.52965   0.19617   0.68515   0.00000  Uiso   1.00
C415   C     0.96130   0.27540   0.13485   0.00000  Uiso   1.00
C416   C     0.93833   0.31127   0.07866   0.00000  Uiso   1.00
C417   C     0.92442   0.37885   0.06236   0.00000  Uiso   1.00
C418   C     0.90404   0.40202   0.00927   0.00000  Uiso   1.00
C419   C     0.86927   0.46423   0.92744   0.00000  Uiso   1.00
C420   C     0.89214   0.19193   0.16470   0.00000  Uiso   1.00
C421   C     0.83940   0.15917   0.22074   0.00000  Uiso   1.00
C422   C     0.78015   0.08188   0.24008   0.00000  Uiso   1.00
C423   C     0.67371   0.95879   0.29184   0.00000  Uiso   1.00
C424   C     0.04559   0.26884   0.11643   0.00000  Uiso   1.00
C425   C     0.12188   0.30074   0.13189   0.00000  Uiso   1.00
C426   C     0.19183   0.28819   0.11059   0.00000  Uiso   1.00
C427   C     0.32365   0.28452   0.08740   0.00000  Uiso   1.00
C428   C     0.94985   0.19638   0.06954   0.00000  Uiso   1.00
C429   C     0.93210   0.26835   0.04319   0.00000  Uiso   1.00
C430   C     0.91175   0.29143   0.99011   0.00000  Uiso   1.00
C431   C     0.89782   0.35903   0.97373   0.00000  Uiso   1.00
C432   C     0.88591   0.14901   0.12923   0.00000  Uiso   1.00
C433   C     0.82673   0.07175   0.14849   0.00000  Uiso   1.00
C434   C     0.77392   0.03888   0.20454   0.00000  Uiso   1.00
C435   C     0.03937   0.22593   0.08095   0.00000  Uiso   1.00
C436   C     0.10921   0.21332   0.05963   0.00000  Uiso   1.00
C437   C     0.18560   0.24519   0.07506   0.00000  Uiso   1.00
H438   H     0.96614   0.30880   0.16247   0.00000  Uiso   1.00
H439   H     0.92923   0.41204   0.08983   0.00000  Uiso   1.00
H440   H     0.84424   0.19239   0.24819   0.00000  Uiso   1.00
H441   H     0.12667   0.33394   0.15934   0.00000  Uiso   1.00
H442   H     0.88553   0.50755   0.99366   0.00000  Uiso   1.00
H443   H     0.70634   0.04441   0.32757   0.00000  Uiso   1.00
H444   H     0.30191   0.34289   0.14024   0.00000  Uiso   1.00
H445   H     0.94501   0.16297   0.04192   0.00000  Uiso   1.00
H446   H     0.90694   0.25820   0.96267   0.00000  Uiso   1.00
H447   H     0.82194   0.03856   0.12103   0.00000  Uiso   1.00
H448   H     0.10438   0.18011   0.03218   0.00000  Uiso   1.00
H449   H     0.86743   0.38269   0.89045   0.00000  Uiso   1.00
H450   H     0.68824   0.91954   0.22437   0.00000  Uiso   1.00
H451   H     0.28381   0.21803   0.03703   0.00000  Uiso   1.00
O452   O     0.85179   0.51039   0.89210   0.00000  Uiso   1.00
O453   O     0.61671   0.90276   0.33019   0.00000  Uiso   1.00
O454   O     0.39808   0.29436   0.08440   0.00000  Uiso   1.00
N455   N     0.88652   0.46511   0.98024   0.00000  Uiso   1.00
N456   N     0.71897   0.03209   0.29243   0.00000  Uiso   1.00
N457   N     0.27577   0.31113   0.11730   0.00000  Uiso   1.00
N458   N     0.87678   0.39792   0.92471   0.00000  Uiso   1.00
N459   N     0.70923   0.96491   0.23689   0.00000  Uiso   1.00
N460   N     0.26603   0.24395   0.06176   0.00000  Uiso   1.00
C461   C     0.67508   0.51197   0.17379   0.00000  Uiso   1.00
C462   C     0.67497   0.50176   0.11591   0.00000  Uiso   1.00
C463   C     0.60543   0.45222   0.10325   0.00000  Uiso   1.00
C464   C     0.61837   0.45129   0.04778   0.00000  Uiso   1.00
C465   C     0.60610   0.42828   0.96419   0.00000  Uiso   1.00
C466   C     0.74949   0.49463   0.19375   0.00000  Uiso   1.00
C467   C     0.74261   0.43909   0.24654   0.00000  Uiso   1.00
C468   C     0.81828   0.43218   0.25659   0.00000  Uiso   1.00
C469   C     0.92171   0.39813   0.29387   0.00000  Uiso   1.00
C470   C     0.70126   0.59876   0.15963   0.00000  Uiso   1.00
C471   C     0.65384   0.63078   0.18374   0.00000  Uiso   1.00
C472   C     0.68891   0.71154   0.16507   0.00000  Uiso   1.00
C473   C     0.71746   0.83917   0.14937   0.00000  Uiso   1.00
C474   C     0.82171   0.59845   0.09778   0.00000  Uiso   1.00
C475   C     0.75462   0.54874   0.07463   0.00000  Uiso   1.00
C476   C     0.76766   0.54789   0.01916   0.00000  Uiso   1.00
C477   C     0.69815   0.49835   0.00642   0.00000  Uiso   1.00
C478   C     0.82913   0.54160   0.15247   0.00000  Uiso   1.00
C479   C     0.90483   0.53477   0.16244   0.00000  Uiso   1.00
C480   C     0.89807   0.47924   0.21523   0.00000  Uiso   1.00
C481   C     0.78090   0.64574   0.11834   0.00000  Uiso   1.00
C482   C     0.81606   0.72646   0.09964   0.00000  Uiso   1.00
C483   C     0.76870   0.75859   0.12371   0.00000  Uiso   1.00
H484   H     0.61308   0.47540   0.20593   0.00000  Uiso   1.00
H485   H     0.54381   0.41587   0.13521   0.00000  Uiso   1.00
H486   H     0.68097   0.40276   0.27848   0.00000  Uiso   1.00
H487   H     0.59221   0.59441   0.21568   0.00000  Uiso   1.00
H488   H     0.50215   0.37056   0.03861   0.00000  Uiso   1.00
H489   H     0.79135   0.34294   0.34070   0.00000  Uiso   1.00
H490   H     0.60419   0.74708   0.20829   0.00000  Uiso   1.00
H491   H     0.88372   0.63502   0.06564   0.00000  Uiso   1.00
H492   H     0.82930   0.58425   0.98722   0.00000  Uiso   1.00
H493   H     0.96646   0.57114   0.13049   0.00000  Uiso   1.00
H494   H     0.87770   0.76279   0.06769   0.00000  Uiso   1.00
H495   H     0.73386   0.50722   0.91849   0.00000  Uiso   1.00
H496   H     0.02307   0.47960   0.22059   0.00000  Uiso   1.00
H497   H     0.83590   0.88374   0.08817   0.00000  Uiso   1.00
O498   O     0.57734   0.40260   0.92950   0.00000  Uiso   1.00
O499   O     0.95676   0.36636   0.32584   0.00000  Uiso   1.00
O500   O     0.71120   0.89659   0.15211   0.00000  Uiso   1.00
N501   N     0.56415   0.40970   0.02110   0.00000  Uiso   1.00
N502   N     0.83453   0.38387   0.30353   0.00000  Uiso   1.00
N503   N     0.65956   0.76171   0.17975   0.00000  Uiso   1.00
N504   N     0.68883   0.48324   0.95646   0.00000  Uiso   1.00
N505   N     0.95922   0.45741   0.23890   0.00000  Uiso   1.00
N506   N     0.78424   0.83524   0.11511   0.00000  Uiso   1.00
C507   C     0.46427   0.99946   0.15006   0.00000  Uiso   1.00
C508   C     0.51390   0.07191   0.09449   0.00000  Uiso   1.00
C509   C     0.58718   0.08524   0.05529   0.00000  Uiso   1.00
C510   C     0.62306   0.15517   0.00710   0.00000  Uiso   1.00
C511   C     0.70566   0.25939   0.92214   0.00000  Uiso   1.00
C512   C     0.46230   0.02867   0.19947   0.00000  Uiso   1.00
C513   C     0.49217   0.00564   0.24853   0.00000  Uiso   1.00
C514   C     0.48460   0.03916   0.28871   0.00000  Uiso   1.00
C515   C     0.48701   0.07621   0.36674   0.00000  Uiso   1.00
C516   C     0.37098   0.96664   0.14536   0.00000  Uiso   1.00
C517   C     0.32407   0.89145   0.14895   0.00000  Uiso   1.00
C518   C     0.23961   0.87274   0.14359   0.00000  Uiso   1.00
C519   C     0.10025   0.81348   0.13762   0.00000  Uiso   1.00
C520   C     0.39768   0.09993   0.13420   0.00000  Uiso   1.00
C521   C     0.47773   0.12649   0.08588   0.00000  Uiso   1.00
C522   C     0.51351   0.19641   0.03773   0.00000  Uiso   1.00
C523   C     0.58683   0.20984   0.99846   0.00000  Uiso   1.00
C524   C     0.42613   0.08325   0.19085   0.00000  Uiso   1.00
C525   C     0.41850   0.11681   0.23097   0.00000  Uiso   1.00
C526   C     0.44836   0.09384   0.28008   0.00000  Uiso   1.00
C527   C     0.33481   0.02122   0.13674   0.00000  Uiso   1.00
C528   C     0.25040   0.00262   0.13139   0.00000  Uiso   1.00
C529   C     0.20337   0.92741   0.13496   0.00000  Uiso   1.00
H530   H     0.49243   0.95697   0.15678   0.00000  Uiso   1.00
H531   H     0.61516   0.04299   0.06198   0.00000  Uiso   1.00
H532   H     0.52015   0.96340   0.25519   0.00000  Uiso   1.00
H533   H     0.35208   0.84923   0.15562   0.00000  Uiso   1.00
H534   H     0.73530   0.16245   0.95308   0.00000  Uiso   1.00
H535   H     0.53494   0.99460   0.36048   0.00000  Uiso   1.00
H536   H     0.18053   0.75385   0.15053   0.00000  Uiso   1.00
H537   H     0.36952   0.14242   0.12749   0.00000  Uiso   1.00
H538   H     0.48550   0.23863   0.03108   0.00000  Uiso   1.00
H539   H     0.39050   0.15904   0.22429   0.00000  Uiso   1.00
H540   H     0.22243   0.04487   0.12472   0.00000  Uiso   1.00
H541   H     0.63007   0.32124   0.92801   0.00000  Uiso   1.00
H542   H     0.42971   0.15339   0.33541   0.00000  Uiso   1.00
H543   H     0.07530   0.91264   0.12545   0.00000  Uiso   1.00
O544   O     0.76122   0.30180   0.87766   0.00000  Uiso   1.00
O545   O     0.49835   0.08158   0.41216   0.00000  Uiso   1.00
O546   O     0.03338   0.76572   0.13670   0.00000  Uiso   1.00
N547   N     0.69460   0.18661   0.96041   0.00000  Uiso   1.00
N548   N     0.50730   0.02969   0.34130   0.00000  Uiso   1.00
N549   N     0.17595   0.80460   0.14502   0.00000  Uiso   1.00
N550   N     0.63798   0.27206   0.94691   0.00000  Uiso   1.00
N551   N     0.45067   0.11514   0.32780   0.00000  Uiso   1.00
N552   N     0.11932   0.89004   0.13153   0.00000  Uiso   1.00
