data_job_01289
_audit_creation_date              2018-12-19
_audit_creation_method            'Materials Studio'
_symmetry_space_group_name_H-M    'P1'
_symmetry_Int_Tables_number       1
_symmetry_cell_setting            triclinic
loop_
_symmetry_equiv_pos_as_xyz
  x,y,z
_cell_length_a                    12.1310
_cell_length_b                    12.2006
_cell_length_c                    12.3634
_cell_angle_alpha                 95.8561
_cell_angle_beta                  72.9801
_cell_angle_gamma                 114.8278
loop_
_atom_site_label
_atom_site_type_symbol
_atom_site_fract_x
_atom_site_fract_y
_atom_site_fract_z
_atom_site_U_iso_or_equiv
_atom_site_adp_type
_atom_site_occupancy
C1     C     0.10429   0.41139   0.39202   0.00000  Uiso   1.00
C2     C     0.19305   0.39693   0.44938   0.00000  Uiso   1.00
C3     C     0.22420   0.45656   0.54503   0.00000  Uiso   1.00
C4     C     0.30709   0.43095   0.58442   0.00000  Uiso   1.00
C5     C     0.43737   0.42106   0.68172   0.00000  Uiso   1.00
C6     C     0.18043   0.44842   0.26939   0.00000  Uiso   1.00
C7     C     0.20094   0.55134   0.21372   0.00000  Uiso   1.00
C8     C     0.27320   0.56906   0.10158   0.00000  Uiso   1.00
C9     C     0.38381   0.63907   0.91943   0.00000  Uiso   1.00
C10    C     0.00233   0.28498   0.38865   0.00000  Uiso   1.00
C11    C     0.87310   0.25048   0.43322   0.00000  Uiso   1.00
C12    C     0.79541   0.13060   0.42146   0.00000  Uiso   1.00
C13    C     0.62949   0.94684   0.42448   0.00000  Uiso   1.00
C14    C     0.19611   0.25985   0.29186   0.00000  Uiso   1.00
C15    C     0.24293   0.31462   0.39497   0.00000  Uiso   1.00
C16    C     0.32579   0.28890   0.43422   0.00000  Uiso   1.00
C17    C     0.35705   0.34848   0.52992   0.00000  Uiso   1.00
C18    C     0.23030   0.36612   0.21499   0.00000  Uiso   1.00
C19    C     0.30254   0.38368   0.10290   0.00000  Uiso   1.00
C20    C     0.32317   0.48660   0.04708   0.00000  Uiso   1.00
C21    C     0.05221   0.20267   0.33425   0.00000  Uiso   1.00
C22    C     0.97470   0.08282   0.32241   0.00000  Uiso   1.00
C23    C     0.84537   0.04814   0.36696   0.00000  Uiso   1.00
H24    H     0.06546   0.47548   0.43437   0.00000  Uiso   1.00
H25    H     0.18559   0.52027   0.58711   0.00000  Uiso   1.00
H26    H     0.16233   0.61502   0.25584   0.00000  Uiso   1.00
H27    H     0.83454   0.31420   0.47531   0.00000  Uiso   1.00
H28    H     0.34080   0.53365   0.73243   0.00000  Uiso   1.00
H29    H     0.29172   0.73343   0.03392   0.00000  Uiso   1.00
H30    H     0.60050   0.09910   0.49672   0.00000  Uiso   1.00
H31    H     0.23495   0.19576   0.24950   0.00000  Uiso   1.00
H32    H     0.36437   0.22520   0.39211   0.00000  Uiso   1.00
H33    H     0.34111   0.31996   0.06083   0.00000  Uiso   1.00
H34    H     0.01332   0.01914   0.28031   0.00000  Uiso   1.00
H35    H     0.48591   0.29417   0.57416   0.00000  Uiso   1.00
H36    H     0.43682   0.49395   0.87564   0.00000  Uiso   1.00
H37    H     0.74562   0.85962   0.33845   0.00000  Uiso   1.00
O38    O     0.49547   0.43835   0.75041   0.00000  Uiso   1.00
O39    O     0.43105   0.70044   0.83399   0.00000  Uiso   1.00
O40    O     0.52420   0.86822   0.44118   0.00000  Uiso   1.00
N41    N     0.35717   0.47323   0.67562   0.00000  Uiso   1.00
N42    N     0.31130   0.66002   0.02256   0.00000  Uiso   1.00
N43    N     0.66507   0.06699   0.45522   0.00000  Uiso   1.00
N44    N     0.43525   0.34437   0.59046   0.00000  Uiso   1.00
N45    N     0.38938   0.53116   0.93740   0.00000  Uiso   1.00
N46    N     0.74315   0.93812   0.37005   0.00000  Uiso   1.00
C47    C     0.89571   0.58861   0.60798   0.00000  Uiso   1.00
C48    C     0.80695   0.60307   0.55062   0.00000  Uiso   1.00
C49    C     0.77580   0.54344   0.45497   0.00000  Uiso   1.00
C50    C     0.69291   0.56905   0.41558   0.00000  Uiso   1.00
C51    C     0.56263   0.57894   0.31828   0.00000  Uiso   1.00
C52    C     0.81957   0.55158   0.73061   0.00000  Uiso   1.00
C53    C     0.79906   0.44866   0.78628   0.00000  Uiso   1.00
C54    C     0.72680   0.43094   0.89842   0.00000  Uiso   1.00
C55    C     0.61619   0.36093   0.08057   0.00000  Uiso   1.00
C56    C     0.99767   0.71502   0.61135   0.00000  Uiso   1.00
C57    C     0.12690   0.74952   0.56678   0.00000  Uiso   1.00
C58    C     0.20459   0.86940   0.57854   0.00000  Uiso   1.00
C59    C     0.37051   0.05316   0.57552   0.00000  Uiso   1.00
C60    C     0.80389   0.74015   0.70814   0.00000  Uiso   1.00
C61    C     0.75707   0.68538   0.60503   0.00000  Uiso   1.00
C62    C     0.67421   0.71110   0.56578   0.00000  Uiso   1.00
C63    C     0.64295   0.65152   0.47008   0.00000  Uiso   1.00
C64    C     0.76970   0.63388   0.78501   0.00000  Uiso   1.00
C65    C     0.69746   0.61632   0.89710   0.00000  Uiso   1.00
C66    C     0.67683   0.51340   0.95292   0.00000  Uiso   1.00
C67    C     0.94779   0.79733   0.66575   0.00000  Uiso   1.00
C68    C     0.02530   0.91718   0.67759   0.00000  Uiso   1.00
C69    C     0.15463   0.95186   0.63304   0.00000  Uiso   1.00
H70    H     0.93454   0.52452   0.56563   0.00000  Uiso   1.00
H71    H     0.81441   0.47973   0.41289   0.00000  Uiso   1.00
H72    H     0.83767   0.38498   0.74416   0.00000  Uiso   1.00
H73    H     0.16546   0.68580   0.52469   0.00000  Uiso   1.00
H74    H     0.65920   0.46635   0.26757   0.00000  Uiso   1.00
H75    H     0.70828   0.26657   0.96608   0.00000  Uiso   1.00
H76    H     0.39950   0.90090   0.50328   0.00000  Uiso   1.00
H77    H     0.76505   0.80424   0.75050   0.00000  Uiso   1.00
H78    H     0.63563   0.77480   0.60789   0.00000  Uiso   1.00
H79    H     0.65889   0.68004   0.93917   0.00000  Uiso   1.00
H80    H     0.98668   0.98086   0.71969   0.00000  Uiso   1.00
H81    H     0.51409   0.70583   0.42584   0.00000  Uiso   1.00
H82    H     0.56318   0.50605   0.12436   0.00000  Uiso   1.00
H83    H     0.25438   0.14038   0.66155   0.00000  Uiso   1.00
O84    O     0.50453   0.56165   0.24959   0.00000  Uiso   1.00
O85    O     0.56895   0.29956   0.16601   0.00000  Uiso   1.00
O86    O     0.47580   0.13178   0.55882   0.00000  Uiso   1.00
N87    N     0.64283   0.52677   0.32438   0.00000  Uiso   1.00
N88    N     0.68870   0.33998   0.97744   0.00000  Uiso   1.00
N89    N     0.33493   0.93301   0.54478   0.00000  Uiso   1.00
N90    N     0.56475   0.65563   0.40954   0.00000  Uiso   1.00
N91    N     0.61062   0.46884   0.06260   0.00000  Uiso   1.00
N92    N     0.25685   0.06188   0.62995   0.00000  Uiso   1.00
