data_job_02867
_audit_creation_date              2018-12-19
_audit_creation_method            'Materials Studio'
_symmetry_space_group_name_H-M    'P1'
_symmetry_Int_Tables_number       1
_symmetry_cell_setting            triclinic
loop_
_symmetry_equiv_pos_as_xyz
  x,y,z
_cell_length_a                    23.6878
_cell_length_b                    11.9919
_cell_length_c                    24.9973
_cell_angle_alpha                 90.0000
_cell_angle_beta                  90.0000
_cell_angle_gamma                 90.0000
loop_
_atom_site_label
_atom_site_type_symbol
_atom_site_fract_x
_atom_site_fract_y
_atom_site_fract_z
_atom_site_U_iso_or_equiv
_atom_site_adp_type
_atom_site_occupancy
C1     C     0.34793   0.77367   0.84366   0.00000  Uiso   1.00
C2     C     0.40153   0.83256   0.86219   0.00000  Uiso   1.00
C3     C     0.43316   0.90722   0.83218   0.00000  Uiso   1.00
C4     C     0.48080   0.95211   0.85634   0.00000  Uiso   1.00
C5     C     0.56166   0.04798   0.87717   0.00000  Uiso   1.00
C6     C     0.30257   0.80292   0.88461   0.00000  Uiso   1.00
C7     C     0.25099   0.85263   0.87344   0.00000  Uiso   1.00
C8     C     0.21532   0.87254   0.91647   0.00000  Uiso   1.00
C9     C     0.14253   0.92231   0.97210   0.00000  Uiso   1.00
C10    C     0.35912   0.64918   0.85015   0.00000  Uiso   1.00
C11    C     0.35508   0.56963   0.81001   0.00000  Uiso   1.00
C12    C     0.36701   0.46010   0.82403   0.00000  Uiso   1.00
C13    C     0.38202   0.27118   0.82615   0.00000  Uiso   1.00
C14    C     0.37629   0.72061   0.93993   0.00000  Uiso   1.00
C15    C     0.41693   0.80374   0.91449   0.00000  Uiso   1.00
C16    C     0.46453   0.84852   0.93869   0.00000  Uiso   1.00
C17    C     0.49623   0.92323   0.90872   0.00000  Uiso   1.00
C18    C     0.31797   0.77410   0.93690   0.00000  Uiso   1.00
C19    C     0.28237   0.79393   0.97995   0.00000  Uiso   1.00
C20    C     0.23075   0.84367   0.96885   0.00000  Uiso   1.00
C21    C     0.37452   0.62036   0.90244   0.00000  Uiso   1.00
C22    C     0.38645   0.51093   0.91652   0.00000  Uiso   1.00
C23    C     0.38243   0.43123   0.87641   0.00000  Uiso   1.00
H24    H     0.33594   0.79611   0.80295   0.00000  Uiso   1.00
H25    H     0.42122   0.92952   0.79171   0.00000  Uiso   1.00
H26    H     0.23908   0.87492   0.83297   0.00000  Uiso   1.00
H27    H     0.34316   0.59197   0.76955   0.00000  Uiso   1.00
H28    H     0.52256   0.06474   0.80233   0.00000  Uiso   1.00
H29    H     0.13850   0.94959   0.88931   0.00000  Uiso   1.00
H30    H     0.35796   0.35292   0.75558   0.00000  Uiso   1.00
H31    H     0.38828   0.69817   0.98065   0.00000  Uiso   1.00
H32    H     0.47644   0.82620   0.97916   0.00000  Uiso   1.00
H33    H     0.29430   0.77161   0.02041   0.00000  Uiso   1.00
H34    H     0.39837   0.48865   0.95699   0.00000  Uiso   1.00
H35    H     0.56738   0.98089   0.95447   0.00000  Uiso   1.00
H36    H     0.18331   0.86573   0.04145   0.00000  Uiso   1.00
H37    H     0.40277   0.26907   0.90772   0.00000  Uiso   1.00
O38    O     0.60201   0.10883   0.87422   0.00000  Uiso   1.00
O39    O     0.09813   0.95773   0.98834   0.00000  Uiso   1.00
O40    O     0.38606   0.17493   0.81288   0.00000  Uiso   1.00
N41    N     0.52101   0.02742   0.83833   0.00000  Uiso   1.00
N42    N     0.16194   0.91977   0.91966   0.00000  Uiso   1.00
N43    N     0.36710   0.36194   0.79463   0.00000  Uiso   1.00
N44    N     0.54513   0.98230   0.92020   0.00000  Uiso   1.00
N45    N     0.18606   0.87465   0.00152   0.00000  Uiso   1.00
N46    N     0.39122   0.31682   0.87650   0.00000  Uiso   1.00
C47    C     0.15207   0.22633   0.84366   0.00000  Uiso   1.00
C48    C     0.09847   0.16744   0.86219   0.00000  Uiso   1.00
C49    C     0.06684   0.09278   0.83218   0.00000  Uiso   1.00
C50    C     0.01920   0.04789   0.85634   0.00000  Uiso   1.00
C51    C     0.93834   0.95202   0.87717   0.00000  Uiso   1.00
C52    C     0.19743   0.19708   0.88461   0.00000  Uiso   1.00
C53    C     0.24901   0.14737   0.87344   0.00000  Uiso   1.00
C54    C     0.28468   0.12746   0.91647   0.00000  Uiso   1.00
C55    C     0.35747   0.07769   0.97210   0.00000  Uiso   1.00
C56    C     0.14088   0.35082   0.85015   0.00000  Uiso   1.00
C57    C     0.14492   0.43037   0.81001   0.00000  Uiso   1.00
C58    C     0.13299   0.53990   0.82403   0.00000  Uiso   1.00
C59    C     0.11798   0.72882   0.82615   0.00000  Uiso   1.00
C60    C     0.12371   0.27939   0.93993   0.00000  Uiso   1.00
C61    C     0.08307   0.19626   0.91449   0.00000  Uiso   1.00
C62    C     0.03547   0.15148   0.93869   0.00000  Uiso   1.00
C63    C     0.00377   0.07677   0.90872   0.00000  Uiso   1.00
C64    C     0.18203   0.22590   0.93690   0.00000  Uiso   1.00
C65    C     0.21763   0.20607   0.97995   0.00000  Uiso   1.00
C66    C     0.26925   0.15633   0.96885   0.00000  Uiso   1.00
C67    C     0.12548   0.37964   0.90244   0.00000  Uiso   1.00
C68    C     0.11355   0.48907   0.91652   0.00000  Uiso   1.00
C69    C     0.11757   0.56877   0.87641   0.00000  Uiso   1.00
H70    H     0.16406   0.20389   0.80295   0.00000  Uiso   1.00
H71    H     0.07878   0.07048   0.79171   0.00000  Uiso   1.00
H72    H     0.26092   0.12508   0.83297   0.00000  Uiso   1.00
H73    H     0.15684   0.40803   0.76955   0.00000  Uiso   1.00
H74    H     0.97744   0.93526   0.80233   0.00000  Uiso   1.00
H75    H     0.36150   0.05041   0.88931   0.00000  Uiso   1.00
H76    H     0.14204   0.64708   0.75558   0.00000  Uiso   1.00
H77    H     0.11172   0.30183   0.98065   0.00000  Uiso   1.00
H78    H     0.02356   0.17380   0.97916   0.00000  Uiso   1.00
H79    H     0.20570   0.22839   0.02041   0.00000  Uiso   1.00
H80    H     0.10163   0.51135   0.95699   0.00000  Uiso   1.00
H81    H     0.93262   0.01911   0.95447   0.00000  Uiso   1.00
H82    H     0.31669   0.13427   0.04145   0.00000  Uiso   1.00
H83    H     0.09723   0.73093   0.90772   0.00000  Uiso   1.00
O84    O     0.89799   0.89117   0.87422   0.00000  Uiso   1.00
O85    O     0.40187   0.04227   0.98834   0.00000  Uiso   1.00
O86    O     0.11394   0.82507   0.81288   0.00000  Uiso   1.00
N87    N     0.97899   0.97258   0.83833   0.00000  Uiso   1.00
N88    N     0.33806   0.08023   0.91966   0.00000  Uiso   1.00
N89    N     0.13290   0.63806   0.79463   0.00000  Uiso   1.00
N90    N     0.95487   0.01770   0.92020   0.00000  Uiso   1.00
N91    N     0.31394   0.12535   0.00152   0.00000  Uiso   1.00
N92    N     0.10878   0.68318   0.87650   0.00000  Uiso   1.00
C93    C     0.15207   0.27367   0.65634   0.00000  Uiso   1.00
C94    C     0.09847   0.33256   0.63781   0.00000  Uiso   1.00
C95    C     0.06684   0.40722   0.66782   0.00000  Uiso   1.00
C96    C     0.01920   0.45211   0.64366   0.00000  Uiso   1.00
C97    C     0.93834   0.54798   0.62283   0.00000  Uiso   1.00
C98    C     0.19743   0.30292   0.61539   0.00000  Uiso   1.00
C99    C     0.24901   0.35263   0.62656   0.00000  Uiso   1.00
C100   C     0.28468   0.37254   0.58353   0.00000  Uiso   1.00
C101   C     0.35747   0.42231   0.52790   0.00000  Uiso   1.00
C102   C     0.14088   0.14918   0.64985   0.00000  Uiso   1.00
C103   C     0.14492   0.06963   0.68999   0.00000  Uiso   1.00
C104   C     0.13299   0.96010   0.67597   0.00000  Uiso   1.00
C105   C     0.11798   0.77118   0.67385   0.00000  Uiso   1.00
C106   C     0.12371   0.22061   0.56007   0.00000  Uiso   1.00
C107   C     0.08307   0.30374   0.58551   0.00000  Uiso   1.00
C108   C     0.03547   0.34852   0.56131   0.00000  Uiso   1.00
C109   C     0.00377   0.42323   0.59128   0.00000  Uiso   1.00
C110   C     0.18203   0.27410   0.56310   0.00000  Uiso   1.00
C111   C     0.21763   0.29393   0.52005   0.00000  Uiso   1.00
C112   C     0.26925   0.34367   0.53115   0.00000  Uiso   1.00
C113   C     0.12548   0.12036   0.59756   0.00000  Uiso   1.00
C114   C     0.11355   0.01093   0.58348   0.00000  Uiso   1.00
C115   C     0.11757   0.93123   0.62359   0.00000  Uiso   1.00
H116   H     0.16406   0.29611   0.69705   0.00000  Uiso   1.00
H117   H     0.07878   0.42952   0.70829   0.00000  Uiso   1.00
H118   H     0.26092   0.37492   0.66703   0.00000  Uiso   1.00
H119   H     0.15684   0.09197   0.73045   0.00000  Uiso   1.00
H120   H     0.97744   0.56474   0.69767   0.00000  Uiso   1.00
H121   H     0.36150   0.44959   0.61069   0.00000  Uiso   1.00
H122   H     0.14204   0.85292   0.74442   0.00000  Uiso   1.00
H123   H     0.11172   0.19817   0.51935   0.00000  Uiso   1.00
H124   H     0.02356   0.32620   0.52084   0.00000  Uiso   1.00
H125   H     0.20570   0.27161   0.47959   0.00000  Uiso   1.00
H126   H     0.10163   0.98865   0.54301   0.00000  Uiso   1.00
H127   H     0.93262   0.48089   0.54553   0.00000  Uiso   1.00
H128   H     0.31669   0.36573   0.45855   0.00000  Uiso   1.00
H129   H     0.09723   0.76907   0.59228   0.00000  Uiso   1.00
O130   O     0.89799   0.60883   0.62578   0.00000  Uiso   1.00
O131   O     0.40187   0.45773   0.51166   0.00000  Uiso   1.00
O132   O     0.11394   0.67493   0.68712   0.00000  Uiso   1.00
N133   N     0.97899   0.52742   0.66167   0.00000  Uiso   1.00
N134   N     0.33806   0.41977   0.58034   0.00000  Uiso   1.00
N135   N     0.13290   0.86194   0.70537   0.00000  Uiso   1.00
N136   N     0.95487   0.48230   0.57980   0.00000  Uiso   1.00
N137   N     0.31394   0.37465   0.49848   0.00000  Uiso   1.00
N138   N     0.10878   0.81682   0.62350   0.00000  Uiso   1.00
C139   C     0.34793   0.72633   0.65634   0.00000  Uiso   1.00
C140   C     0.40153   0.66744   0.63781   0.00000  Uiso   1.00
C141   C     0.43316   0.59278   0.66782   0.00000  Uiso   1.00
C142   C     0.48080   0.54789   0.64366   0.00000  Uiso   1.00
C143   C     0.56166   0.45202   0.62283   0.00000  Uiso   1.00
C144   C     0.30257   0.69708   0.61539   0.00000  Uiso   1.00
C145   C     0.25099   0.64737   0.62656   0.00000  Uiso   1.00
C146   C     0.21532   0.62746   0.58353   0.00000  Uiso   1.00
C147   C     0.14253   0.57769   0.52790   0.00000  Uiso   1.00
C148   C     0.35912   0.85082   0.64985   0.00000  Uiso   1.00
C149   C     0.35508   0.93037   0.68999   0.00000  Uiso   1.00
C150   C     0.36701   0.03990   0.67597   0.00000  Uiso   1.00
C151   C     0.38202   0.22882   0.67385   0.00000  Uiso   1.00
C152   C     0.37629   0.77939   0.56007   0.00000  Uiso   1.00
C153   C     0.41693   0.69626   0.58551   0.00000  Uiso   1.00
C154   C     0.46453   0.65148   0.56131   0.00000  Uiso   1.00
C155   C     0.49623   0.57677   0.59128   0.00000  Uiso   1.00
C156   C     0.31797   0.72590   0.56310   0.00000  Uiso   1.00
C157   C     0.28237   0.70607   0.52005   0.00000  Uiso   1.00
C158   C     0.23075   0.65633   0.53115   0.00000  Uiso   1.00
C159   C     0.37452   0.87964   0.59756   0.00000  Uiso   1.00
C160   C     0.38645   0.98907   0.58348   0.00000  Uiso   1.00
C161   C     0.38243   0.06877   0.62359   0.00000  Uiso   1.00
H162   H     0.33594   0.70389   0.69705   0.00000  Uiso   1.00
H163   H     0.42122   0.57048   0.70829   0.00000  Uiso   1.00
H164   H     0.23908   0.62508   0.66703   0.00000  Uiso   1.00
H165   H     0.34316   0.90803   0.73045   0.00000  Uiso   1.00
H166   H     0.52256   0.43526   0.69767   0.00000  Uiso   1.00
H167   H     0.13850   0.55041   0.61069   0.00000  Uiso   1.00
H168   H     0.35796   0.14708   0.74442   0.00000  Uiso   1.00
H169   H     0.38828   0.80183   0.51935   0.00000  Uiso   1.00
H170   H     0.47644   0.67380   0.52084   0.00000  Uiso   1.00
H171   H     0.29430   0.72839   0.47959   0.00000  Uiso   1.00
H172   H     0.39837   0.01135   0.54301   0.00000  Uiso   1.00
H173   H     0.56738   0.51911   0.54553   0.00000  Uiso   1.00
H174   H     0.18331   0.63427   0.45855   0.00000  Uiso   1.00
H175   H     0.40277   0.23093   0.59228   0.00000  Uiso   1.00
O176   O     0.60201   0.39117   0.62578   0.00000  Uiso   1.00
O177   O     0.09813   0.54227   0.51166   0.00000  Uiso   1.00
O178   O     0.38606   0.32507   0.68712   0.00000  Uiso   1.00
N179   N     0.52101   0.47258   0.66167   0.00000  Uiso   1.00
N180   N     0.16194   0.58023   0.58034   0.00000  Uiso   1.00
N181   N     0.36710   0.13806   0.70537   0.00000  Uiso   1.00
N182   N     0.54513   0.51770   0.57980   0.00000  Uiso   1.00
N183   N     0.18606   0.62535   0.49848   0.00000  Uiso   1.00
N184   N     0.39122   0.18318   0.62350   0.00000  Uiso   1.00
C185   C     0.65207   0.22633   0.15634   0.00000  Uiso   1.00
C186   C     0.59847   0.16744   0.13781   0.00000  Uiso   1.00
C187   C     0.56684   0.09278   0.16782   0.00000  Uiso   1.00
C188   C     0.51920   0.04789   0.14366   0.00000  Uiso   1.00
C189   C     0.43834   0.95202   0.12283   0.00000  Uiso   1.00
C190   C     0.69743   0.19708   0.11539   0.00000  Uiso   1.00
C191   C     0.74901   0.14737   0.12656   0.00000  Uiso   1.00
C192   C     0.78468   0.12746   0.08353   0.00000  Uiso   1.00
C193   C     0.85747   0.07769   0.02790   0.00000  Uiso   1.00
C194   C     0.64088   0.35082   0.14985   0.00000  Uiso   1.00
C195   C     0.64492   0.43037   0.18999   0.00000  Uiso   1.00
C196   C     0.63299   0.53990   0.17597   0.00000  Uiso   1.00
C197   C     0.61798   0.72882   0.17385   0.00000  Uiso   1.00
C198   C     0.62371   0.27939   0.06007   0.00000  Uiso   1.00
C199   C     0.58307   0.19626   0.08551   0.00000  Uiso   1.00
C200   C     0.53547   0.15148   0.06131   0.00000  Uiso   1.00
C201   C     0.50377   0.07677   0.09128   0.00000  Uiso   1.00
C202   C     0.68203   0.22590   0.06310   0.00000  Uiso   1.00
C203   C     0.71763   0.20607   0.02005   0.00000  Uiso   1.00
C204   C     0.76925   0.15633   0.03115   0.00000  Uiso   1.00
C205   C     0.62548   0.37964   0.09756   0.00000  Uiso   1.00
C206   C     0.61355   0.48907   0.08348   0.00000  Uiso   1.00
C207   C     0.61757   0.56877   0.12359   0.00000  Uiso   1.00
H208   H     0.66406   0.20389   0.19705   0.00000  Uiso   1.00
H209   H     0.57878   0.07048   0.20829   0.00000  Uiso   1.00
H210   H     0.76092   0.12508   0.16703   0.00000  Uiso   1.00
H211   H     0.65684   0.40803   0.23045   0.00000  Uiso   1.00
H212   H     0.47744   0.93526   0.19767   0.00000  Uiso   1.00
H213   H     0.86150   0.05041   0.11069   0.00000  Uiso   1.00
H214   H     0.64204   0.64708   0.24442   0.00000  Uiso   1.00
H215   H     0.61172   0.30183   0.01935   0.00000  Uiso   1.00
H216   H     0.52356   0.17380   0.02084   0.00000  Uiso   1.00
H217   H     0.70570   0.22839   0.97959   0.00000  Uiso   1.00
H218   H     0.60163   0.51135   0.04301   0.00000  Uiso   1.00
H219   H     0.43262   0.01911   0.04553   0.00000  Uiso   1.00
H220   H     0.81669   0.13427   0.95855   0.00000  Uiso   1.00
H221   H     0.59723   0.73093   0.09228   0.00000  Uiso   1.00
O222   O     0.39799   0.89117   0.12578   0.00000  Uiso   1.00
O223   O     0.90187   0.04227   0.01166   0.00000  Uiso   1.00
O224   O     0.61394   0.82507   0.18712   0.00000  Uiso   1.00
N225   N     0.47899   0.97258   0.16167   0.00000  Uiso   1.00
N226   N     0.83806   0.08023   0.08034   0.00000  Uiso   1.00
N227   N     0.63290   0.63806   0.20537   0.00000  Uiso   1.00
N228   N     0.45487   0.01770   0.07980   0.00000  Uiso   1.00
N229   N     0.81394   0.12535   0.99848   0.00000  Uiso   1.00
N230   N     0.60878   0.68318   0.12350   0.00000  Uiso   1.00
C231   C     0.84793   0.77367   0.15634   0.00000  Uiso   1.00
C232   C     0.90153   0.83256   0.13781   0.00000  Uiso   1.00
C233   C     0.93316   0.90722   0.16782   0.00000  Uiso   1.00
C234   C     0.98080   0.95211   0.14366   0.00000  Uiso   1.00
C235   C     0.06166   0.04798   0.12283   0.00000  Uiso   1.00
C236   C     0.80257   0.80292   0.11539   0.00000  Uiso   1.00
C237   C     0.75099   0.85263   0.12656   0.00000  Uiso   1.00
C238   C     0.71532   0.87254   0.08353   0.00000  Uiso   1.00
C239   C     0.64253   0.92231   0.02790   0.00000  Uiso   1.00
C240   C     0.85912   0.64918   0.14985   0.00000  Uiso   1.00
C241   C     0.85508   0.56963   0.18999   0.00000  Uiso   1.00
C242   C     0.86701   0.46010   0.17597   0.00000  Uiso   1.00
C243   C     0.88202   0.27118   0.17385   0.00000  Uiso   1.00
C244   C     0.87629   0.72061   0.06007   0.00000  Uiso   1.00
C245   C     0.91693   0.80374   0.08551   0.00000  Uiso   1.00
C246   C     0.96453   0.84852   0.06131   0.00000  Uiso   1.00
C247   C     0.99623   0.92323   0.09128   0.00000  Uiso   1.00
C248   C     0.81797   0.77410   0.06310   0.00000  Uiso   1.00
C249   C     0.78237   0.79393   0.02005   0.00000  Uiso   1.00
C250   C     0.73075   0.84367   0.03115   0.00000  Uiso   1.00
C251   C     0.87452   0.62036   0.09756   0.00000  Uiso   1.00
C252   C     0.88645   0.51093   0.08348   0.00000  Uiso   1.00
C253   C     0.88243   0.43123   0.12359   0.00000  Uiso   1.00
H254   H     0.83594   0.79611   0.19705   0.00000  Uiso   1.00
H255   H     0.92122   0.92952   0.20829   0.00000  Uiso   1.00
H256   H     0.73908   0.87492   0.16703   0.00000  Uiso   1.00
H257   H     0.84316   0.59197   0.23045   0.00000  Uiso   1.00
H258   H     0.02256   0.06474   0.19767   0.00000  Uiso   1.00
H259   H     0.63850   0.94959   0.11069   0.00000  Uiso   1.00
H260   H     0.85796   0.35292   0.24442   0.00000  Uiso   1.00
H261   H     0.88828   0.69817   0.01935   0.00000  Uiso   1.00
H262   H     0.97644   0.82620   0.02084   0.00000  Uiso   1.00
H263   H     0.79430   0.77161   0.97959   0.00000  Uiso   1.00
H264   H     0.89837   0.48865   0.04301   0.00000  Uiso   1.00
H265   H     0.06738   0.98089   0.04553   0.00000  Uiso   1.00
H266   H     0.68331   0.86573   0.95855   0.00000  Uiso   1.00
H267   H     0.90277   0.26907   0.09228   0.00000  Uiso   1.00
O268   O     0.10201   0.10883   0.12578   0.00000  Uiso   1.00
O269   O     0.59813   0.95773   0.01166   0.00000  Uiso   1.00
O270   O     0.88606   0.17493   0.18712   0.00000  Uiso   1.00
N271   N     0.02101   0.02742   0.16167   0.00000  Uiso   1.00
N272   N     0.66194   0.91977   0.08034   0.00000  Uiso   1.00
N273   N     0.86710   0.36194   0.20537   0.00000  Uiso   1.00
N274   N     0.04513   0.98230   0.07980   0.00000  Uiso   1.00
N275   N     0.68606   0.87465   0.99848   0.00000  Uiso   1.00
N276   N     0.89122   0.31682   0.12350   0.00000  Uiso   1.00
C277   C     0.84793   0.72633   0.34366   0.00000  Uiso   1.00
C278   C     0.90153   0.66744   0.36219   0.00000  Uiso   1.00
C279   C     0.93316   0.59278   0.33218   0.00000  Uiso   1.00
C280   C     0.98080   0.54789   0.35634   0.00000  Uiso   1.00
C281   C     0.06166   0.45202   0.37717   0.00000  Uiso   1.00
C282   C     0.80257   0.69708   0.38461   0.00000  Uiso   1.00
C283   C     0.75099   0.64737   0.37344   0.00000  Uiso   1.00
C284   C     0.71532   0.62746   0.41647   0.00000  Uiso   1.00
C285   C     0.64253   0.57769   0.47210   0.00000  Uiso   1.00
C286   C     0.85912   0.85082   0.35015   0.00000  Uiso   1.00
C287   C     0.85508   0.93037   0.31001   0.00000  Uiso   1.00
C288   C     0.86701   0.03990   0.32403   0.00000  Uiso   1.00
C289   C     0.88202   0.22882   0.32615   0.00000  Uiso   1.00
C290   C     0.87629   0.77939   0.43993   0.00000  Uiso   1.00
C291   C     0.91693   0.69626   0.41449   0.00000  Uiso   1.00
C292   C     0.96453   0.65148   0.43869   0.00000  Uiso   1.00
C293   C     0.99623   0.57677   0.40872   0.00000  Uiso   1.00
C294   C     0.81797   0.72590   0.43690   0.00000  Uiso   1.00
C295   C     0.78237   0.70607   0.47995   0.00000  Uiso   1.00
C296   C     0.73075   0.65633   0.46885   0.00000  Uiso   1.00
C297   C     0.87452   0.87964   0.40244   0.00000  Uiso   1.00
C298   C     0.88645   0.98907   0.41652   0.00000  Uiso   1.00
C299   C     0.88243   0.06877   0.37641   0.00000  Uiso   1.00
H300   H     0.83594   0.70389   0.30295   0.00000  Uiso   1.00
H301   H     0.92122   0.57048   0.29171   0.00000  Uiso   1.00
H302   H     0.73908   0.62508   0.33297   0.00000  Uiso   1.00
H303   H     0.84316   0.90803   0.26955   0.00000  Uiso   1.00
H304   H     0.02256   0.43526   0.30233   0.00000  Uiso   1.00
H305   H     0.63850   0.55041   0.38931   0.00000  Uiso   1.00
H306   H     0.85796   0.14708   0.25558   0.00000  Uiso   1.00
H307   H     0.88828   0.80183   0.48065   0.00000  Uiso   1.00
H308   H     0.97644   0.67380   0.47916   0.00000  Uiso   1.00
H309   H     0.79430   0.72839   0.52041   0.00000  Uiso   1.00
H310   H     0.89837   0.01135   0.45699   0.00000  Uiso   1.00
H311   H     0.06738   0.51911   0.45447   0.00000  Uiso   1.00
H312   H     0.68331   0.63427   0.54145   0.00000  Uiso   1.00
H313   H     0.90277   0.23093   0.40772   0.00000  Uiso   1.00
O314   O     0.10201   0.39117   0.37422   0.00000  Uiso   1.00
O315   O     0.59813   0.54227   0.48834   0.00000  Uiso   1.00
O316   O     0.88606   0.32507   0.31288   0.00000  Uiso   1.00
N317   N     0.02101   0.47258   0.33833   0.00000  Uiso   1.00
N318   N     0.66194   0.58023   0.41966   0.00000  Uiso   1.00
N319   N     0.86710   0.13806   0.29463   0.00000  Uiso   1.00
N320   N     0.04513   0.51770   0.42020   0.00000  Uiso   1.00
N321   N     0.68606   0.62535   0.50152   0.00000  Uiso   1.00
N322   N     0.89122   0.18318   0.37650   0.00000  Uiso   1.00
C323   C     0.65207   0.27367   0.34366   0.00000  Uiso   1.00
C324   C     0.59847   0.33256   0.36219   0.00000  Uiso   1.00
C325   C     0.56684   0.40722   0.33218   0.00000  Uiso   1.00
C326   C     0.51920   0.45211   0.35634   0.00000  Uiso   1.00
C327   C     0.43834   0.54798   0.37717   0.00000  Uiso   1.00
C328   C     0.69743   0.30292   0.38461   0.00000  Uiso   1.00
C329   C     0.74901   0.35263   0.37344   0.00000  Uiso   1.00
C330   C     0.78468   0.37254   0.41647   0.00000  Uiso   1.00
C331   C     0.85747   0.42231   0.47210   0.00000  Uiso   1.00
C332   C     0.64088   0.14918   0.35015   0.00000  Uiso   1.00
C333   C     0.64492   0.06963   0.31001   0.00000  Uiso   1.00
C334   C     0.63299   0.96010   0.32403   0.00000  Uiso   1.00
C335   C     0.61798   0.77118   0.32615   0.00000  Uiso   1.00
C336   C     0.62371   0.22061   0.43993   0.00000  Uiso   1.00
C337   C     0.58307   0.30374   0.41449   0.00000  Uiso   1.00
C338   C     0.53547   0.34852   0.43869   0.00000  Uiso   1.00
C339   C     0.50377   0.42323   0.40872   0.00000  Uiso   1.00
C340   C     0.68203   0.27410   0.43690   0.00000  Uiso   1.00
C341   C     0.71763   0.29393   0.47995   0.00000  Uiso   1.00
C342   C     0.76925   0.34367   0.46885   0.00000  Uiso   1.00
C343   C     0.62548   0.12036   0.40244   0.00000  Uiso   1.00
C344   C     0.61355   0.01093   0.41652   0.00000  Uiso   1.00
C345   C     0.61757   0.93123   0.37641   0.00000  Uiso   1.00
H346   H     0.66406   0.29611   0.30295   0.00000  Uiso   1.00
H347   H     0.57878   0.42952   0.29171   0.00000  Uiso   1.00
H348   H     0.76092   0.37492   0.33297   0.00000  Uiso   1.00
H349   H     0.65684   0.09197   0.26955   0.00000  Uiso   1.00
H350   H     0.47744   0.56474   0.30233   0.00000  Uiso   1.00
H351   H     0.86150   0.44959   0.38931   0.00000  Uiso   1.00
H352   H     0.64204   0.85292   0.25558   0.00000  Uiso   1.00
H353   H     0.61172   0.19817   0.48065   0.00000  Uiso   1.00
H354   H     0.52356   0.32620   0.47916   0.00000  Uiso   1.00
H355   H     0.70570   0.27161   0.52041   0.00000  Uiso   1.00
H356   H     0.60163   0.98865   0.45699   0.00000  Uiso   1.00
H357   H     0.43262   0.48089   0.45447   0.00000  Uiso   1.00
H358   H     0.81669   0.36573   0.54145   0.00000  Uiso   1.00
H359   H     0.59723   0.76907   0.40772   0.00000  Uiso   1.00
O360   O     0.39799   0.60883   0.37422   0.00000  Uiso   1.00
O361   O     0.90187   0.45773   0.48834   0.00000  Uiso   1.00
O362   O     0.61394   0.67493   0.31288   0.00000  Uiso   1.00
N363   N     0.47899   0.52742   0.33833   0.00000  Uiso   1.00
N364   N     0.83806   0.41977   0.41966   0.00000  Uiso   1.00
N365   N     0.63290   0.86194   0.29463   0.00000  Uiso   1.00
N366   N     0.45487   0.48230   0.42020   0.00000  Uiso   1.00
N367   N     0.81394   0.37465   0.50152   0.00000  Uiso   1.00
N368   N     0.60878   0.81682   0.37650   0.00000  Uiso   1.00
