data_job_02902
_audit_creation_date              2018-12-19
_audit_creation_method            'Materials Studio'
_symmetry_space_group_name_H-M    'P1'
_symmetry_Int_Tables_number       1
_symmetry_cell_setting            triclinic
loop_
_symmetry_equiv_pos_as_xyz
  x,y,z
_cell_length_a                    14.4399
_cell_length_b                    13.6194
_cell_length_c                    26.5824
_cell_angle_alpha                 90.0000
_cell_angle_beta                  90.0000
_cell_angle_gamma                 90.0000
loop_
_atom_site_label
_atom_site_type_symbol
_atom_site_fract_x
_atom_site_fract_y
_atom_site_fract_z
_atom_site_U_iso_or_equiv
_atom_site_adp_type
_atom_site_occupancy
C1     C     0.68208   0.64037   0.86534   0.00000  Uiso   1.00
C2     C     0.58031   0.62660   0.87893   0.00000  Uiso   1.00
C3     C     0.51404   0.70031   0.88081   0.00000  Uiso   1.00
C4     C     0.42475   0.67273   0.89405   0.00000  Uiso   1.00
C5     C     0.27009   0.66623   0.91351   0.00000  Uiso   1.00
C6     C     0.73727   0.59975   0.90960   0.00000  Uiso   1.00
C7     C     0.80298   0.65089   0.93726   0.00000  Uiso   1.00
C8     C     0.84582   0.60069   0.97632   0.00000  Uiso   1.00
C9     C     0.93490   0.55249   0.04337   0.00000  Uiso   1.00
C10    C     0.70074   0.57138   0.82132   0.00000  Uiso   1.00
C11    C     0.73577   0.59865   0.77475   0.00000  Uiso   1.00
C12    C     0.74789   0.52456   0.73948   0.00000  Uiso   1.00
C13    C     0.78026   0.43230   0.66945   0.00000  Uiso   1.00
C14    C     0.64133   0.46031   0.88551   0.00000  Uiso   1.00
C15    C     0.55818   0.52880   0.88989   0.00000  Uiso   1.00
C16    C     0.46896   0.50109   0.90312   0.00000  Uiso   1.00
C17    C     0.40257   0.57475   0.90502   0.00000  Uiso   1.00
C18    C     0.71514   0.50195   0.92056   0.00000  Uiso   1.00
C19    C     0.75789   0.45167   0.95958   0.00000  Uiso   1.00
C20    C     0.82365   0.50271   0.98729   0.00000  Uiso   1.00
C21    C     0.67861   0.47357   0.83227   0.00000  Uiso   1.00
C22    C     0.69068   0.39943   0.79706   0.00000  Uiso   1.00
C23    C     0.72572   0.42658   0.75045   0.00000  Uiso   1.00
H24    H     0.69932   0.71652   0.85682   0.00000  Uiso   1.00
H25    H     0.53120   0.77599   0.87234   0.00000  Uiso   1.00
H26    H     0.82010   0.72657   0.92878   0.00000  Uiso   1.00
H27    H     0.75289   0.67434   0.76629   0.00000  Uiso   1.00
H28    H     0.33506   0.79881   0.89439   0.00000  Uiso   1.00
H29    H     0.94424   0.69458   0.01339   0.00000  Uiso   1.00
H30    H     0.80253   0.58445   0.67075   0.00000  Uiso   1.00
H31    H     0.62410   0.38416   0.89404   0.00000  Uiso   1.00
H32    H     0.45185   0.42540   0.91160   0.00000  Uiso   1.00
H33    H     0.74075   0.37598   0.96804   0.00000  Uiso   1.00
H34    H     0.67355   0.32375   0.80555   0.00000  Uiso   1.00
H35    H     0.27065   0.51426   0.92626   0.00000  Uiso   1.00
H36    H     0.87984   0.41003   0.04526   0.00000  Uiso   1.00
H37    H     0.73813   0.29990   0.70262   0.00000  Uiso   1.00
O38    O     0.19091   0.68966   0.92123   0.00000  Uiso   1.00
O39    O     0.99015   0.55292   0.07733   0.00000  Uiso   1.00
O40    O     0.80422   0.40843   0.62780   0.00000  Uiso   1.00
N41    N     0.34354   0.72618   0.89947   0.00000  Uiso   1.00
N42    N     0.91308   0.62874   0.01073   0.00000  Uiso   1.00
N43    N     0.78061   0.52577   0.69040   0.00000  Uiso   1.00
N44    N     0.30888   0.57306   0.91662   0.00000  Uiso   1.00
N45    N     0.87842   0.47562   0.02788   0.00000  Uiso   1.00
N46    N     0.74596   0.37265   0.70755   0.00000  Uiso   1.00
C47    C     0.81792   0.85963   0.36534   0.00000  Uiso   1.00
C48    C     0.91969   0.87340   0.37893   0.00000  Uiso   1.00
C49    C     0.98596   0.79969   0.38081   0.00000  Uiso   1.00
C50    C     0.07525   0.82727   0.39405   0.00000  Uiso   1.00
C51    C     0.22991   0.83377   0.41351   0.00000  Uiso   1.00
C52    C     0.76273   0.90025   0.40960   0.00000  Uiso   1.00
C53    C     0.69702   0.84911   0.43726   0.00000  Uiso   1.00
C54    C     0.65418   0.89931   0.47632   0.00000  Uiso   1.00
C55    C     0.56510   0.94751   0.54337   0.00000  Uiso   1.00
C56    C     0.79926   0.92862   0.32132   0.00000  Uiso   1.00
C57    C     0.76423   0.90135   0.27475   0.00000  Uiso   1.00
C58    C     0.75211   0.97544   0.23948   0.00000  Uiso   1.00
C59    C     0.71974   0.06770   0.16945   0.00000  Uiso   1.00
C60    C     0.85867   0.03969   0.38551   0.00000  Uiso   1.00
C61    C     0.94182   0.97120   0.38989   0.00000  Uiso   1.00
C62    C     0.03104   0.99891   0.40312   0.00000  Uiso   1.00
C63    C     0.09743   0.92525   0.40502   0.00000  Uiso   1.00
C64    C     0.78486   0.99805   0.42056   0.00000  Uiso   1.00
C65    C     0.74211   0.04833   0.45958   0.00000  Uiso   1.00
C66    C     0.67635   0.99729   0.48729   0.00000  Uiso   1.00
C67    C     0.82139   0.02643   0.33227   0.00000  Uiso   1.00
C68    C     0.80932   0.10057   0.29706   0.00000  Uiso   1.00
C69    C     0.77428   0.07342   0.25045   0.00000  Uiso   1.00
H70    H     0.80068   0.78348   0.35682   0.00000  Uiso   1.00
H71    H     0.96880   0.72401   0.37234   0.00000  Uiso   1.00
H72    H     0.67990   0.77343   0.42878   0.00000  Uiso   1.00
H73    H     0.74711   0.82566   0.26629   0.00000  Uiso   1.00
H74    H     0.16494   0.70119   0.39439   0.00000  Uiso   1.00
H75    H     0.55576   0.80542   0.51339   0.00000  Uiso   1.00
H76    H     0.69747   0.91555   0.17075   0.00000  Uiso   1.00
H77    H     0.87590   0.11584   0.39404   0.00000  Uiso   1.00
H78    H     0.04815   0.07460   0.41160   0.00000  Uiso   1.00
H79    H     0.75925   0.12402   0.46804   0.00000  Uiso   1.00
H80    H     0.82645   0.17625   0.30555   0.00000  Uiso   1.00
H81    H     0.22935   0.98574   0.42626   0.00000  Uiso   1.00
H82    H     0.62016   0.08997   0.54526   0.00000  Uiso   1.00
H83    H     0.76187   0.20010   0.20262   0.00000  Uiso   1.00
O84    O     0.30909   0.81034   0.42123   0.00000  Uiso   1.00
O85    O     0.50985   0.94708   0.57733   0.00000  Uiso   1.00
O86    O     0.69578   0.09157   0.12780   0.00000  Uiso   1.00
N87    N     0.15646   0.77382   0.39947   0.00000  Uiso   1.00
N88    N     0.58692   0.87126   0.51073   0.00000  Uiso   1.00
N89    N     0.71939   0.97423   0.19040   0.00000  Uiso   1.00
N90    N     0.19112   0.92694   0.41662   0.00000  Uiso   1.00
N91    N     0.62158   0.02438   0.52788   0.00000  Uiso   1.00
N92    N     0.75404   0.12735   0.20755   0.00000  Uiso   1.00
C93    C     0.31792   0.64037   0.63466   0.00000  Uiso   1.00
C94    C     0.41969   0.62660   0.62107   0.00000  Uiso   1.00
C95    C     0.48596   0.70031   0.61919   0.00000  Uiso   1.00
C96    C     0.57525   0.67273   0.60595   0.00000  Uiso   1.00
C97    C     0.72991   0.66623   0.58649   0.00000  Uiso   1.00
C98    C     0.26273   0.59975   0.59040   0.00000  Uiso   1.00
C99    C     0.19702   0.65089   0.56274   0.00000  Uiso   1.00
C100   C     0.15418   0.60069   0.52368   0.00000  Uiso   1.00
C101   C     0.06510   0.55249   0.45663   0.00000  Uiso   1.00
C102   C     0.29926   0.57138   0.67868   0.00000  Uiso   1.00
C103   C     0.26423   0.59865   0.72525   0.00000  Uiso   1.00
C104   C     0.25211   0.52456   0.76052   0.00000  Uiso   1.00
C105   C     0.21974   0.43230   0.83055   0.00000  Uiso   1.00
C106   C     0.35867   0.46031   0.61449   0.00000  Uiso   1.00
C107   C     0.44182   0.52880   0.61011   0.00000  Uiso   1.00
C108   C     0.53104   0.50109   0.59688   0.00000  Uiso   1.00
C109   C     0.59743   0.57475   0.59498   0.00000  Uiso   1.00
C110   C     0.28486   0.50195   0.57944   0.00000  Uiso   1.00
C111   C     0.24211   0.45167   0.54042   0.00000  Uiso   1.00
C112   C     0.17635   0.50271   0.51271   0.00000  Uiso   1.00
C113   C     0.32139   0.47357   0.66773   0.00000  Uiso   1.00
C114   C     0.30932   0.39943   0.70294   0.00000  Uiso   1.00
C115   C     0.27428   0.42658   0.74955   0.00000  Uiso   1.00
H116   H     0.30068   0.71652   0.64318   0.00000  Uiso   1.00
H117   H     0.46880   0.77599   0.62766   0.00000  Uiso   1.00
H118   H     0.17990   0.72657   0.57122   0.00000  Uiso   1.00
H119   H     0.24711   0.67434   0.73371   0.00000  Uiso   1.00
H120   H     0.66494   0.79881   0.60561   0.00000  Uiso   1.00
H121   H     0.05576   0.69458   0.48661   0.00000  Uiso   1.00
H122   H     0.19747   0.58445   0.82925   0.00000  Uiso   1.00
H123   H     0.37590   0.38416   0.60596   0.00000  Uiso   1.00
H124   H     0.54815   0.42540   0.58840   0.00000  Uiso   1.00
H125   H     0.25925   0.37598   0.53196   0.00000  Uiso   1.00
H126   H     0.32645   0.32375   0.69445   0.00000  Uiso   1.00
H127   H     0.72935   0.51426   0.57374   0.00000  Uiso   1.00
H128   H     0.12016   0.41003   0.45474   0.00000  Uiso   1.00
H129   H     0.26187   0.29990   0.79738   0.00000  Uiso   1.00
O130   O     0.80909   0.68966   0.57877   0.00000  Uiso   1.00
O131   O     0.00985   0.55292   0.42267   0.00000  Uiso   1.00
O132   O     0.19578   0.40843   0.87220   0.00000  Uiso   1.00
N133   N     0.65646   0.72618   0.60053   0.00000  Uiso   1.00
N134   N     0.08692   0.62874   0.48927   0.00000  Uiso   1.00
N135   N     0.21939   0.52577   0.80960   0.00000  Uiso   1.00
N136   N     0.69112   0.57306   0.58338   0.00000  Uiso   1.00
N137   N     0.12158   0.47562   0.47212   0.00000  Uiso   1.00
N138   N     0.25404   0.37265   0.79245   0.00000  Uiso   1.00
C139   C     0.18208   0.85963   0.13466   0.00000  Uiso   1.00
C140   C     0.08031   0.87340   0.12107   0.00000  Uiso   1.00
C141   C     0.01404   0.79969   0.11919   0.00000  Uiso   1.00
C142   C     0.92475   0.82727   0.10595   0.00000  Uiso   1.00
C143   C     0.77009   0.83377   0.08649   0.00000  Uiso   1.00
C144   C     0.23727   0.90025   0.09040   0.00000  Uiso   1.00
C145   C     0.30298   0.84911   0.06274   0.00000  Uiso   1.00
C146   C     0.34582   0.89931   0.02368   0.00000  Uiso   1.00
C147   C     0.43490   0.94751   0.95663   0.00000  Uiso   1.00
C148   C     0.20074   0.92862   0.17868   0.00000  Uiso   1.00
C149   C     0.23577   0.90135   0.22525   0.00000  Uiso   1.00
C150   C     0.24789   0.97544   0.26052   0.00000  Uiso   1.00
C151   C     0.28026   0.06770   0.33055   0.00000  Uiso   1.00
C152   C     0.14133   0.03969   0.11449   0.00000  Uiso   1.00
C153   C     0.05818   0.97120   0.11011   0.00000  Uiso   1.00
C154   C     0.96896   0.99891   0.09688   0.00000  Uiso   1.00
C155   C     0.90257   0.92525   0.09498   0.00000  Uiso   1.00
C156   C     0.21514   0.99805   0.07944   0.00000  Uiso   1.00
C157   C     0.25789   0.04833   0.04042   0.00000  Uiso   1.00
C158   C     0.32365   0.99729   0.01271   0.00000  Uiso   1.00
C159   C     0.17861   0.02643   0.16773   0.00000  Uiso   1.00
C160   C     0.19068   0.10057   0.20294   0.00000  Uiso   1.00
C161   C     0.22572   0.07342   0.24955   0.00000  Uiso   1.00
H162   H     0.19932   0.78348   0.14318   0.00000  Uiso   1.00
H163   H     0.03120   0.72401   0.12766   0.00000  Uiso   1.00
H164   H     0.32010   0.77343   0.07122   0.00000  Uiso   1.00
H165   H     0.25289   0.82566   0.23371   0.00000  Uiso   1.00
H166   H     0.83506   0.70119   0.10561   0.00000  Uiso   1.00
H167   H     0.44424   0.80542   0.98661   0.00000  Uiso   1.00
H168   H     0.30253   0.91555   0.32925   0.00000  Uiso   1.00
H169   H     0.12410   0.11584   0.10596   0.00000  Uiso   1.00
H170   H     0.95185   0.07460   0.08840   0.00000  Uiso   1.00
H171   H     0.24075   0.12402   0.03196   0.00000  Uiso   1.00
H172   H     0.17355   0.17625   0.19445   0.00000  Uiso   1.00
H173   H     0.77065   0.98574   0.07374   0.00000  Uiso   1.00
H174   H     0.37984   0.08997   0.95474   0.00000  Uiso   1.00
H175   H     0.23813   0.20010   0.29738   0.00000  Uiso   1.00
O176   O     0.69091   0.81034   0.07877   0.00000  Uiso   1.00
O177   O     0.49015   0.94708   0.92267   0.00000  Uiso   1.00
O178   O     0.30422   0.09157   0.37220   0.00000  Uiso   1.00
N179   N     0.84354   0.77382   0.10053   0.00000  Uiso   1.00
N180   N     0.41308   0.87126   0.98927   0.00000  Uiso   1.00
N181   N     0.28061   0.97423   0.30960   0.00000  Uiso   1.00
N182   N     0.80888   0.92694   0.08338   0.00000  Uiso   1.00
N183   N     0.37842   0.02438   0.97212   0.00000  Uiso   1.00
N184   N     0.24596   0.12735   0.29245   0.00000  Uiso   1.00
C185   C     0.31792   0.35963   0.13466   0.00000  Uiso   1.00
C186   C     0.41969   0.37340   0.12107   0.00000  Uiso   1.00
C187   C     0.48596   0.29969   0.11919   0.00000  Uiso   1.00
C188   C     0.57525   0.32727   0.10595   0.00000  Uiso   1.00
C189   C     0.72991   0.33377   0.08649   0.00000  Uiso   1.00
C190   C     0.26273   0.40025   0.09040   0.00000  Uiso   1.00
C191   C     0.19702   0.34911   0.06274   0.00000  Uiso   1.00
C192   C     0.15418   0.39931   0.02368   0.00000  Uiso   1.00
C193   C     0.06510   0.44751   0.95663   0.00000  Uiso   1.00
C194   C     0.29926   0.42862   0.17868   0.00000  Uiso   1.00
C195   C     0.26423   0.40135   0.22525   0.00000  Uiso   1.00
C196   C     0.25211   0.47544   0.26052   0.00000  Uiso   1.00
C197   C     0.21974   0.56770   0.33055   0.00000  Uiso   1.00
C198   C     0.35867   0.53969   0.11449   0.00000  Uiso   1.00
C199   C     0.44182   0.47120   0.11011   0.00000  Uiso   1.00
C200   C     0.53104   0.49891   0.09688   0.00000  Uiso   1.00
C201   C     0.59743   0.42525   0.09498   0.00000  Uiso   1.00
C202   C     0.28486   0.49805   0.07944   0.00000  Uiso   1.00
C203   C     0.24211   0.54833   0.04042   0.00000  Uiso   1.00
C204   C     0.17635   0.49729   0.01271   0.00000  Uiso   1.00
C205   C     0.32139   0.52643   0.16773   0.00000  Uiso   1.00
C206   C     0.30932   0.60057   0.20294   0.00000  Uiso   1.00
C207   C     0.27428   0.57342   0.24955   0.00000  Uiso   1.00
H208   H     0.30068   0.28348   0.14318   0.00000  Uiso   1.00
H209   H     0.46880   0.22401   0.12766   0.00000  Uiso   1.00
H210   H     0.17990   0.27343   0.07122   0.00000  Uiso   1.00
H211   H     0.24711   0.32566   0.23371   0.00000  Uiso   1.00
H212   H     0.66494   0.20119   0.10561   0.00000  Uiso   1.00
H213   H     0.05576   0.30542   0.98661   0.00000  Uiso   1.00
H214   H     0.19747   0.41555   0.32925   0.00000  Uiso   1.00
H215   H     0.37590   0.61584   0.10596   0.00000  Uiso   1.00
H216   H     0.54815   0.57460   0.08840   0.00000  Uiso   1.00
H217   H     0.25925   0.62402   0.03196   0.00000  Uiso   1.00
H218   H     0.32645   0.67625   0.19445   0.00000  Uiso   1.00
H219   H     0.72935   0.48574   0.07374   0.00000  Uiso   1.00
H220   H     0.12016   0.58997   0.95474   0.00000  Uiso   1.00
H221   H     0.26187   0.70010   0.29738   0.00000  Uiso   1.00
O222   O     0.80909   0.31034   0.07877   0.00000  Uiso   1.00
O223   O     0.00985   0.44708   0.92267   0.00000  Uiso   1.00
O224   O     0.19578   0.59157   0.37220   0.00000  Uiso   1.00
N225   N     0.65646   0.27382   0.10053   0.00000  Uiso   1.00
N226   N     0.08692   0.37126   0.98927   0.00000  Uiso   1.00
N227   N     0.21939   0.47423   0.30960   0.00000  Uiso   1.00
N228   N     0.69112   0.42694   0.08338   0.00000  Uiso   1.00
N229   N     0.12158   0.52438   0.97212   0.00000  Uiso   1.00
N230   N     0.25404   0.62735   0.29245   0.00000  Uiso   1.00
C231   C     0.18208   0.14037   0.63466   0.00000  Uiso   1.00
C232   C     0.08031   0.12660   0.62107   0.00000  Uiso   1.00
C233   C     0.01404   0.20031   0.61919   0.00000  Uiso   1.00
C234   C     0.92475   0.17273   0.60595   0.00000  Uiso   1.00
C235   C     0.77009   0.16623   0.58649   0.00000  Uiso   1.00
C236   C     0.23727   0.09975   0.59040   0.00000  Uiso   1.00
C237   C     0.30298   0.15089   0.56274   0.00000  Uiso   1.00
C238   C     0.34582   0.10069   0.52368   0.00000  Uiso   1.00
C239   C     0.43490   0.05249   0.45663   0.00000  Uiso   1.00
C240   C     0.20074   0.07138   0.67868   0.00000  Uiso   1.00
C241   C     0.23577   0.09865   0.72525   0.00000  Uiso   1.00
C242   C     0.24789   0.02456   0.76052   0.00000  Uiso   1.00
C243   C     0.28026   0.93230   0.83055   0.00000  Uiso   1.00
C244   C     0.14133   0.96031   0.61449   0.00000  Uiso   1.00
C245   C     0.05818   0.02880   0.61011   0.00000  Uiso   1.00
C246   C     0.96896   0.00109   0.59688   0.00000  Uiso   1.00
C247   C     0.90257   0.07475   0.59498   0.00000  Uiso   1.00
C248   C     0.21514   0.00195   0.57944   0.00000  Uiso   1.00
C249   C     0.25789   0.95167   0.54042   0.00000  Uiso   1.00
C250   C     0.32365   0.00271   0.51271   0.00000  Uiso   1.00
C251   C     0.17861   0.97357   0.66773   0.00000  Uiso   1.00
C252   C     0.19068   0.89943   0.70294   0.00000  Uiso   1.00
C253   C     0.22572   0.92658   0.74955   0.00000  Uiso   1.00
H254   H     0.19932   0.21652   0.64318   0.00000  Uiso   1.00
H255   H     0.03120   0.27599   0.62766   0.00000  Uiso   1.00
H256   H     0.32010   0.22657   0.57122   0.00000  Uiso   1.00
H257   H     0.25289   0.17434   0.73371   0.00000  Uiso   1.00
H258   H     0.83506   0.29881   0.60561   0.00000  Uiso   1.00
H259   H     0.44424   0.19458   0.48661   0.00000  Uiso   1.00
H260   H     0.30253   0.08445   0.82925   0.00000  Uiso   1.00
H261   H     0.12410   0.88416   0.60596   0.00000  Uiso   1.00
H262   H     0.95185   0.92540   0.58840   0.00000  Uiso   1.00
H263   H     0.24075   0.87598   0.53196   0.00000  Uiso   1.00
H264   H     0.17355   0.82375   0.69445   0.00000  Uiso   1.00
H265   H     0.77065   0.01426   0.57374   0.00000  Uiso   1.00
H266   H     0.37984   0.91003   0.45474   0.00000  Uiso   1.00
H267   H     0.23813   0.79990   0.79738   0.00000  Uiso   1.00
O268   O     0.69091   0.18966   0.57877   0.00000  Uiso   1.00
O269   O     0.49015   0.05292   0.42267   0.00000  Uiso   1.00
O270   O     0.30422   0.90843   0.87220   0.00000  Uiso   1.00
N271   N     0.84354   0.22618   0.60053   0.00000  Uiso   1.00
N272   N     0.41308   0.12874   0.48927   0.00000  Uiso   1.00
N273   N     0.28061   0.02577   0.80960   0.00000  Uiso   1.00
N274   N     0.80888   0.07306   0.58338   0.00000  Uiso   1.00
N275   N     0.37842   0.97562   0.47212   0.00000  Uiso   1.00
N276   N     0.24596   0.87265   0.79245   0.00000  Uiso   1.00
C277   C     0.68208   0.35963   0.36534   0.00000  Uiso   1.00
C278   C     0.58031   0.37340   0.37893   0.00000  Uiso   1.00
C279   C     0.51404   0.29969   0.38081   0.00000  Uiso   1.00
C280   C     0.42475   0.32727   0.39405   0.00000  Uiso   1.00
C281   C     0.27009   0.33377   0.41351   0.00000  Uiso   1.00
C282   C     0.73727   0.40025   0.40960   0.00000  Uiso   1.00
C283   C     0.80298   0.34911   0.43726   0.00000  Uiso   1.00
C284   C     0.84582   0.39931   0.47632   0.00000  Uiso   1.00
C285   C     0.93490   0.44751   0.54337   0.00000  Uiso   1.00
C286   C     0.70074   0.42862   0.32132   0.00000  Uiso   1.00
C287   C     0.73577   0.40135   0.27475   0.00000  Uiso   1.00
C288   C     0.74789   0.47544   0.23948   0.00000  Uiso   1.00
C289   C     0.78026   0.56770   0.16945   0.00000  Uiso   1.00
C290   C     0.64133   0.53969   0.38551   0.00000  Uiso   1.00
C291   C     0.55818   0.47120   0.38989   0.00000  Uiso   1.00
C292   C     0.46896   0.49891   0.40312   0.00000  Uiso   1.00
C293   C     0.40257   0.42525   0.40502   0.00000  Uiso   1.00
C294   C     0.71514   0.49805   0.42056   0.00000  Uiso   1.00
C295   C     0.75789   0.54833   0.45958   0.00000  Uiso   1.00
C296   C     0.82365   0.49729   0.48729   0.00000  Uiso   1.00
C297   C     0.67861   0.52643   0.33227   0.00000  Uiso   1.00
C298   C     0.69068   0.60057   0.29706   0.00000  Uiso   1.00
C299   C     0.72572   0.57342   0.25045   0.00000  Uiso   1.00
H300   H     0.69932   0.28348   0.35682   0.00000  Uiso   1.00
H301   H     0.53120   0.22401   0.37234   0.00000  Uiso   1.00
H302   H     0.82010   0.27343   0.42878   0.00000  Uiso   1.00
H303   H     0.75289   0.32566   0.26629   0.00000  Uiso   1.00
H304   H     0.33506   0.20119   0.39439   0.00000  Uiso   1.00
H305   H     0.94424   0.30542   0.51339   0.00000  Uiso   1.00
H306   H     0.80253   0.41555   0.17075   0.00000  Uiso   1.00
H307   H     0.62410   0.61584   0.39404   0.00000  Uiso   1.00
H308   H     0.45185   0.57460   0.41160   0.00000  Uiso   1.00
H309   H     0.74075   0.62402   0.46804   0.00000  Uiso   1.00
H310   H     0.67355   0.67625   0.30555   0.00000  Uiso   1.00
H311   H     0.27065   0.48574   0.42626   0.00000  Uiso   1.00
H312   H     0.87984   0.58997   0.54526   0.00000  Uiso   1.00
H313   H     0.73813   0.70010   0.20262   0.00000  Uiso   1.00
O314   O     0.19091   0.31034   0.42123   0.00000  Uiso   1.00
O315   O     0.99015   0.44708   0.57733   0.00000  Uiso   1.00
O316   O     0.80422   0.59157   0.12780   0.00000  Uiso   1.00
N317   N     0.34354   0.27382   0.39947   0.00000  Uiso   1.00
N318   N     0.91308   0.37126   0.51073   0.00000  Uiso   1.00
N319   N     0.78061   0.47423   0.19040   0.00000  Uiso   1.00
N320   N     0.30888   0.42694   0.41662   0.00000  Uiso   1.00
N321   N     0.87842   0.52438   0.52788   0.00000  Uiso   1.00
N322   N     0.74596   0.62735   0.20755   0.00000  Uiso   1.00
C323   C     0.81792   0.14037   0.86534   0.00000  Uiso   1.00
C324   C     0.91969   0.12660   0.87893   0.00000  Uiso   1.00
C325   C     0.98596   0.20031   0.88081   0.00000  Uiso   1.00
C326   C     0.07525   0.17273   0.89405   0.00000  Uiso   1.00
C327   C     0.22991   0.16623   0.91351   0.00000  Uiso   1.00
C328   C     0.76273   0.09975   0.90960   0.00000  Uiso   1.00
C329   C     0.69702   0.15089   0.93726   0.00000  Uiso   1.00
C330   C     0.65418   0.10069   0.97632   0.00000  Uiso   1.00
C331   C     0.56510   0.05249   0.04337   0.00000  Uiso   1.00
C332   C     0.79926   0.07138   0.82132   0.00000  Uiso   1.00
C333   C     0.76423   0.09865   0.77475   0.00000  Uiso   1.00
C334   C     0.75211   0.02456   0.73948   0.00000  Uiso   1.00
C335   C     0.71974   0.93230   0.66945   0.00000  Uiso   1.00
C336   C     0.85867   0.96031   0.88551   0.00000  Uiso   1.00
C337   C     0.94182   0.02880   0.88989   0.00000  Uiso   1.00
C338   C     0.03104   0.00109   0.90312   0.00000  Uiso   1.00
C339   C     0.09743   0.07475   0.90502   0.00000  Uiso   1.00
C340   C     0.78486   0.00195   0.92056   0.00000  Uiso   1.00
C341   C     0.74211   0.95167   0.95958   0.00000  Uiso   1.00
C342   C     0.67635   0.00271   0.98729   0.00000  Uiso   1.00
C343   C     0.82139   0.97357   0.83227   0.00000  Uiso   1.00
C344   C     0.80932   0.89943   0.79706   0.00000  Uiso   1.00
C345   C     0.77428   0.92658   0.75045   0.00000  Uiso   1.00
H346   H     0.80068   0.21652   0.85682   0.00000  Uiso   1.00
H347   H     0.96880   0.27599   0.87234   0.00000  Uiso   1.00
H348   H     0.67990   0.22657   0.92878   0.00000  Uiso   1.00
H349   H     0.74711   0.17434   0.76629   0.00000  Uiso   1.00
H350   H     0.16494   0.29881   0.89439   0.00000  Uiso   1.00
H351   H     0.55576   0.19458   0.01339   0.00000  Uiso   1.00
H352   H     0.69747   0.08445   0.67075   0.00000  Uiso   1.00
H353   H     0.87590   0.88416   0.89404   0.00000  Uiso   1.00
H354   H     0.04815   0.92540   0.91160   0.00000  Uiso   1.00
H355   H     0.75925   0.87598   0.96804   0.00000  Uiso   1.00
H356   H     0.82645   0.82375   0.80555   0.00000  Uiso   1.00
H357   H     0.22935   0.01426   0.92626   0.00000  Uiso   1.00
H358   H     0.62016   0.91003   0.04526   0.00000  Uiso   1.00
H359   H     0.76187   0.79990   0.70262   0.00000  Uiso   1.00
O360   O     0.30909   0.18966   0.92123   0.00000  Uiso   1.00
O361   O     0.50985   0.05292   0.07733   0.00000  Uiso   1.00
O362   O     0.69578   0.90843   0.62780   0.00000  Uiso   1.00
N363   N     0.15646   0.22618   0.89947   0.00000  Uiso   1.00
N364   N     0.58692   0.12874   0.01073   0.00000  Uiso   1.00
N365   N     0.71939   0.02577   0.69040   0.00000  Uiso   1.00
N366   N     0.19112   0.07306   0.91662   0.00000  Uiso   1.00
N367   N     0.62158   0.97562   0.02788   0.00000  Uiso   1.00
N368   N     0.75404   0.87265   0.70755   0.00000  Uiso   1.00
