data_job_05564
_audit_creation_date              2018-12-19
_audit_creation_method            'Materials Studio'
_symmetry_space_group_name_H-M    'P1'
_symmetry_Int_Tables_number       1
_symmetry_cell_setting            triclinic
loop_
_symmetry_equiv_pos_as_xyz
  x,y,z
_cell_length_a                    22.7771
_cell_length_b                    18.7459
_cell_length_c                    14.9731
_cell_angle_alpha                 90.0000
_cell_angle_beta                  107.5770
_cell_angle_gamma                 90.0000
loop_
_atom_site_label
_atom_site_type_symbol
_atom_site_fract_x
_atom_site_fract_y
_atom_site_fract_z
_atom_site_U_iso_or_equiv
_atom_site_adp_type
_atom_site_occupancy
C1     C     0.78401   0.51483   0.00298   0.00000  Uiso   1.00
C2     C     0.80691   0.58832   0.98515   0.00000  Uiso   1.00
C3     C     0.80645   0.64930   0.03747   0.00000  Uiso   1.00
C4     C     0.82943   0.71133   0.00983   0.00000  Uiso   1.00
C5     C     0.86153   0.82530   0.99387   0.00000  Uiso   1.00
C6     C     0.73557   0.49332   0.91207   0.00000  Uiso   1.00
C7     C     0.67512   0.47442   0.90297   0.00000  Uiso   1.00
C8     C     0.63804   0.45647   0.81381   0.00000  Uiso   1.00
C9     C     0.55940   0.42290   0.68441   0.00000  Uiso   1.00
C10    C     0.83805   0.46402   0.01430   0.00000  Uiso   1.00
C11    C     0.86376   0.42047   0.09113   0.00000  Uiso   1.00
C12    C     0.91295   0.37783   0.08803   0.00000  Uiso   1.00
C13    C     0.99342   0.29877   0.11735   0.00000  Uiso   1.00
C14    C     0.82563   0.51653   0.86084   0.00000  Uiso   1.00
C15    C     0.82952   0.58924   0.90794   0.00000  Uiso   1.00
C16    C     0.85250   0.65118   0.88022   0.00000  Uiso   1.00
C17    C     0.85208   0.71225   0.93250   0.00000  Uiso   1.00
C18    C     0.75817   0.49424   0.83487   0.00000  Uiso   1.00
C19    C     0.72117   0.47630   0.74571   0.00000  Uiso   1.00
C20    C     0.66069   0.45739   0.73647   0.00000  Uiso   1.00
C21    C     0.86066   0.46494   0.93710   0.00000  Uiso   1.00
C22    C     0.90981   0.42235   0.93387   0.00000  Uiso   1.00
C23    C     0.93560   0.37875   0.01069   0.00000  Uiso   1.00
H24    H     0.76640   0.51411   0.06308   0.00000  Uiso   1.00
H25    H     0.78895   0.64857   0.09721   0.00000  Uiso   1.00
H26    H     0.65764   0.47371   0.96273   0.00000  Uiso   1.00
H27    H     0.84626   0.41977   0.15086   0.00000  Uiso   1.00
H28    H     0.82390   0.79805   0.10099   0.00000  Uiso   1.00
H29    H     0.54704   0.42933   0.81742   0.00000  Uiso   1.00
H30    H     0.94476   0.31558   0.21414   0.00000  Uiso   1.00
H31    H     0.84323   0.51725   0.80073   0.00000  Uiso   1.00
H32    H     0.86999   0.65188   0.82047   0.00000  Uiso   1.00
H33    H     0.73869   0.47702   0.68598   0.00000  Uiso   1.00
H34    H     0.92730   0.42308   0.87412   0.00000  Uiso   1.00
H35    H     0.88967   0.80074   0.87637   0.00000  Uiso   1.00
H36    H     0.61281   0.43201   0.59281   0.00000  Uiso   1.00
H37    H     0.01054   0.31827   0.98953   0.00000  Uiso   1.00
O38    O     0.87299   0.88791   0.00638   0.00000  Uiso   1.00
O39    O     0.50977   0.40414   0.63436   0.00000  Uiso   1.00
O40    O     0.03156   0.25492   0.15485   0.00000  Uiso   1.00
N41    N     0.83571   0.78021   0.04543   0.00000  Uiso   1.00
N42    N     0.57687   0.43548   0.78031   0.00000  Uiso   1.00
N43    N     0.94869   0.32913   0.15120   0.00000  Uiso   1.00
N44    N     0.87111   0.78165   0.92456   0.00000  Uiso   1.00
N45    N     0.61226   0.43693   0.65944   0.00000  Uiso   1.00
N46    N     0.98409   0.33057   0.03033   0.00000  Uiso   1.00
C47    C     0.28401   0.01483   0.00298   0.00000  Uiso   1.00
C48    C     0.30691   0.08832   0.98515   0.00000  Uiso   1.00
C49    C     0.30645   0.14930   0.03747   0.00000  Uiso   1.00
C50    C     0.32943   0.21133   0.00983   0.00000  Uiso   1.00
C51    C     0.36153   0.32530   0.99387   0.00000  Uiso   1.00
C52    C     0.23557   0.99332   0.91207   0.00000  Uiso   1.00
C53    C     0.17512   0.97442   0.90297   0.00000  Uiso   1.00
C54    C     0.13804   0.95647   0.81381   0.00000  Uiso   1.00
C55    C     0.05940   0.92290   0.68441   0.00000  Uiso   1.00
C56    C     0.33805   0.96402   0.01430   0.00000  Uiso   1.00
C57    C     0.36376   0.92047   0.09113   0.00000  Uiso   1.00
C58    C     0.41295   0.87783   0.08803   0.00000  Uiso   1.00
C59    C     0.49342   0.79877   0.11735   0.00000  Uiso   1.00
C60    C     0.32563   0.01653   0.86084   0.00000  Uiso   1.00
C61    C     0.32952   0.08924   0.90794   0.00000  Uiso   1.00
C62    C     0.35250   0.15118   0.88022   0.00000  Uiso   1.00
C63    C     0.35208   0.21225   0.93250   0.00000  Uiso   1.00
C64    C     0.25817   0.99424   0.83487   0.00000  Uiso   1.00
C65    C     0.22117   0.97630   0.74571   0.00000  Uiso   1.00
C66    C     0.16069   0.95739   0.73647   0.00000  Uiso   1.00
C67    C     0.36066   0.96494   0.93710   0.00000  Uiso   1.00
C68    C     0.40981   0.92235   0.93387   0.00000  Uiso   1.00
C69    C     0.43560   0.87875   0.01069   0.00000  Uiso   1.00
H70    H     0.26640   0.01411   0.06308   0.00000  Uiso   1.00
H71    H     0.28895   0.14857   0.09721   0.00000  Uiso   1.00
H72    H     0.15764   0.97371   0.96273   0.00000  Uiso   1.00
H73    H     0.34626   0.91977   0.15086   0.00000  Uiso   1.00
H74    H     0.32390   0.29805   0.10099   0.00000  Uiso   1.00
H75    H     0.04704   0.92933   0.81742   0.00000  Uiso   1.00
H76    H     0.44476   0.81558   0.21414   0.00000  Uiso   1.00
H77    H     0.34323   0.01725   0.80073   0.00000  Uiso   1.00
H78    H     0.36999   0.15188   0.82047   0.00000  Uiso   1.00
H79    H     0.23869   0.97702   0.68598   0.00000  Uiso   1.00
H80    H     0.42730   0.92308   0.87412   0.00000  Uiso   1.00
H81    H     0.38967   0.30074   0.87637   0.00000  Uiso   1.00
H82    H     0.11281   0.93201   0.59281   0.00000  Uiso   1.00
H83    H     0.51054   0.81827   0.98953   0.00000  Uiso   1.00
O84    O     0.37299   0.38791   0.00638   0.00000  Uiso   1.00
O85    O     0.00977   0.90414   0.63436   0.00000  Uiso   1.00
O86    O     0.53156   0.75492   0.15485   0.00000  Uiso   1.00
N87    N     0.33571   0.28021   0.04543   0.00000  Uiso   1.00
N88    N     0.07687   0.93548   0.78031   0.00000  Uiso   1.00
N89    N     0.44869   0.82913   0.15120   0.00000  Uiso   1.00
N90    N     0.37111   0.28165   0.92456   0.00000  Uiso   1.00
N91    N     0.11226   0.93693   0.65944   0.00000  Uiso   1.00
N92    N     0.48409   0.83057   0.03033   0.00000  Uiso   1.00
C93    C     0.21599   0.51483   0.49702   0.00000  Uiso   1.00
C94    C     0.19309   0.58832   0.51485   0.00000  Uiso   1.00
C95    C     0.19355   0.64930   0.46253   0.00000  Uiso   1.00
C96    C     0.17057   0.71133   0.49017   0.00000  Uiso   1.00
C97    C     0.13847   0.82530   0.50613   0.00000  Uiso   1.00
C98    C     0.26443   0.49332   0.58793   0.00000  Uiso   1.00
C99    C     0.32488   0.47442   0.59703   0.00000  Uiso   1.00
C100   C     0.36196   0.45647   0.68619   0.00000  Uiso   1.00
C101   C     0.44060   0.42290   0.81559   0.00000  Uiso   1.00
C102   C     0.16195   0.46402   0.48570   0.00000  Uiso   1.00
C103   C     0.13624   0.42047   0.40887   0.00000  Uiso   1.00
C104   C     0.08705   0.37783   0.41197   0.00000  Uiso   1.00
C105   C     0.00658   0.29877   0.38265   0.00000  Uiso   1.00
C106   C     0.17437   0.51653   0.63916   0.00000  Uiso   1.00
C107   C     0.17048   0.58924   0.59206   0.00000  Uiso   1.00
C108   C     0.14750   0.65118   0.61978   0.00000  Uiso   1.00
C109   C     0.14792   0.71225   0.56750   0.00000  Uiso   1.00
C110   C     0.24183   0.49424   0.66513   0.00000  Uiso   1.00
C111   C     0.27883   0.47630   0.75429   0.00000  Uiso   1.00
C112   C     0.33931   0.45739   0.76353   0.00000  Uiso   1.00
C113   C     0.13934   0.46494   0.56290   0.00000  Uiso   1.00
C114   C     0.09019   0.42235   0.56613   0.00000  Uiso   1.00
C115   C     0.06440   0.37875   0.48931   0.00000  Uiso   1.00
H116   H     0.23360   0.51411   0.43692   0.00000  Uiso   1.00
H117   H     0.21105   0.64857   0.40279   0.00000  Uiso   1.00
H118   H     0.34236   0.47371   0.53727   0.00000  Uiso   1.00
H119   H     0.15374   0.41977   0.34914   0.00000  Uiso   1.00
H120   H     0.17610   0.79805   0.39901   0.00000  Uiso   1.00
H121   H     0.45296   0.42933   0.68258   0.00000  Uiso   1.00
H122   H     0.05524   0.31558   0.28586   0.00000  Uiso   1.00
H123   H     0.15677   0.51725   0.69927   0.00000  Uiso   1.00
H124   H     0.13001   0.65188   0.67953   0.00000  Uiso   1.00
H125   H     0.26131   0.47702   0.81402   0.00000  Uiso   1.00
H126   H     0.07270   0.42308   0.62588   0.00000  Uiso   1.00
H127   H     0.11033   0.80074   0.62363   0.00000  Uiso   1.00
H128   H     0.38719   0.43201   0.90719   0.00000  Uiso   1.00
H129   H     0.98946   0.31827   0.51047   0.00000  Uiso   1.00
O130   O     0.12701   0.88791   0.49362   0.00000  Uiso   1.00
O131   O     0.49023   0.40414   0.86564   0.00000  Uiso   1.00
O132   O     0.96844   0.25492   0.34515   0.00000  Uiso   1.00
N133   N     0.16429   0.78021   0.45457   0.00000  Uiso   1.00
N134   N     0.42313   0.43548   0.71969   0.00000  Uiso   1.00
N135   N     0.05131   0.32913   0.34880   0.00000  Uiso   1.00
N136   N     0.12889   0.78165   0.57544   0.00000  Uiso   1.00
N137   N     0.38774   0.43693   0.84056   0.00000  Uiso   1.00
N138   N     0.01591   0.33057   0.46967   0.00000  Uiso   1.00
C139   C     0.71599   0.01483   0.49702   0.00000  Uiso   1.00
C140   C     0.69309   0.08832   0.51485   0.00000  Uiso   1.00
C141   C     0.69355   0.14930   0.46253   0.00000  Uiso   1.00
C142   C     0.67057   0.21133   0.49017   0.00000  Uiso   1.00
C143   C     0.63847   0.32530   0.50613   0.00000  Uiso   1.00
C144   C     0.76443   0.99332   0.58793   0.00000  Uiso   1.00
C145   C     0.82488   0.97442   0.59703   0.00000  Uiso   1.00
C146   C     0.86196   0.95647   0.68619   0.00000  Uiso   1.00
C147   C     0.94060   0.92290   0.81559   0.00000  Uiso   1.00
C148   C     0.66195   0.96402   0.48570   0.00000  Uiso   1.00
C149   C     0.63624   0.92047   0.40887   0.00000  Uiso   1.00
C150   C     0.58705   0.87783   0.41197   0.00000  Uiso   1.00
C151   C     0.50658   0.79877   0.38265   0.00000  Uiso   1.00
C152   C     0.67437   0.01653   0.63916   0.00000  Uiso   1.00
C153   C     0.67048   0.08924   0.59206   0.00000  Uiso   1.00
C154   C     0.64750   0.15118   0.61978   0.00000  Uiso   1.00
C155   C     0.64792   0.21225   0.56750   0.00000  Uiso   1.00
C156   C     0.74183   0.99424   0.66513   0.00000  Uiso   1.00
C157   C     0.77883   0.97630   0.75429   0.00000  Uiso   1.00
C158   C     0.83931   0.95739   0.76353   0.00000  Uiso   1.00
C159   C     0.63934   0.96494   0.56290   0.00000  Uiso   1.00
C160   C     0.59019   0.92235   0.56613   0.00000  Uiso   1.00
C161   C     0.56440   0.87875   0.48931   0.00000  Uiso   1.00
H162   H     0.73360   0.01411   0.43692   0.00000  Uiso   1.00
H163   H     0.71105   0.14857   0.40279   0.00000  Uiso   1.00
H164   H     0.84236   0.97371   0.53727   0.00000  Uiso   1.00
H165   H     0.65374   0.91977   0.34914   0.00000  Uiso   1.00
H166   H     0.67610   0.29805   0.39901   0.00000  Uiso   1.00
H167   H     0.95296   0.92933   0.68258   0.00000  Uiso   1.00
H168   H     0.55524   0.81558   0.28586   0.00000  Uiso   1.00
H169   H     0.65677   0.01725   0.69927   0.00000  Uiso   1.00
H170   H     0.63001   0.15188   0.67953   0.00000  Uiso   1.00
H171   H     0.76131   0.97702   0.81402   0.00000  Uiso   1.00
H172   H     0.57270   0.92308   0.62588   0.00000  Uiso   1.00
H173   H     0.61033   0.30074   0.62363   0.00000  Uiso   1.00
H174   H     0.88719   0.93201   0.90719   0.00000  Uiso   1.00
H175   H     0.48946   0.81827   0.51047   0.00000  Uiso   1.00
O176   O     0.62701   0.38791   0.49362   0.00000  Uiso   1.00
O177   O     0.99023   0.90414   0.86564   0.00000  Uiso   1.00
O178   O     0.46844   0.75492   0.34515   0.00000  Uiso   1.00
N179   N     0.66429   0.28021   0.45457   0.00000  Uiso   1.00
N180   N     0.92313   0.93548   0.71969   0.00000  Uiso   1.00
N181   N     0.55131   0.82913   0.34880   0.00000  Uiso   1.00
N182   N     0.62889   0.28165   0.57544   0.00000  Uiso   1.00
N183   N     0.88774   0.93693   0.84056   0.00000  Uiso   1.00
N184   N     0.51591   0.83057   0.46967   0.00000  Uiso   1.00
C185   C     0.21599   0.48517   0.99702   0.00000  Uiso   1.00
C186   C     0.19309   0.41168   0.01485   0.00000  Uiso   1.00
C187   C     0.19355   0.35070   0.96253   0.00000  Uiso   1.00
C188   C     0.17057   0.28867   0.99017   0.00000  Uiso   1.00
C189   C     0.13847   0.17470   0.00613   0.00000  Uiso   1.00
C190   C     0.26443   0.50668   0.08793   0.00000  Uiso   1.00
C191   C     0.32488   0.52558   0.09703   0.00000  Uiso   1.00
C192   C     0.36196   0.54353   0.18619   0.00000  Uiso   1.00
C193   C     0.44060   0.57710   0.31559   0.00000  Uiso   1.00
C194   C     0.16195   0.53598   0.98570   0.00000  Uiso   1.00
C195   C     0.13624   0.57953   0.90887   0.00000  Uiso   1.00
C196   C     0.08705   0.62217   0.91197   0.00000  Uiso   1.00
C197   C     0.00658   0.70123   0.88265   0.00000  Uiso   1.00
C198   C     0.17437   0.48347   0.13916   0.00000  Uiso   1.00
C199   C     0.17048   0.41076   0.09206   0.00000  Uiso   1.00
C200   C     0.14750   0.34882   0.11978   0.00000  Uiso   1.00
C201   C     0.14792   0.28775   0.06750   0.00000  Uiso   1.00
C202   C     0.24183   0.50576   0.16513   0.00000  Uiso   1.00
C203   C     0.27883   0.52370   0.25429   0.00000  Uiso   1.00
C204   C     0.33931   0.54261   0.26353   0.00000  Uiso   1.00
C205   C     0.13934   0.53506   0.06290   0.00000  Uiso   1.00
C206   C     0.09019   0.57765   0.06613   0.00000  Uiso   1.00
C207   C     0.06440   0.62125   0.98931   0.00000  Uiso   1.00
H208   H     0.23360   0.48589   0.93692   0.00000  Uiso   1.00
H209   H     0.21105   0.35143   0.90279   0.00000  Uiso   1.00
H210   H     0.34236   0.52629   0.03727   0.00000  Uiso   1.00
H211   H     0.15374   0.58023   0.84914   0.00000  Uiso   1.00
H212   H     0.17610   0.20195   0.89901   0.00000  Uiso   1.00
H213   H     0.45296   0.57067   0.18258   0.00000  Uiso   1.00
H214   H     0.05524   0.68442   0.78586   0.00000  Uiso   1.00
H215   H     0.15677   0.48275   0.19927   0.00000  Uiso   1.00
H216   H     0.13001   0.34812   0.17953   0.00000  Uiso   1.00
H217   H     0.26131   0.52298   0.31402   0.00000  Uiso   1.00
H218   H     0.07270   0.57692   0.12588   0.00000  Uiso   1.00
H219   H     0.11033   0.19926   0.12363   0.00000  Uiso   1.00
H220   H     0.38719   0.56799   0.40719   0.00000  Uiso   1.00
H221   H     0.98946   0.68173   0.01047   0.00000  Uiso   1.00
O222   O     0.12701   0.11209   0.99362   0.00000  Uiso   1.00
O223   O     0.49023   0.59586   0.36564   0.00000  Uiso   1.00
O224   O     0.96844   0.74508   0.84515   0.00000  Uiso   1.00
N225   N     0.16429   0.21979   0.95457   0.00000  Uiso   1.00
N226   N     0.42313   0.56452   0.21969   0.00000  Uiso   1.00
N227   N     0.05131   0.67087   0.84880   0.00000  Uiso   1.00
N228   N     0.12889   0.21835   0.07544   0.00000  Uiso   1.00
N229   N     0.38774   0.56307   0.34056   0.00000  Uiso   1.00
N230   N     0.01591   0.66943   0.96967   0.00000  Uiso   1.00
C231   C     0.71599   0.98517   0.99702   0.00000  Uiso   1.00
C232   C     0.69309   0.91168   0.01485   0.00000  Uiso   1.00
C233   C     0.69355   0.85070   0.96253   0.00000  Uiso   1.00
C234   C     0.67057   0.78867   0.99017   0.00000  Uiso   1.00
C235   C     0.63847   0.67470   0.00613   0.00000  Uiso   1.00
C236   C     0.76443   0.00668   0.08793   0.00000  Uiso   1.00
C237   C     0.82488   0.02558   0.09703   0.00000  Uiso   1.00
C238   C     0.86196   0.04353   0.18619   0.00000  Uiso   1.00
C239   C     0.94060   0.07710   0.31559   0.00000  Uiso   1.00
C240   C     0.66195   0.03598   0.98570   0.00000  Uiso   1.00
C241   C     0.63624   0.07953   0.90887   0.00000  Uiso   1.00
C242   C     0.58705   0.12217   0.91197   0.00000  Uiso   1.00
C243   C     0.50658   0.20123   0.88265   0.00000  Uiso   1.00
C244   C     0.67437   0.98347   0.13916   0.00000  Uiso   1.00
C245   C     0.67048   0.91076   0.09206   0.00000  Uiso   1.00
C246   C     0.64750   0.84882   0.11978   0.00000  Uiso   1.00
C247   C     0.64792   0.78775   0.06750   0.00000  Uiso   1.00
C248   C     0.74183   0.00576   0.16513   0.00000  Uiso   1.00
C249   C     0.77883   0.02370   0.25429   0.00000  Uiso   1.00
C250   C     0.83931   0.04261   0.26353   0.00000  Uiso   1.00
C251   C     0.63934   0.03506   0.06290   0.00000  Uiso   1.00
C252   C     0.59019   0.07765   0.06613   0.00000  Uiso   1.00
C253   C     0.56440   0.12125   0.98931   0.00000  Uiso   1.00
H254   H     0.73360   0.98589   0.93692   0.00000  Uiso   1.00
H255   H     0.71105   0.85143   0.90279   0.00000  Uiso   1.00
H256   H     0.84236   0.02629   0.03727   0.00000  Uiso   1.00
H257   H     0.65374   0.08023   0.84914   0.00000  Uiso   1.00
H258   H     0.67610   0.70195   0.89901   0.00000  Uiso   1.00
H259   H     0.95296   0.07067   0.18258   0.00000  Uiso   1.00
H260   H     0.55524   0.18442   0.78586   0.00000  Uiso   1.00
H261   H     0.65677   0.98275   0.19927   0.00000  Uiso   1.00
H262   H     0.63001   0.84812   0.17953   0.00000  Uiso   1.00
H263   H     0.76131   0.02298   0.31402   0.00000  Uiso   1.00
H264   H     0.57270   0.07692   0.12588   0.00000  Uiso   1.00
H265   H     0.61033   0.69926   0.12363   0.00000  Uiso   1.00
H266   H     0.88719   0.06799   0.40719   0.00000  Uiso   1.00
H267   H     0.48946   0.18173   0.01047   0.00000  Uiso   1.00
O268   O     0.62701   0.61209   0.99362   0.00000  Uiso   1.00
O269   O     0.99023   0.09586   0.36564   0.00000  Uiso   1.00
O270   O     0.46844   0.24508   0.84515   0.00000  Uiso   1.00
N271   N     0.66429   0.71979   0.95457   0.00000  Uiso   1.00
N272   N     0.92313   0.06452   0.21969   0.00000  Uiso   1.00
N273   N     0.55131   0.17087   0.84880   0.00000  Uiso   1.00
N274   N     0.62889   0.71835   0.07544   0.00000  Uiso   1.00
N275   N     0.88774   0.06307   0.34056   0.00000  Uiso   1.00
N276   N     0.51591   0.16943   0.96967   0.00000  Uiso   1.00
C277   C     0.78401   0.48517   0.50298   0.00000  Uiso   1.00
C278   C     0.80691   0.41168   0.48515   0.00000  Uiso   1.00
C279   C     0.80645   0.35070   0.53747   0.00000  Uiso   1.00
C280   C     0.82943   0.28867   0.50983   0.00000  Uiso   1.00
C281   C     0.86153   0.17470   0.49387   0.00000  Uiso   1.00
C282   C     0.73557   0.50668   0.41207   0.00000  Uiso   1.00
C283   C     0.67512   0.52558   0.40297   0.00000  Uiso   1.00
C284   C     0.63804   0.54353   0.31381   0.00000  Uiso   1.00
C285   C     0.55940   0.57710   0.18441   0.00000  Uiso   1.00
C286   C     0.83805   0.53598   0.51430   0.00000  Uiso   1.00
C287   C     0.86376   0.57953   0.59113   0.00000  Uiso   1.00
C288   C     0.91295   0.62217   0.58803   0.00000  Uiso   1.00
C289   C     0.99342   0.70123   0.61735   0.00000  Uiso   1.00
C290   C     0.82563   0.48347   0.36084   0.00000  Uiso   1.00
C291   C     0.82952   0.41076   0.40794   0.00000  Uiso   1.00
C292   C     0.85250   0.34882   0.38022   0.00000  Uiso   1.00
C293   C     0.85208   0.28775   0.43250   0.00000  Uiso   1.00
C294   C     0.75817   0.50576   0.33487   0.00000  Uiso   1.00
C295   C     0.72117   0.52370   0.24571   0.00000  Uiso   1.00
C296   C     0.66069   0.54261   0.23647   0.00000  Uiso   1.00
C297   C     0.86066   0.53506   0.43710   0.00000  Uiso   1.00
C298   C     0.90981   0.57765   0.43387   0.00000  Uiso   1.00
C299   C     0.93560   0.62125   0.51069   0.00000  Uiso   1.00
H300   H     0.76640   0.48589   0.56308   0.00000  Uiso   1.00
H301   H     0.78895   0.35143   0.59721   0.00000  Uiso   1.00
H302   H     0.65764   0.52629   0.46273   0.00000  Uiso   1.00
H303   H     0.84626   0.58023   0.65086   0.00000  Uiso   1.00
H304   H     0.82390   0.20195   0.60099   0.00000  Uiso   1.00
H305   H     0.54704   0.57067   0.31742   0.00000  Uiso   1.00
H306   H     0.94476   0.68442   0.71414   0.00000  Uiso   1.00
H307   H     0.84323   0.48275   0.30073   0.00000  Uiso   1.00
H308   H     0.86999   0.34812   0.32047   0.00000  Uiso   1.00
H309   H     0.73869   0.52298   0.18598   0.00000  Uiso   1.00
H310   H     0.92730   0.57692   0.37412   0.00000  Uiso   1.00
H311   H     0.88967   0.19926   0.37637   0.00000  Uiso   1.00
H312   H     0.61281   0.56799   0.09281   0.00000  Uiso   1.00
H313   H     0.01054   0.68173   0.48953   0.00000  Uiso   1.00
O314   O     0.87299   0.11209   0.50638   0.00000  Uiso   1.00
O315   O     0.50977   0.59586   0.13436   0.00000  Uiso   1.00
O316   O     0.03156   0.74508   0.65485   0.00000  Uiso   1.00
N317   N     0.83571   0.21979   0.54543   0.00000  Uiso   1.00
N318   N     0.57687   0.56452   0.28031   0.00000  Uiso   1.00
N319   N     0.94869   0.67087   0.65120   0.00000  Uiso   1.00
N320   N     0.87111   0.21835   0.42456   0.00000  Uiso   1.00
N321   N     0.61226   0.56307   0.15944   0.00000  Uiso   1.00
N322   N     0.98409   0.66943   0.53033   0.00000  Uiso   1.00
C323   C     0.28401   0.98517   0.50298   0.00000  Uiso   1.00
C324   C     0.30691   0.91168   0.48515   0.00000  Uiso   1.00
C325   C     0.30645   0.85070   0.53747   0.00000  Uiso   1.00
C326   C     0.32943   0.78867   0.50983   0.00000  Uiso   1.00
C327   C     0.36153   0.67470   0.49387   0.00000  Uiso   1.00
C328   C     0.23557   0.00668   0.41207   0.00000  Uiso   1.00
C329   C     0.17512   0.02558   0.40297   0.00000  Uiso   1.00
C330   C     0.13804   0.04353   0.31381   0.00000  Uiso   1.00
C331   C     0.05940   0.07710   0.18441   0.00000  Uiso   1.00
C332   C     0.33805   0.03598   0.51430   0.00000  Uiso   1.00
C333   C     0.36376   0.07953   0.59113   0.00000  Uiso   1.00
C334   C     0.41295   0.12217   0.58803   0.00000  Uiso   1.00
C335   C     0.49342   0.20123   0.61735   0.00000  Uiso   1.00
C336   C     0.32563   0.98347   0.36084   0.00000  Uiso   1.00
C337   C     0.32952   0.91076   0.40794   0.00000  Uiso   1.00
C338   C     0.35250   0.84882   0.38022   0.00000  Uiso   1.00
C339   C     0.35208   0.78775   0.43250   0.00000  Uiso   1.00
C340   C     0.25817   0.00576   0.33487   0.00000  Uiso   1.00
C341   C     0.22117   0.02370   0.24571   0.00000  Uiso   1.00
C342   C     0.16069   0.04261   0.23647   0.00000  Uiso   1.00
C343   C     0.36066   0.03506   0.43710   0.00000  Uiso   1.00
C344   C     0.40981   0.07765   0.43387   0.00000  Uiso   1.00
C345   C     0.43560   0.12125   0.51069   0.00000  Uiso   1.00
H346   H     0.26640   0.98589   0.56308   0.00000  Uiso   1.00
H347   H     0.28895   0.85143   0.59721   0.00000  Uiso   1.00
H348   H     0.15764   0.02629   0.46273   0.00000  Uiso   1.00
H349   H     0.34626   0.08023   0.65086   0.00000  Uiso   1.00
H350   H     0.32390   0.70195   0.60099   0.00000  Uiso   1.00
H351   H     0.04704   0.07067   0.31742   0.00000  Uiso   1.00
H352   H     0.44476   0.18442   0.71414   0.00000  Uiso   1.00
H353   H     0.34323   0.98275   0.30073   0.00000  Uiso   1.00
H354   H     0.36999   0.84812   0.32047   0.00000  Uiso   1.00
H355   H     0.23869   0.02298   0.18598   0.00000  Uiso   1.00
H356   H     0.42730   0.07692   0.37412   0.00000  Uiso   1.00
H357   H     0.38967   0.69926   0.37637   0.00000  Uiso   1.00
H358   H     0.11281   0.06799   0.09281   0.00000  Uiso   1.00
H359   H     0.51054   0.18173   0.48953   0.00000  Uiso   1.00
O360   O     0.37299   0.61209   0.50638   0.00000  Uiso   1.00
O361   O     0.00977   0.09586   0.13436   0.00000  Uiso   1.00
O362   O     0.53156   0.24508   0.65485   0.00000  Uiso   1.00
N363   N     0.33571   0.71979   0.54543   0.00000  Uiso   1.00
N364   N     0.07687   0.06452   0.28031   0.00000  Uiso   1.00
N365   N     0.44869   0.17087   0.65120   0.00000  Uiso   1.00
N366   N     0.37111   0.71835   0.42456   0.00000  Uiso   1.00
N367   N     0.11226   0.06307   0.15944   0.00000  Uiso   1.00
N368   N     0.48409   0.16943   0.53033   0.00000  Uiso   1.00
