data_job_01276
_audit_creation_date              2018-12-19
_audit_creation_method            'Materials Studio'
_symmetry_space_group_name_H-M    'P1'
_symmetry_Int_Tables_number       1
_symmetry_cell_setting            triclinic
loop_
_symmetry_equiv_pos_as_xyz
  x,y,z
_cell_length_a                    28.3535
_cell_length_b                    12.3471
_cell_length_c                    14.3538
_cell_angle_alpha                 90.0000
_cell_angle_beta                  96.5619
_cell_angle_gamma                 90.0000
loop_
_atom_site_label
_atom_site_type_symbol
_atom_site_fract_x
_atom_site_fract_y
_atom_site_fract_z
_atom_site_U_iso_or_equiv
_atom_site_adp_type
_atom_site_occupancy
C1     C     0.60053   0.37768   0.80131   0.00000  Uiso   1.00
C2     C     0.57822   0.35797   0.89157   0.00000  Uiso   1.00
C3     C     0.53046   0.36936   0.90241   0.00000  Uiso   1.00
C4     C     0.51711   0.34755   0.99060   0.00000  Uiso   1.00
C5     C     0.47740   0.32187   0.11942   0.00000  Uiso   1.00
C6     C     0.63940   0.46179   0.82530   0.00000  Uiso   1.00
C7     C     0.64309   0.56048   0.78041   0.00000  Uiso   1.00
C8     C     0.68126   0.62606   0.81281   0.00000  Uiso   1.00
C9     C     0.73657   0.76154   0.83869   0.00000  Uiso   1.00
C10    C     0.62593   0.27284   0.78117   0.00000  Uiso   1.00
C11    C     0.61829   0.21266   0.69917   0.00000  Uiso   1.00
C12    C     0.64512   0.11916   0.69440   0.00000  Uiso   1.00
C13    C     0.67950   0.96126   0.65177   0.00000  Uiso   1.00
C14    C     0.66175   0.31866   0.93864   0.00000  Uiso   1.00
C15    C     0.61147   0.32591   0.96616   0.00000  Uiso   1.00
C16    C     0.59819   0.30407   0.05435   0.00000  Uiso   1.00
C17    C     0.55042   0.31543   0.06533   0.00000  Uiso   1.00
C18    C     0.67266   0.42974   0.89989   0.00000  Uiso   1.00
C19    C     0.71083   0.49518   0.93235   0.00000  Uiso   1.00
C20    C     0.71457   0.59394   0.88753   0.00000  Uiso   1.00
C21    C     0.65918   0.24078   0.85576   0.00000  Uiso   1.00
C22    C     0.68602   0.14736   0.85112   0.00000  Uiso   1.00
C23    C     0.67843   0.08705   0.76913   0.00000  Uiso   1.00
H24    H     0.57464   0.40264   0.74324   0.00000  Uiso   1.00
H25    H     0.50473   0.39418   0.84467   0.00000  Uiso   1.00
H26    H     0.61736   0.58526   0.72269   0.00000  Uiso   1.00
H27    H     0.59256   0.23749   0.64146   0.00000  Uiso   1.00
H28    H     0.44189   0.37071   0.99004   0.00000  Uiso   1.00
H29    H     0.67937   0.77359   0.73280   0.00000  Uiso   1.00
H30    H     0.62708   0.04025   0.56152   0.00000  Uiso   1.00
H31    H     0.68764   0.29370   0.99671   0.00000  Uiso   1.00
H32    H     0.62393   0.27926   0.11206   0.00000  Uiso   1.00
H33    H     0.73655   0.47035   0.99007   0.00000  Uiso   1.00
H34    H     0.71175   0.12258   0.90885   0.00000  Uiso   1.00
H35    H     0.53864   0.27744   0.20707   0.00000  Uiso   1.00
H36    H     0.77612   0.68033   0.94982   0.00000  Uiso   1.00
H37    H     0.72383   0.94699   0.77855   0.00000  Uiso   1.00
O38    O     0.44632   0.31658   0.16987   0.00000  Uiso   1.00
O39    O     0.75789   0.84513   0.83237   0.00000  Uiso   1.00
O40    O     0.68928   0.88301   0.60766   0.00000  Uiso   1.00
N41    N     0.47340   0.35072   0.02528   0.00000  Uiso   1.00
N42    N     0.69543   0.72740   0.78479   0.00000  Uiso   1.00
N43    N     0.64655   0.04180   0.62465   0.00000  Uiso   1.00
N44    N     0.52546   0.30053   0.14206   0.00000  Uiso   1.00
N45    N     0.74749   0.67721   0.90157   0.00000  Uiso   1.00
N46    N     0.69861   0.99161   0.74143   0.00000  Uiso   1.00
C47    C     0.10053   0.87768   0.80131   0.00000  Uiso   1.00
C48    C     0.07822   0.85797   0.89157   0.00000  Uiso   1.00
C49    C     0.03046   0.86936   0.90241   0.00000  Uiso   1.00
C50    C     0.01711   0.84755   0.99060   0.00000  Uiso   1.00
C51    C     0.97740   0.82187   0.11942   0.00000  Uiso   1.00
C52    C     0.13940   0.96179   0.82530   0.00000  Uiso   1.00
C53    C     0.14309   0.06048   0.78041   0.00000  Uiso   1.00
C54    C     0.18126   0.12606   0.81281   0.00000  Uiso   1.00
C55    C     0.23657   0.26154   0.83869   0.00000  Uiso   1.00
C56    C     0.12593   0.77284   0.78117   0.00000  Uiso   1.00
C57    C     0.11829   0.71266   0.69917   0.00000  Uiso   1.00
C58    C     0.14512   0.61916   0.69440   0.00000  Uiso   1.00
C59    C     0.17950   0.46126   0.65177   0.00000  Uiso   1.00
C60    C     0.16175   0.81866   0.93864   0.00000  Uiso   1.00
C61    C     0.11147   0.82591   0.96616   0.00000  Uiso   1.00
C62    C     0.09819   0.80407   0.05435   0.00000  Uiso   1.00
C63    C     0.05042   0.81543   0.06533   0.00000  Uiso   1.00
C64    C     0.17266   0.92974   0.89989   0.00000  Uiso   1.00
C65    C     0.21083   0.99518   0.93235   0.00000  Uiso   1.00
C66    C     0.21457   0.09394   0.88753   0.00000  Uiso   1.00
C67    C     0.15918   0.74078   0.85576   0.00000  Uiso   1.00
C68    C     0.18602   0.64736   0.85112   0.00000  Uiso   1.00
C69    C     0.17843   0.58705   0.76913   0.00000  Uiso   1.00
H70    H     0.07464   0.90264   0.74324   0.00000  Uiso   1.00
H71    H     0.00473   0.89418   0.84467   0.00000  Uiso   1.00
H72    H     0.11736   0.08526   0.72269   0.00000  Uiso   1.00
H73    H     0.09256   0.73749   0.64146   0.00000  Uiso   1.00
H74    H     0.94189   0.87071   0.99004   0.00000  Uiso   1.00
H75    H     0.17937   0.27359   0.73280   0.00000  Uiso   1.00
H76    H     0.12708   0.54025   0.56152   0.00000  Uiso   1.00
H77    H     0.18764   0.79370   0.99671   0.00000  Uiso   1.00
H78    H     0.12393   0.77926   0.11206   0.00000  Uiso   1.00
H79    H     0.23655   0.97035   0.99007   0.00000  Uiso   1.00
H80    H     0.21175   0.62258   0.90885   0.00000  Uiso   1.00
H81    H     0.03864   0.77744   0.20707   0.00000  Uiso   1.00
H82    H     0.27612   0.18033   0.94982   0.00000  Uiso   1.00
H83    H     0.22383   0.44699   0.77855   0.00000  Uiso   1.00
O84    O     0.94632   0.81658   0.16987   0.00000  Uiso   1.00
O85    O     0.25789   0.34513   0.83237   0.00000  Uiso   1.00
O86    O     0.18928   0.38301   0.60766   0.00000  Uiso   1.00
N87    N     0.97340   0.85072   0.02528   0.00000  Uiso   1.00
N88    N     0.19543   0.22740   0.78479   0.00000  Uiso   1.00
N89    N     0.14655   0.54180   0.62465   0.00000  Uiso   1.00
N90    N     0.02546   0.80053   0.14206   0.00000  Uiso   1.00
N91    N     0.24749   0.17721   0.90157   0.00000  Uiso   1.00
N92    N     0.19861   0.49161   0.74143   0.00000  Uiso   1.00
C93    C     0.39947   0.37768   0.69869   0.00000  Uiso   1.00
C94    C     0.42178   0.35797   0.60843   0.00000  Uiso   1.00
C95    C     0.46954   0.36936   0.59759   0.00000  Uiso   1.00
C96    C     0.48289   0.34755   0.50940   0.00000  Uiso   1.00
C97    C     0.52260   0.32187   0.38058   0.00000  Uiso   1.00
C98    C     0.36060   0.46179   0.67470   0.00000  Uiso   1.00
C99    C     0.35691   0.56048   0.71959   0.00000  Uiso   1.00
C100   C     0.31874   0.62606   0.68719   0.00000  Uiso   1.00
C101   C     0.26343   0.76154   0.66131   0.00000  Uiso   1.00
C102   C     0.37407   0.27284   0.71883   0.00000  Uiso   1.00
C103   C     0.38171   0.21266   0.80083   0.00000  Uiso   1.00
C104   C     0.35488   0.11916   0.80560   0.00000  Uiso   1.00
C105   C     0.32050   0.96126   0.84823   0.00000  Uiso   1.00
C106   C     0.33825   0.31866   0.56136   0.00000  Uiso   1.00
C107   C     0.38853   0.32591   0.53384   0.00000  Uiso   1.00
C108   C     0.40181   0.30407   0.44565   0.00000  Uiso   1.00
C109   C     0.44958   0.31543   0.43467   0.00000  Uiso   1.00
C110   C     0.32734   0.42974   0.60011   0.00000  Uiso   1.00
C111   C     0.28917   0.49518   0.56765   0.00000  Uiso   1.00
C112   C     0.28543   0.59394   0.61247   0.00000  Uiso   1.00
C113   C     0.34082   0.24078   0.64424   0.00000  Uiso   1.00
C114   C     0.31398   0.14736   0.64888   0.00000  Uiso   1.00
C115   C     0.32157   0.08705   0.73087   0.00000  Uiso   1.00
H116   H     0.42536   0.40264   0.75676   0.00000  Uiso   1.00
H117   H     0.49527   0.39418   0.65533   0.00000  Uiso   1.00
H118   H     0.38264   0.58526   0.77731   0.00000  Uiso   1.00
H119   H     0.40744   0.23749   0.85854   0.00000  Uiso   1.00
H120   H     0.55811   0.37071   0.50996   0.00000  Uiso   1.00
H121   H     0.32063   0.77359   0.76720   0.00000  Uiso   1.00
H122   H     0.37292   0.04025   0.93848   0.00000  Uiso   1.00
H123   H     0.31236   0.29370   0.50329   0.00000  Uiso   1.00
H124   H     0.37607   0.27926   0.38794   0.00000  Uiso   1.00
H125   H     0.26345   0.47035   0.50993   0.00000  Uiso   1.00
H126   H     0.28825   0.12258   0.59115   0.00000  Uiso   1.00
H127   H     0.46136   0.27744   0.29293   0.00000  Uiso   1.00
H128   H     0.22388   0.68033   0.55018   0.00000  Uiso   1.00
H129   H     0.27617   0.94699   0.72145   0.00000  Uiso   1.00
O130   O     0.55368   0.31658   0.33013   0.00000  Uiso   1.00
O131   O     0.24211   0.84513   0.66763   0.00000  Uiso   1.00
O132   O     0.31072   0.88301   0.89234   0.00000  Uiso   1.00
N133   N     0.52660   0.35072   0.47472   0.00000  Uiso   1.00
N134   N     0.30457   0.72740   0.71521   0.00000  Uiso   1.00
N135   N     0.35345   0.04180   0.87535   0.00000  Uiso   1.00
N136   N     0.47454   0.30053   0.35794   0.00000  Uiso   1.00
N137   N     0.25251   0.67721   0.59843   0.00000  Uiso   1.00
N138   N     0.30139   0.99161   0.75857   0.00000  Uiso   1.00
C139   C     0.89947   0.87768   0.69869   0.00000  Uiso   1.00
C140   C     0.92178   0.85797   0.60843   0.00000  Uiso   1.00
C141   C     0.96954   0.86936   0.59759   0.00000  Uiso   1.00
C142   C     0.98289   0.84755   0.50940   0.00000  Uiso   1.00
C143   C     0.02260   0.82187   0.38058   0.00000  Uiso   1.00
C144   C     0.86060   0.96179   0.67470   0.00000  Uiso   1.00
C145   C     0.85691   0.06048   0.71959   0.00000  Uiso   1.00
C146   C     0.81874   0.12606   0.68719   0.00000  Uiso   1.00
C147   C     0.76343   0.26154   0.66131   0.00000  Uiso   1.00
C148   C     0.87407   0.77284   0.71883   0.00000  Uiso   1.00
C149   C     0.88171   0.71266   0.80083   0.00000  Uiso   1.00
C150   C     0.85488   0.61916   0.80560   0.00000  Uiso   1.00
C151   C     0.82050   0.46126   0.84823   0.00000  Uiso   1.00
C152   C     0.83825   0.81866   0.56136   0.00000  Uiso   1.00
C153   C     0.88853   0.82591   0.53384   0.00000  Uiso   1.00
C154   C     0.90181   0.80407   0.44565   0.00000  Uiso   1.00
C155   C     0.94958   0.81543   0.43467   0.00000  Uiso   1.00
C156   C     0.82734   0.92974   0.60011   0.00000  Uiso   1.00
C157   C     0.78917   0.99518   0.56765   0.00000  Uiso   1.00
C158   C     0.78543   0.09394   0.61247   0.00000  Uiso   1.00
C159   C     0.84082   0.74078   0.64424   0.00000  Uiso   1.00
C160   C     0.81398   0.64736   0.64888   0.00000  Uiso   1.00
C161   C     0.82157   0.58705   0.73087   0.00000  Uiso   1.00
H162   H     0.92536   0.90264   0.75676   0.00000  Uiso   1.00
H163   H     0.99527   0.89418   0.65533   0.00000  Uiso   1.00
H164   H     0.88264   0.08526   0.77731   0.00000  Uiso   1.00
H165   H     0.90744   0.73749   0.85854   0.00000  Uiso   1.00
H166   H     0.05811   0.87071   0.50996   0.00000  Uiso   1.00
H167   H     0.82063   0.27359   0.76720   0.00000  Uiso   1.00
H168   H     0.87292   0.54025   0.93848   0.00000  Uiso   1.00
H169   H     0.81236   0.79370   0.50329   0.00000  Uiso   1.00
H170   H     0.87607   0.77926   0.38794   0.00000  Uiso   1.00
H171   H     0.76345   0.97035   0.50993   0.00000  Uiso   1.00
H172   H     0.78825   0.62258   0.59115   0.00000  Uiso   1.00
H173   H     0.96136   0.77744   0.29293   0.00000  Uiso   1.00
H174   H     0.72388   0.18033   0.55018   0.00000  Uiso   1.00
H175   H     0.77617   0.44699   0.72145   0.00000  Uiso   1.00
O176   O     0.05368   0.81658   0.33013   0.00000  Uiso   1.00
O177   O     0.74211   0.34513   0.66763   0.00000  Uiso   1.00
O178   O     0.81072   0.38301   0.89234   0.00000  Uiso   1.00
N179   N     0.02660   0.85072   0.47472   0.00000  Uiso   1.00
N180   N     0.80457   0.22740   0.71521   0.00000  Uiso   1.00
N181   N     0.85345   0.54180   0.87535   0.00000  Uiso   1.00
N182   N     0.97454   0.80053   0.35794   0.00000  Uiso   1.00
N183   N     0.75251   0.17721   0.59843   0.00000  Uiso   1.00
N184   N     0.80139   0.49161   0.75857   0.00000  Uiso   1.00
C185   C     0.39947   0.62232   0.19869   0.00000  Uiso   1.00
C186   C     0.42178   0.64203   0.10843   0.00000  Uiso   1.00
C187   C     0.46954   0.63064   0.09759   0.00000  Uiso   1.00
C188   C     0.48289   0.65245   0.00940   0.00000  Uiso   1.00
C189   C     0.52260   0.67813   0.88058   0.00000  Uiso   1.00
C190   C     0.36060   0.53821   0.17470   0.00000  Uiso   1.00
C191   C     0.35691   0.43952   0.21959   0.00000  Uiso   1.00
C192   C     0.31874   0.37394   0.18719   0.00000  Uiso   1.00
C193   C     0.26343   0.23846   0.16131   0.00000  Uiso   1.00
C194   C     0.37407   0.72716   0.21883   0.00000  Uiso   1.00
C195   C     0.38171   0.78734   0.30083   0.00000  Uiso   1.00
C196   C     0.35488   0.88084   0.30560   0.00000  Uiso   1.00
C197   C     0.32050   0.03874   0.34823   0.00000  Uiso   1.00
C198   C     0.33825   0.68134   0.06136   0.00000  Uiso   1.00
C199   C     0.38853   0.67409   0.03384   0.00000  Uiso   1.00
C200   C     0.40181   0.69593   0.94565   0.00000  Uiso   1.00
C201   C     0.44958   0.68457   0.93467   0.00000  Uiso   1.00
C202   C     0.32734   0.57026   0.10011   0.00000  Uiso   1.00
C203   C     0.28917   0.50482   0.06765   0.00000  Uiso   1.00
C204   C     0.28543   0.40606   0.11247   0.00000  Uiso   1.00
C205   C     0.34082   0.75922   0.14424   0.00000  Uiso   1.00
C206   C     0.31398   0.85264   0.14888   0.00000  Uiso   1.00
C207   C     0.32157   0.91295   0.23087   0.00000  Uiso   1.00
H208   H     0.42536   0.59736   0.25676   0.00000  Uiso   1.00
H209   H     0.49527   0.60582   0.15533   0.00000  Uiso   1.00
H210   H     0.38264   0.41474   0.27731   0.00000  Uiso   1.00
H211   H     0.40744   0.76251   0.35854   0.00000  Uiso   1.00
H212   H     0.55811   0.62929   0.00996   0.00000  Uiso   1.00
H213   H     0.32063   0.22641   0.26720   0.00000  Uiso   1.00
H214   H     0.37292   0.95975   0.43848   0.00000  Uiso   1.00
H215   H     0.31236   0.70630   0.00329   0.00000  Uiso   1.00
H216   H     0.37607   0.72074   0.88794   0.00000  Uiso   1.00
H217   H     0.26345   0.52965   0.00993   0.00000  Uiso   1.00
H218   H     0.28825   0.87742   0.09115   0.00000  Uiso   1.00
H219   H     0.46136   0.72256   0.79293   0.00000  Uiso   1.00
H220   H     0.22388   0.31967   0.05018   0.00000  Uiso   1.00
H221   H     0.27617   0.05301   0.22145   0.00000  Uiso   1.00
O222   O     0.55368   0.68342   0.83013   0.00000  Uiso   1.00
O223   O     0.24211   0.15487   0.16763   0.00000  Uiso   1.00
O224   O     0.31072   0.11699   0.39234   0.00000  Uiso   1.00
N225   N     0.52660   0.64928   0.97472   0.00000  Uiso   1.00
N226   N     0.30457   0.27260   0.21521   0.00000  Uiso   1.00
N227   N     0.35345   0.95820   0.37535   0.00000  Uiso   1.00
N228   N     0.47454   0.69947   0.85794   0.00000  Uiso   1.00
N229   N     0.25251   0.32279   0.09843   0.00000  Uiso   1.00
N230   N     0.30139   0.00839   0.25857   0.00000  Uiso   1.00
C231   C     0.89947   0.12232   0.19869   0.00000  Uiso   1.00
C232   C     0.92178   0.14203   0.10843   0.00000  Uiso   1.00
C233   C     0.96954   0.13064   0.09759   0.00000  Uiso   1.00
C234   C     0.98289   0.15245   0.00940   0.00000  Uiso   1.00
C235   C     0.02260   0.17813   0.88058   0.00000  Uiso   1.00
C236   C     0.86060   0.03821   0.17470   0.00000  Uiso   1.00
C237   C     0.85691   0.93952   0.21959   0.00000  Uiso   1.00
C238   C     0.81874   0.87394   0.18719   0.00000  Uiso   1.00
C239   C     0.76343   0.73846   0.16131   0.00000  Uiso   1.00
C240   C     0.87407   0.22716   0.21883   0.00000  Uiso   1.00
C241   C     0.88171   0.28734   0.30083   0.00000  Uiso   1.00
C242   C     0.85488   0.38084   0.30560   0.00000  Uiso   1.00
C243   C     0.82050   0.53874   0.34823   0.00000  Uiso   1.00
C244   C     0.83825   0.18134   0.06136   0.00000  Uiso   1.00
C245   C     0.88853   0.17409   0.03384   0.00000  Uiso   1.00
C246   C     0.90181   0.19593   0.94565   0.00000  Uiso   1.00
C247   C     0.94958   0.18457   0.93467   0.00000  Uiso   1.00
C248   C     0.82734   0.07026   0.10011   0.00000  Uiso   1.00
C249   C     0.78917   0.00482   0.06765   0.00000  Uiso   1.00
C250   C     0.78543   0.90606   0.11247   0.00000  Uiso   1.00
C251   C     0.84082   0.25922   0.14424   0.00000  Uiso   1.00
C252   C     0.81398   0.35264   0.14888   0.00000  Uiso   1.00
C253   C     0.82157   0.41295   0.23087   0.00000  Uiso   1.00
H254   H     0.92536   0.09736   0.25676   0.00000  Uiso   1.00
H255   H     0.99527   0.10582   0.15533   0.00000  Uiso   1.00
H256   H     0.88264   0.91474   0.27731   0.00000  Uiso   1.00
H257   H     0.90744   0.26251   0.35854   0.00000  Uiso   1.00
H258   H     0.05811   0.12929   0.00996   0.00000  Uiso   1.00
H259   H     0.82063   0.72641   0.26720   0.00000  Uiso   1.00
H260   H     0.87292   0.45975   0.43848   0.00000  Uiso   1.00
H261   H     0.81236   0.20630   0.00329   0.00000  Uiso   1.00
H262   H     0.87607   0.22074   0.88794   0.00000  Uiso   1.00
H263   H     0.76345   0.02965   0.00993   0.00000  Uiso   1.00
H264   H     0.78825   0.37742   0.09115   0.00000  Uiso   1.00
H265   H     0.96136   0.22256   0.79293   0.00000  Uiso   1.00
H266   H     0.72388   0.81967   0.05018   0.00000  Uiso   1.00
H267   H     0.77617   0.55301   0.22145   0.00000  Uiso   1.00
O268   O     0.05368   0.18342   0.83013   0.00000  Uiso   1.00
O269   O     0.74211   0.65487   0.16763   0.00000  Uiso   1.00
O270   O     0.81072   0.61699   0.39234   0.00000  Uiso   1.00
N271   N     0.02660   0.14928   0.97472   0.00000  Uiso   1.00
N272   N     0.80457   0.77260   0.21521   0.00000  Uiso   1.00
N273   N     0.85345   0.45820   0.37535   0.00000  Uiso   1.00
N274   N     0.97454   0.19947   0.85794   0.00000  Uiso   1.00
N275   N     0.75251   0.82279   0.09843   0.00000  Uiso   1.00
N276   N     0.80139   0.50839   0.25857   0.00000  Uiso   1.00
C277   C     0.60053   0.62232   0.30131   0.00000  Uiso   1.00
C278   C     0.57822   0.64203   0.39157   0.00000  Uiso   1.00
C279   C     0.53046   0.63064   0.40241   0.00000  Uiso   1.00
C280   C     0.51711   0.65245   0.49060   0.00000  Uiso   1.00
C281   C     0.47740   0.67813   0.61942   0.00000  Uiso   1.00
C282   C     0.63940   0.53821   0.32530   0.00000  Uiso   1.00
C283   C     0.64309   0.43952   0.28041   0.00000  Uiso   1.00
C284   C     0.68126   0.37394   0.31281   0.00000  Uiso   1.00
C285   C     0.73657   0.23846   0.33869   0.00000  Uiso   1.00
C286   C     0.62593   0.72716   0.28117   0.00000  Uiso   1.00
C287   C     0.61829   0.78734   0.19917   0.00000  Uiso   1.00
C288   C     0.64512   0.88084   0.19440   0.00000  Uiso   1.00
C289   C     0.67950   0.03874   0.15177   0.00000  Uiso   1.00
C290   C     0.66175   0.68134   0.43864   0.00000  Uiso   1.00
C291   C     0.61147   0.67409   0.46616   0.00000  Uiso   1.00
C292   C     0.59819   0.69593   0.55435   0.00000  Uiso   1.00
C293   C     0.55042   0.68457   0.56533   0.00000  Uiso   1.00
C294   C     0.67266   0.57026   0.39989   0.00000  Uiso   1.00
C295   C     0.71083   0.50482   0.43235   0.00000  Uiso   1.00
C296   C     0.71457   0.40606   0.38753   0.00000  Uiso   1.00
C297   C     0.65918   0.75922   0.35576   0.00000  Uiso   1.00
C298   C     0.68602   0.85264   0.35112   0.00000  Uiso   1.00
C299   C     0.67843   0.91295   0.26913   0.00000  Uiso   1.00
H300   H     0.57464   0.59736   0.24324   0.00000  Uiso   1.00
H301   H     0.50473   0.60582   0.34467   0.00000  Uiso   1.00
H302   H     0.61736   0.41474   0.22269   0.00000  Uiso   1.00
H303   H     0.59256   0.76251   0.14146   0.00000  Uiso   1.00
H304   H     0.44189   0.62929   0.49004   0.00000  Uiso   1.00
H305   H     0.67937   0.22641   0.23280   0.00000  Uiso   1.00
H306   H     0.62708   0.95975   0.06152   0.00000  Uiso   1.00
H307   H     0.68764   0.70630   0.49671   0.00000  Uiso   1.00
H308   H     0.62393   0.72074   0.61206   0.00000  Uiso   1.00
H309   H     0.73655   0.52965   0.49007   0.00000  Uiso   1.00
H310   H     0.71175   0.87742   0.40885   0.00000  Uiso   1.00
H311   H     0.53864   0.72256   0.70707   0.00000  Uiso   1.00
H312   H     0.77612   0.31967   0.44982   0.00000  Uiso   1.00
H313   H     0.72383   0.05301   0.27855   0.00000  Uiso   1.00
O314   O     0.44632   0.68342   0.66987   0.00000  Uiso   1.00
O315   O     0.75789   0.15487   0.33237   0.00000  Uiso   1.00
O316   O     0.68928   0.11699   0.10766   0.00000  Uiso   1.00
N317   N     0.47340   0.64928   0.52528   0.00000  Uiso   1.00
N318   N     0.69543   0.27260   0.28479   0.00000  Uiso   1.00
N319   N     0.64655   0.95820   0.12465   0.00000  Uiso   1.00
N320   N     0.52546   0.69947   0.64206   0.00000  Uiso   1.00
N321   N     0.74749   0.32279   0.40157   0.00000  Uiso   1.00
N322   N     0.69861   0.00839   0.24143   0.00000  Uiso   1.00
C323   C     0.10053   0.12232   0.30131   0.00000  Uiso   1.00
C324   C     0.07822   0.14203   0.39157   0.00000  Uiso   1.00
C325   C     0.03046   0.13064   0.40241   0.00000  Uiso   1.00
C326   C     0.01711   0.15245   0.49060   0.00000  Uiso   1.00
C327   C     0.97740   0.17813   0.61942   0.00000  Uiso   1.00
C328   C     0.13940   0.03821   0.32530   0.00000  Uiso   1.00
C329   C     0.14309   0.93952   0.28041   0.00000  Uiso   1.00
C330   C     0.18126   0.87394   0.31281   0.00000  Uiso   1.00
C331   C     0.23657   0.73846   0.33869   0.00000  Uiso   1.00
C332   C     0.12593   0.22716   0.28117   0.00000  Uiso   1.00
C333   C     0.11829   0.28734   0.19917   0.00000  Uiso   1.00
C334   C     0.14512   0.38084   0.19440   0.00000  Uiso   1.00
C335   C     0.17950   0.53874   0.15177   0.00000  Uiso   1.00
C336   C     0.16175   0.18134   0.43864   0.00000  Uiso   1.00
C337   C     0.11147   0.17409   0.46616   0.00000  Uiso   1.00
C338   C     0.09819   0.19593   0.55435   0.00000  Uiso   1.00
C339   C     0.05042   0.18457   0.56533   0.00000  Uiso   1.00
C340   C     0.17266   0.07026   0.39989   0.00000  Uiso   1.00
C341   C     0.21083   0.00482   0.43235   0.00000  Uiso   1.00
C342   C     0.21457   0.90606   0.38753   0.00000  Uiso   1.00
C343   C     0.15918   0.25922   0.35576   0.00000  Uiso   1.00
C344   C     0.18602   0.35264   0.35112   0.00000  Uiso   1.00
C345   C     0.17843   0.41295   0.26913   0.00000  Uiso   1.00
H346   H     0.07464   0.09736   0.24324   0.00000  Uiso   1.00
H347   H     0.00473   0.10582   0.34467   0.00000  Uiso   1.00
H348   H     0.11736   0.91474   0.22269   0.00000  Uiso   1.00
H349   H     0.09256   0.26251   0.14146   0.00000  Uiso   1.00
H350   H     0.94189   0.12929   0.49004   0.00000  Uiso   1.00
H351   H     0.17937   0.72641   0.23280   0.00000  Uiso   1.00
H352   H     0.12708   0.45975   0.06152   0.00000  Uiso   1.00
H353   H     0.18764   0.20630   0.49671   0.00000  Uiso   1.00
H354   H     0.12393   0.22074   0.61206   0.00000  Uiso   1.00
H355   H     0.23655   0.02965   0.49007   0.00000  Uiso   1.00
H356   H     0.21175   0.37742   0.40885   0.00000  Uiso   1.00
H357   H     0.03864   0.22256   0.70707   0.00000  Uiso   1.00
H358   H     0.27612   0.81967   0.44982   0.00000  Uiso   1.00
H359   H     0.22383   0.55301   0.27855   0.00000  Uiso   1.00
O360   O     0.94632   0.18342   0.66987   0.00000  Uiso   1.00
O361   O     0.25789   0.65487   0.33237   0.00000  Uiso   1.00
O362   O     0.18928   0.61699   0.10766   0.00000  Uiso   1.00
N363   N     0.97340   0.14928   0.52528   0.00000  Uiso   1.00
N364   N     0.19543   0.77260   0.28479   0.00000  Uiso   1.00
N365   N     0.14655   0.45820   0.12465   0.00000  Uiso   1.00
N366   N     0.02546   0.19947   0.64206   0.00000  Uiso   1.00
N367   N     0.24749   0.82279   0.40157   0.00000  Uiso   1.00
N368   N     0.19861   0.50839   0.24143   0.00000  Uiso   1.00
