data_job_02134
_audit_creation_date              2018-12-19
_audit_creation_method            'Materials Studio'
_symmetry_space_group_name_H-M    'P1'
_symmetry_Int_Tables_number       1
_symmetry_cell_setting            triclinic
loop_
_symmetry_equiv_pos_as_xyz
  x,y,z
_cell_length_a                    20.0733
_cell_length_b                    7.4983
_cell_length_c                    14.8030
_cell_angle_alpha                 90.0000
_cell_angle_beta                  90.0000
_cell_angle_gamma                 90.0000
loop_
_atom_site_label
_atom_site_type_symbol
_atom_site_fract_x
_atom_site_fract_y
_atom_site_fract_z
_atom_site_U_iso_or_equiv
_atom_site_adp_type
_atom_site_occupancy
C1     C     0.01963   0.83258   0.83854   0.00000  Uiso   1.00
C2     C     0.03548   0.00754   0.88646   0.00000  Uiso   1.00
C3     C     0.06601   0.02402   0.97015   0.00000  Uiso   1.00
C4     C     0.07612   0.19580   0.00237   0.00000  Uiso   1.00
C5     C     0.10370   0.44468   0.08436   0.00000  Uiso   1.00
C6     C     0.94493   0.83575   0.81984   0.00000  Uiso   1.00
C7     C     0.89934   0.70777   0.84751   0.00000  Uiso   1.00
C8     C     0.83323   0.73493   0.82362   0.00000  Uiso   1.00
C9     C     0.72025   0.71703   0.80213   0.00000  Uiso   1.00
C10    C     0.05356   0.84343   0.74654   0.00000  Uiso   1.00
C11    C     0.09929   0.72189   0.71257   0.00000  Uiso   1.00
C12    C     0.12462   0.75550   0.62696   0.00000  Uiso   1.00
C13    C     0.18030   0.74953   0.49167   0.00000  Uiso   1.00
C14    C     0.98328   0.10834   0.74692   0.00000  Uiso   1.00
C15    C     0.01574   0.15732   0.83669   0.00000  Uiso   1.00
C16    C     0.02580   0.32912   0.86878   0.00000  Uiso   1.00
C17    C     0.05635   0.34585   0.95251   0.00000  Uiso   1.00
C18    C     0.92519   0.98552   0.77007   0.00000  Uiso   1.00
C19    C     0.85913   0.01287   0.74613   0.00000  Uiso   1.00
C20    C     0.81345   0.88498   0.77377   0.00000  Uiso   1.00
C21    C     0.03382   0.99322   0.69677   0.00000  Uiso   1.00
C22    C     0.05908   0.02701   0.61120   0.00000  Uiso   1.00
C23    C     0.10484   0.90555   0.57711   0.00000  Uiso   1.00
H24    H     0.03500   0.71596   0.87729   0.00000  Uiso   1.00
H25    H     0.08128   0.90807   0.00865   0.00000  Uiso   1.00
H26    H     0.91464   0.59187   0.88601   0.00000  Uiso   1.00
H27    H     0.11456   0.60600   0.75110   0.00000  Uiso   1.00
H28    H     0.12387   0.18711   0.13236   0.00000  Uiso   1.00
H29    H     0.77249   0.52035   0.87375   0.00000  Uiso   1.00
H30    H     0.19406   0.55014   0.58926   0.00000  Uiso   1.00
H31    H     0.96791   0.22496   0.70817   0.00000  Uiso   1.00
H32    H     0.01052   0.44501   0.83025   0.00000  Uiso   1.00
H33    H     0.84387   0.12879   0.70762   0.00000  Uiso   1.00
H34    H     0.04379   0.14293   0.57271   0.00000  Uiso   1.00
H35    H     0.06643   0.62291   0.98757   0.00000  Uiso   1.00
H36    H     0.71505   0.95613   0.72895   0.00000  Uiso   1.00
H37    H     0.13663   0.98593   0.44446   0.00000  Uiso   1.00
O38    O     0.12436   0.54058   0.14334   0.00000  Uiso   1.00
O39    O     0.66338   0.66578   0.80404   0.00000  Uiso   1.00
O40    O     0.21647   0.70488   0.43080   0.00000  Uiso   1.00
N41    N     0.10451   0.25948   0.08152   0.00000  Uiso   1.00
N42    N     0.77600   0.63610   0.83975   0.00000  Uiso   1.00
N43    N     0.17012   0.66393   0.57376   0.00000  Uiso   1.00
N44    N     0.07361   0.49398   0.00361   0.00000  Uiso   1.00
N45    N     0.74509   0.87060   0.76183   0.00000  Uiso   1.00
N46    N     0.13921   0.89843   0.49585   0.00000  Uiso   1.00
C47    C     0.98037   0.16742   0.33854   0.00000  Uiso   1.00
C48    C     0.96452   0.99246   0.38646   0.00000  Uiso   1.00
C49    C     0.93399   0.97598   0.47015   0.00000  Uiso   1.00
C50    C     0.92388   0.80420   0.50237   0.00000  Uiso   1.00
C51    C     0.89630   0.55532   0.58436   0.00000  Uiso   1.00
C52    C     0.05507   0.16425   0.31984   0.00000  Uiso   1.00
C53    C     0.10066   0.29223   0.34751   0.00000  Uiso   1.00
C54    C     0.16677   0.26507   0.32362   0.00000  Uiso   1.00
C55    C     0.27975   0.28297   0.30213   0.00000  Uiso   1.00
C56    C     0.94644   0.15657   0.24654   0.00000  Uiso   1.00
C57    C     0.90071   0.27811   0.21257   0.00000  Uiso   1.00
C58    C     0.87538   0.24450   0.12696   0.00000  Uiso   1.00
C59    C     0.81970   0.25047   0.99167   0.00000  Uiso   1.00
C60    C     0.01672   0.89166   0.24692   0.00000  Uiso   1.00
C61    C     0.98426   0.84268   0.33669   0.00000  Uiso   1.00
C62    C     0.97420   0.67088   0.36878   0.00000  Uiso   1.00
C63    C     0.94365   0.65415   0.45251   0.00000  Uiso   1.00
C64    C     0.07481   0.01448   0.27007   0.00000  Uiso   1.00
C65    C     0.14087   0.98713   0.24613   0.00000  Uiso   1.00
C66    C     0.18655   0.11502   0.27377   0.00000  Uiso   1.00
C67    C     0.96618   0.00678   0.19677   0.00000  Uiso   1.00
C68    C     0.94092   0.97299   0.11120   0.00000  Uiso   1.00
C69    C     0.89516   0.09445   0.07711   0.00000  Uiso   1.00
H70    H     0.96500   0.28404   0.37729   0.00000  Uiso   1.00
H71    H     0.91872   0.09193   0.50865   0.00000  Uiso   1.00
H72    H     0.08536   0.40813   0.38601   0.00000  Uiso   1.00
H73    H     0.88544   0.39400   0.25110   0.00000  Uiso   1.00
H74    H     0.87613   0.81289   0.63236   0.00000  Uiso   1.00
H75    H     0.22751   0.47965   0.37375   0.00000  Uiso   1.00
H76    H     0.80594   0.44986   0.08926   0.00000  Uiso   1.00
H77    H     0.03209   0.77504   0.20817   0.00000  Uiso   1.00
H78    H     0.98948   0.55499   0.33025   0.00000  Uiso   1.00
H79    H     0.15613   0.87121   0.20762   0.00000  Uiso   1.00
H80    H     0.95621   0.85707   0.07271   0.00000  Uiso   1.00
H81    H     0.93357   0.37709   0.48757   0.00000  Uiso   1.00
H82    H     0.28495   0.04387   0.22895   0.00000  Uiso   1.00
H83    H     0.86337   0.01407   0.94446   0.00000  Uiso   1.00
O84    O     0.87564   0.45942   0.64334   0.00000  Uiso   1.00
O85    O     0.33662   0.33422   0.30404   0.00000  Uiso   1.00
O86    O     0.78353   0.29512   0.93080   0.00000  Uiso   1.00
N87    N     0.89549   0.74052   0.58152   0.00000  Uiso   1.00
N88    N     0.22400   0.36390   0.33975   0.00000  Uiso   1.00
N89    N     0.82988   0.33607   0.07376   0.00000  Uiso   1.00
N90    N     0.92639   0.50602   0.50361   0.00000  Uiso   1.00
N91    N     0.25491   0.12940   0.26183   0.00000  Uiso   1.00
N92    N     0.86079   0.10157   0.99585   0.00000  Uiso   1.00
C93    C     0.51963   0.16742   0.83854   0.00000  Uiso   1.00
C94    C     0.53548   0.99246   0.88646   0.00000  Uiso   1.00
C95    C     0.56601   0.97598   0.97015   0.00000  Uiso   1.00
C96    C     0.57612   0.80420   0.00237   0.00000  Uiso   1.00
C97    C     0.60370   0.55532   0.08436   0.00000  Uiso   1.00
C98    C     0.44493   0.16425   0.81984   0.00000  Uiso   1.00
C99    C     0.39934   0.29223   0.84751   0.00000  Uiso   1.00
C100   C     0.33323   0.26507   0.82362   0.00000  Uiso   1.00
C101   C     0.22025   0.28297   0.80213   0.00000  Uiso   1.00
C102   C     0.55356   0.15657   0.74654   0.00000  Uiso   1.00
C103   C     0.59929   0.27811   0.71257   0.00000  Uiso   1.00
C104   C     0.62462   0.24450   0.62696   0.00000  Uiso   1.00
C105   C     0.68030   0.25047   0.49167   0.00000  Uiso   1.00
C106   C     0.48328   0.89166   0.74692   0.00000  Uiso   1.00
C107   C     0.51574   0.84268   0.83669   0.00000  Uiso   1.00
C108   C     0.52580   0.67088   0.86878   0.00000  Uiso   1.00
C109   C     0.55635   0.65415   0.95251   0.00000  Uiso   1.00
C110   C     0.42519   0.01448   0.77007   0.00000  Uiso   1.00
C111   C     0.35913   0.98713   0.74613   0.00000  Uiso   1.00
C112   C     0.31345   0.11502   0.77377   0.00000  Uiso   1.00
C113   C     0.53382   0.00678   0.69677   0.00000  Uiso   1.00
C114   C     0.55908   0.97299   0.61120   0.00000  Uiso   1.00
C115   C     0.60484   0.09445   0.57711   0.00000  Uiso   1.00
H116   H     0.53500   0.28404   0.87729   0.00000  Uiso   1.00
H117   H     0.58128   0.09193   0.00865   0.00000  Uiso   1.00
H118   H     0.41464   0.40813   0.88601   0.00000  Uiso   1.00
H119   H     0.61456   0.39400   0.75110   0.00000  Uiso   1.00
H120   H     0.62387   0.81289   0.13236   0.00000  Uiso   1.00
H121   H     0.27249   0.47965   0.87375   0.00000  Uiso   1.00
H122   H     0.69406   0.44986   0.58926   0.00000  Uiso   1.00
H123   H     0.46791   0.77504   0.70817   0.00000  Uiso   1.00
H124   H     0.51052   0.55499   0.83025   0.00000  Uiso   1.00
H125   H     0.34387   0.87121   0.70762   0.00000  Uiso   1.00
H126   H     0.54379   0.85707   0.57271   0.00000  Uiso   1.00
H127   H     0.56643   0.37709   0.98757   0.00000  Uiso   1.00
H128   H     0.21505   0.04387   0.72895   0.00000  Uiso   1.00
H129   H     0.63663   0.01407   0.44446   0.00000  Uiso   1.00
O130   O     0.62436   0.45942   0.14334   0.00000  Uiso   1.00
O131   O     0.16338   0.33422   0.80404   0.00000  Uiso   1.00
O132   O     0.71647   0.29512   0.43080   0.00000  Uiso   1.00
N133   N     0.60451   0.74052   0.08152   0.00000  Uiso   1.00
N134   N     0.27600   0.36390   0.83975   0.00000  Uiso   1.00
N135   N     0.67012   0.33607   0.57376   0.00000  Uiso   1.00
N136   N     0.57361   0.50602   0.00361   0.00000  Uiso   1.00
N137   N     0.24509   0.12940   0.76183   0.00000  Uiso   1.00
N138   N     0.63921   0.10157   0.49585   0.00000  Uiso   1.00
C139   C     0.48037   0.83258   0.33854   0.00000  Uiso   1.00
C140   C     0.46452   0.00754   0.38646   0.00000  Uiso   1.00
C141   C     0.43399   0.02402   0.47015   0.00000  Uiso   1.00
C142   C     0.42388   0.19580   0.50237   0.00000  Uiso   1.00
C143   C     0.39630   0.44468   0.58436   0.00000  Uiso   1.00
C144   C     0.55507   0.83575   0.31984   0.00000  Uiso   1.00
C145   C     0.60066   0.70777   0.34751   0.00000  Uiso   1.00
C146   C     0.66677   0.73493   0.32362   0.00000  Uiso   1.00
C147   C     0.77975   0.71703   0.30213   0.00000  Uiso   1.00
C148   C     0.44644   0.84343   0.24654   0.00000  Uiso   1.00
C149   C     0.40071   0.72189   0.21257   0.00000  Uiso   1.00
C150   C     0.37538   0.75550   0.12696   0.00000  Uiso   1.00
C151   C     0.31970   0.74953   0.99167   0.00000  Uiso   1.00
C152   C     0.51672   0.10834   0.24692   0.00000  Uiso   1.00
C153   C     0.48426   0.15732   0.33669   0.00000  Uiso   1.00
C154   C     0.47420   0.32912   0.36878   0.00000  Uiso   1.00
C155   C     0.44365   0.34585   0.45251   0.00000  Uiso   1.00
C156   C     0.57481   0.98552   0.27007   0.00000  Uiso   1.00
C157   C     0.64087   0.01287   0.24613   0.00000  Uiso   1.00
C158   C     0.68655   0.88498   0.27377   0.00000  Uiso   1.00
C159   C     0.46618   0.99322   0.19677   0.00000  Uiso   1.00
C160   C     0.44092   0.02701   0.11120   0.00000  Uiso   1.00
C161   C     0.39516   0.90555   0.07711   0.00000  Uiso   1.00
H162   H     0.46500   0.71596   0.37729   0.00000  Uiso   1.00
H163   H     0.41872   0.90807   0.50865   0.00000  Uiso   1.00
H164   H     0.58536   0.59187   0.38601   0.00000  Uiso   1.00
H165   H     0.38544   0.60600   0.25110   0.00000  Uiso   1.00
H166   H     0.37613   0.18711   0.63236   0.00000  Uiso   1.00
H167   H     0.72751   0.52035   0.37375   0.00000  Uiso   1.00
H168   H     0.30594   0.55014   0.08926   0.00000  Uiso   1.00
H169   H     0.53209   0.22496   0.20817   0.00000  Uiso   1.00
H170   H     0.48948   0.44501   0.33025   0.00000  Uiso   1.00
H171   H     0.65613   0.12879   0.20762   0.00000  Uiso   1.00
H172   H     0.45621   0.14293   0.07271   0.00000  Uiso   1.00
H173   H     0.43357   0.62291   0.48757   0.00000  Uiso   1.00
H174   H     0.78495   0.95613   0.22895   0.00000  Uiso   1.00
H175   H     0.36337   0.98593   0.94446   0.00000  Uiso   1.00
O176   O     0.37564   0.54058   0.64334   0.00000  Uiso   1.00
O177   O     0.83662   0.66578   0.30404   0.00000  Uiso   1.00
O178   O     0.28353   0.70488   0.93080   0.00000  Uiso   1.00
N179   N     0.39549   0.25948   0.58152   0.00000  Uiso   1.00
N180   N     0.72400   0.63610   0.33975   0.00000  Uiso   1.00
N181   N     0.32988   0.66393   0.07376   0.00000  Uiso   1.00
N182   N     0.42639   0.49398   0.50361   0.00000  Uiso   1.00
N183   N     0.75491   0.87060   0.26183   0.00000  Uiso   1.00
N184   N     0.36079   0.89843   0.99585   0.00000  Uiso   1.00
