data_job_01801
_audit_creation_date              2018-12-19
_audit_creation_method            'Materials Studio'
_symmetry_space_group_name_H-M    'P1'
_symmetry_Int_Tables_number       1
_symmetry_cell_setting            triclinic
loop_
_symmetry_equiv_pos_as_xyz
  x,y,z
_cell_length_a                    10.0435
_cell_length_b                    11.4419
_cell_length_c                    16.7307
_cell_angle_alpha                 80.0644
_cell_angle_beta                  78.9983
_cell_angle_gamma                 99.2076
loop_
_atom_site_label
_atom_site_type_symbol
_atom_site_fract_x
_atom_site_fract_y
_atom_site_fract_z
_atom_site_U_iso_or_equiv
_atom_site_adp_type
_atom_site_occupancy
C1     C     0.67106   0.40248   0.28222   0.00000  Uiso   1.00
C2     C     0.74079   0.52437   0.22485   0.00000  Uiso   1.00
C3     C     0.87084   0.58950   0.22286   0.00000  Uiso   1.00
C4     C     0.91615   0.69912   0.16591   0.00000  Uiso   1.00
C5     C     0.03685   0.88189   0.08493   0.00000  Uiso   1.00
C6     C     0.53272   0.42041   0.32947   0.00000  Uiso   1.00
C7     C     0.48783   0.39811   0.41544   0.00000  Uiso   1.00
C8     C     0.35798   0.42021   0.44656   0.00000  Uiso   1.00
C9     C     0.15561   0.44150   0.52800   0.00000  Uiso   1.00
C10    C     0.63631   0.31673   0.22545   0.00000  Uiso   1.00
C11    C     0.67849   0.20723   0.22397   0.00000  Uiso   1.00
C12    C     0.63581   0.14202   0.16751   0.00000  Uiso   1.00
C13    C     0.59429   0.00232   0.08745   0.00000  Uiso   1.00
C14    C     0.52025   0.48135   0.18462   0.00000  Uiso   1.00
C15    C     0.65887   0.56720   0.17184   0.00000  Uiso   1.00
C16    C     0.70399   0.67675   0.11488   0.00000  Uiso   1.00
C17    C     0.83409   0.74204   0.11280   0.00000  Uiso   1.00
C18    C     0.45081   0.46324   0.27646   0.00000  Uiso   1.00
C19    C     0.32098   0.48537   0.30746   0.00000  Uiso   1.00
C20    C     0.27591   0.46313   0.39345   0.00000  Uiso   1.00
C21    C     0.55440   0.35956   0.17243   0.00000  Uiso   1.00
C22    C     0.51164   0.29450   0.11598   0.00000  Uiso   1.00
C23    C     0.55375   0.18493   0.11441   0.00000  Uiso   1.00
H24    H     0.73482   0.36913   0.32349   0.00000  Uiso   1.00
H25    H     0.93420   0.55632   0.26390   0.00000  Uiso   1.00
H26    H     0.55124   0.36496   0.45645   0.00000  Uiso   1.00
H27    H     0.74187   0.17411   0.26500   0.00000  Uiso   1.00
H28    H     0.11909   0.78277   0.17448   0.00000  Uiso   1.00
H29    H     0.31159   0.37922   0.58047   0.00000  Uiso   1.00
H30    H     0.71357   0.97679   0.17677   0.00000  Uiso   1.00
H31    H     0.45647   0.51470   0.14334   0.00000  Uiso   1.00
H32    H     0.64058   0.70988   0.07386   0.00000  Uiso   1.00
H33    H     0.25762   0.51851   0.26641   0.00000  Uiso   1.00
H34    H     0.44825   0.32767   0.07496   0.00000  Uiso   1.00
H35    H     0.88078   0.90741   0.02023   0.00000  Uiso   1.00
H36    H     0.07327   0.50385   0.42624   0.00000  Uiso   1.00
H37    H     0.47526   0.10142   0.02253   0.00000  Uiso   1.00
O38    O     0.12605   0.97088   0.05492   0.00000  Uiso   1.00
O39    O     0.06663   0.44142   0.58757   0.00000  Uiso   1.00
O40    O     0.59403   0.91344   0.05792   0.00000  Uiso   1.00
N41    N     0.03775   0.78530   0.14770   0.00000  Uiso   1.00
N42    N     0.28279   0.40803   0.52728   0.00000  Uiso   1.00
N43    N     0.65858   0.03177   0.14987   0.00000  Uiso   1.00
N44    N     0.90952   0.85237   0.06470   0.00000  Uiso   1.00
N45    N     0.15456   0.47510   0.44429   0.00000  Uiso   1.00
N46    N     0.53035   0.09884   0.06687   0.00000  Uiso   1.00
C47    C     0.32894   0.59752   0.71778   0.00000  Uiso   1.00
C48    C     0.25921   0.47563   0.77515   0.00000  Uiso   1.00
C49    C     0.12916   0.41050   0.77714   0.00000  Uiso   1.00
C50    C     0.08385   0.30088   0.83409   0.00000  Uiso   1.00
C51    C     0.96315   0.11811   0.91507   0.00000  Uiso   1.00
C52    C     0.46728   0.57959   0.67053   0.00000  Uiso   1.00
C53    C     0.51217   0.60189   0.58456   0.00000  Uiso   1.00
C54    C     0.64202   0.57979   0.55344   0.00000  Uiso   1.00
C55    C     0.84439   0.55850   0.47200   0.00000  Uiso   1.00
C56    C     0.36369   0.68327   0.77455   0.00000  Uiso   1.00
C57    C     0.32151   0.79277   0.77603   0.00000  Uiso   1.00
C58    C     0.36419   0.85798   0.83249   0.00000  Uiso   1.00
C59    C     0.40571   0.99768   0.91255   0.00000  Uiso   1.00
C60    C     0.47975   0.51865   0.81538   0.00000  Uiso   1.00
C61    C     0.34113   0.43280   0.82816   0.00000  Uiso   1.00
C62    C     0.29601   0.32325   0.88512   0.00000  Uiso   1.00
C63    C     0.16591   0.25796   0.88720   0.00000  Uiso   1.00
C64    C     0.54919   0.53676   0.72354   0.00000  Uiso   1.00
C65    C     0.67902   0.51463   0.69254   0.00000  Uiso   1.00
C66    C     0.72409   0.53687   0.60655   0.00000  Uiso   1.00
C67    C     0.44560   0.64044   0.82757   0.00000  Uiso   1.00
C68    C     0.48836   0.70550   0.88402   0.00000  Uiso   1.00
C69    C     0.44625   0.81507   0.88559   0.00000  Uiso   1.00
H70    H     0.26518   0.63087   0.67651   0.00000  Uiso   1.00
H71    H     0.06580   0.44368   0.73610   0.00000  Uiso   1.00
H72    H     0.44876   0.63504   0.54355   0.00000  Uiso   1.00
H73    H     0.25813   0.82589   0.73500   0.00000  Uiso   1.00
H74    H     0.88091   0.21723   0.82552   0.00000  Uiso   1.00
H75    H     0.68841   0.62078   0.41953   0.00000  Uiso   1.00
H76    H     0.28643   0.02321   0.82323   0.00000  Uiso   1.00
H77    H     0.54353   0.48530   0.85666   0.00000  Uiso   1.00
H78    H     0.35942   0.29012   0.92614   0.00000  Uiso   1.00
H79    H     0.74238   0.48149   0.73359   0.00000  Uiso   1.00
H80    H     0.55175   0.67233   0.92504   0.00000  Uiso   1.00
H81    H     0.11922   0.09259   0.97977   0.00000  Uiso   1.00
H82    H     0.92673   0.49615   0.57376   0.00000  Uiso   1.00
H83    H     0.52474   0.89858   0.97747   0.00000  Uiso   1.00
O84    O     0.87395   0.02912   0.94508   0.00000  Uiso   1.00
O85    O     0.93337   0.55858   0.41243   0.00000  Uiso   1.00
O86    O     0.40597   0.08656   0.94208   0.00000  Uiso   1.00
N87    N     0.96225   0.21470   0.85230   0.00000  Uiso   1.00
N88    N     0.71721   0.59197   0.47272   0.00000  Uiso   1.00
N89    N     0.34142   0.96823   0.85013   0.00000  Uiso   1.00
N90    N     0.09048   0.14763   0.93530   0.00000  Uiso   1.00
N91    N     0.84544   0.52490   0.55571   0.00000  Uiso   1.00
N92    N     0.46965   0.90116   0.93313   0.00000  Uiso   1.00
