data_job_06331
_audit_creation_date              2018-12-19
_audit_creation_method            'Materials Studio'
_symmetry_space_group_name_H-M    'P1'
_symmetry_Int_Tables_number       1
_symmetry_cell_setting            triclinic
loop_
_symmetry_equiv_pos_as_xyz
  x,y,z
_cell_length_a                    12.0605
_cell_length_b                    22.3987
_cell_length_c                    22.4564
_cell_angle_alpha                 62.2340
_cell_angle_beta                  82.0234
_cell_angle_gamma                 97.9599
loop_
_atom_site_label
_atom_site_type_symbol
_atom_site_fract_x
_atom_site_fract_y
_atom_site_fract_z
_atom_site_U_iso_or_equiv
_atom_site_adp_type
_atom_site_occupancy
C1     C     0.02218   0.02808   0.31938   0.00000  Uiso   1.00
C2     C     0.10042   0.07243   0.33880   0.00000  Uiso   1.00
C3     C     0.17223   0.04906   0.38392   0.00000  Uiso   1.00
C4     C     0.23696   0.09776   0.39488   0.00000  Uiso   1.00
C5     C     0.35946   0.15603   0.43008   0.00000  Uiso   1.00
C6     C     0.90113   0.03714   0.33697   0.00000  Uiso   1.00
C7     C     0.80537   0.98410   0.38055   0.00000  Uiso   1.00
C8     C     0.70232   0.00310   0.38995   0.00000  Uiso   1.00
C9     C     0.51539   0.00658   0.42227   0.00000  Uiso   1.00
C10    C     0.05625   0.06244   0.24073   0.00000  Uiso   1.00
C11    C     0.09089   0.03065   0.20339   0.00000  Uiso   1.00
C12    C     0.11842   0.07094   0.13177   0.00000  Uiso   1.00
C13    C     0.17235   0.11370   0.01466   0.00000  Uiso   1.00
C14    C     0.00943   0.15615   0.25860   0.00000  Uiso   1.00
C15    C     0.09349   0.14199   0.30578   0.00000  Uiso   1.00
C16    C     0.15813   0.19075   0.31667   0.00000  Uiso   1.00
C17    C     0.23003   0.16745   0.36180   0.00000  Uiso   1.00
C18    C     0.89420   0.10670   0.30395   0.00000  Uiso   1.00
C19    C     0.79127   0.12579   0.31329   0.00000  Uiso   1.00
C20    C     0.69538   0.07278   0.35688   0.00000  Uiso   1.00
C21    C     0.04933   0.13200   0.20771   0.00000  Uiso   1.00
C22    C     0.07680   0.17235   0.13614   0.00000  Uiso   1.00
C23    C     0.11148   0.14063   0.09869   0.00000  Uiso   1.00
H24    H     0.02756   0.97393   0.34509   0.00000  Uiso   1.00
H25    H     0.17756   0.99522   0.40947   0.00000  Uiso   1.00
H26    H     0.81075   0.93027   0.40608   0.00000  Uiso   1.00
H27    H     0.09624   0.97682   0.22896   0.00000  Uiso   1.00
H28    H     0.34077   0.04949   0.46631   0.00000  Uiso   1.00
H29    H     0.56733   0.91254   0.45915   0.00000  Uiso   1.00
H30    H     0.16933   0.01071   0.08564   0.00000  Uiso   1.00
H31    H     0.00404   0.21031   0.23289   0.00000  Uiso   1.00
H32    H     0.15276   0.24458   0.29111   0.00000  Uiso   1.00
H33    H     0.78594   0.17963   0.28773   0.00000  Uiso   1.00
H34    H     0.07143   0.22618   0.11060   0.00000  Uiso   1.00
H35    H     0.32063   0.25188   0.37025   0.00000  Uiso   1.00
H36    H     0.54719   0.11493   0.36309   0.00000  Uiso   1.00
H37    H     0.14920   0.21309   0.98958   0.00000  Uiso   1.00
O38    O     0.42892   0.16896   0.45862   0.00000  Uiso   1.00
O39    O     0.41420   0.98928   0.44922   0.00000  Uiso   1.00
O40    O     0.20402   0.11807   0.95919   0.00000  Uiso   1.00
N41    N     0.31564   0.09243   0.43570   0.00000  Uiso   1.00
N42    N     0.59252   0.96439   0.42902   0.00000  Uiso   1.00
N43    N     0.15532   0.05615   0.07982   0.00000  Uiso   1.00
N44    N     0.30481   0.20133   0.38401   0.00000  Uiso   1.00
N45    N     0.58169   0.07329   0.37733   0.00000  Uiso   1.00
N46    N     0.14448   0.16506   0.02813   0.00000  Uiso   1.00
C47    C     0.98104   0.65234   0.02698   0.00000  Uiso   1.00
C48    C     0.02136   0.58797   0.07283   0.00000  Uiso   1.00
C49    C     0.11188   0.56487   0.05171   0.00000  Uiso   1.00
C50    C     0.13520   0.50485   0.10149   0.00000  Uiso   1.00
C51    C     0.20765   0.41029   0.16226   0.00000  Uiso   1.00
C52    C     0.85380   0.62739   0.03266   0.00000  Uiso   1.00
C53    C     0.80344   0.63744   0.97777   0.00000  Uiso   1.00
C54    C     0.68570   0.61062   0.99373   0.00000  Uiso   1.00
C55    C     0.49799   0.57730   0.99214   0.00000  Uiso   1.00
C56    C     0.98602   0.69677   0.06177   0.00000  Uiso   1.00
C57    C     0.04681   0.76517   0.03136   0.00000  Uiso   1.00
C58    C     0.04036   0.79676   0.07183   0.00000  Uiso   1.00
C59    C     0.05795   0.87117   0.11544   0.00000  Uiso   1.00
C60    C     0.86148   0.58683   0.15294   0.00000  Uiso   1.00
C61    C     0.95641   0.55239   0.14124   0.00000  Uiso   1.00
C62    C     0.97960   0.49239   0.19107   0.00000  Uiso   1.00
C63    C     0.07015   0.46920   0.17003   0.00000  Uiso   1.00
C64    C     0.78886   0.59181   0.10107   0.00000  Uiso   1.00
C65    C     0.67116   0.56497   0.11712   0.00000  Uiso   1.00
C66    C     0.62063   0.57497   0.06227   0.00000  Uiso   1.00
C67    C     0.92108   0.66119   0.13019   0.00000  Uiso   1.00
C68    C     0.91453   0.69269   0.17071   0.00000  Uiso   1.00
C69    C     0.97530   0.76112   0.14037   0.00000  Uiso   1.00
H70    H     0.03159   0.68004   0.97372   0.00000  Uiso   1.00
H71    H     0.16211   0.59241   0.99876   0.00000  Uiso   1.00
H72    H     0.85371   0.66498   0.92483   0.00000  Uiso   1.00
H73    H     0.09705   0.79268   0.97842   0.00000  Uiso   1.00
H74    H     0.27815   0.47955   0.05669   0.00000  Uiso   1.00
H75    H     0.62787   0.63260   0.90080   0.00000  Uiso   1.00
H76    H     0.14099   0.90188   0.01379   0.00000  Uiso   1.00
H77    H     0.81091   0.55913   0.20620   0.00000  Uiso   1.00
H78    H     0.92933   0.46487   0.24400   0.00000  Uiso   1.00
H79    H     0.62093   0.53744   0.17007   0.00000  Uiso   1.00
H80    H     0.86427   0.66514   0.22365   0.00000  Uiso   1.00
H81    H     0.08921   0.37603   0.25574   0.00000  Uiso   1.00
H82    H     0.43893   0.52908   0.09984   0.00000  Uiso   1.00
H83    H     0.95205   0.79836   0.21284   0.00000  Uiso   1.00
O84    O     0.26554   0.36795   0.17688   0.00000  Uiso   1.00
O85    O     0.41240   0.56875   0.97235   0.00000  Uiso   1.00
O86    O     0.08560   0.92204   0.12060   0.00000  Uiso   1.00
N87    N     0.21745   0.46813   0.09835   0.00000  Uiso   1.00
N88    N     0.60948   0.61121   0.95260   0.00000  Uiso   1.00
N89    N     0.08918   0.86297   0.05823   0.00000  Uiso   1.00
N90    N     0.11579   0.41243   0.20546   0.00000  Uiso   1.00
N91    N     0.50781   0.55551   0.05971   0.00000  Uiso   1.00
N92    N     0.98751   0.80727   0.16534   0.00000  Uiso   1.00
C93    C     0.31735   0.32031   0.65291   0.00000  Uiso   1.00
C94    C     0.41098   0.33744   0.59051   0.00000  Uiso   1.00
C95    C     0.51976   0.38023   0.57016   0.00000  Uiso   1.00
C96    C     0.59294   0.38935   0.51161   0.00000  Uiso   1.00
C97    C     0.74355   0.42093   0.42031   0.00000  Uiso   1.00
C98    C     0.21240   0.34101   0.62487   0.00000  Uiso   1.00
C99    C     0.15420   0.38678   0.63343   0.00000  Uiso   1.00
C100   C     0.06020   0.39889   0.60380   0.00000  Uiso   1.00
C101   C     0.90245   0.43597   0.56589   0.00000  Uiso   1.00
C102   C     0.28518   0.24143   0.69686   0.00000  Uiso   1.00
C103   C     0.28815   0.20348   0.76595   0.00000  Uiso   1.00
C104   C     0.25540   0.13175   0.79694   0.00000  Uiso   1.00
C105   C     0.21065   0.01422   0.87080   0.00000  Uiso   1.00
C106   C     0.25387   0.26041   0.58510   0.00000  Uiso   1.00
C107   C     0.37650   0.30491   0.55368   0.00000  Uiso   1.00
C108   C     0.44953   0.31396   0.49514   0.00000  Uiso   1.00
C109   C     0.55841   0.35675   0.47471   0.00000  Uiso   1.00
C110   C     0.17792   0.30848   0.58804   0.00000  Uiso   1.00
C111   C     0.08397   0.32051   0.55840   0.00000  Uiso   1.00
C112   C     0.02566   0.36630   0.56690   0.00000  Uiso   1.00
C113   C     0.25070   0.20890   0.66003   0.00000  Uiso   1.00
C114   C     0.21793   0.13721   0.69092   0.00000  Uiso   1.00
C115   C     0.22086   0.09916   0.76004   0.00000  Uiso   1.00
H116   H     0.34419   0.34564   0.68158   0.00000  Uiso   1.00
H117   H     0.54641   0.40540   0.59868   0.00000  Uiso   1.00
H118   H     0.18090   0.41195   0.66194   0.00000  Uiso   1.00
H119   H     0.31483   0.22867   0.79443   0.00000  Uiso   1.00
H120   H     0.75539   0.45734   0.49051   0.00000  Uiso   1.00
H121   H     0.98467   0.47112   0.62391   0.00000  Uiso   1.00
H122   H     0.26709   0.08465   0.90331   0.00000  Uiso   1.00
H123   H     0.22703   0.23508   0.55642   0.00000  Uiso   1.00
H124   H     0.42283   0.28878   0.46665   0.00000  Uiso   1.00
H125   H     0.05732   0.29533   0.52990   0.00000  Uiso   1.00
H126   H     0.19125   0.11205   0.66240   0.00000  Uiso   1.00
H127   H     0.65508   0.36268   0.38334   0.00000  Uiso   1.00
H128   H     0.88436   0.37646   0.51675   0.00000  Uiso   1.00
H129   H     0.16678   0.98999   0.79615   0.00000  Uiso   1.00
O130   O     0.83613   0.44735   0.38012   0.00000  Uiso   1.00
O131   O     0.82497   0.46542   0.55515   0.00000  Uiso   1.00
O132   O     0.19551   0.95838   0.92171   0.00000  Uiso   1.00
N133   N     0.70492   0.42768   0.47762   0.00000  Uiso   1.00
N134   N     0.98435   0.44058   0.60233   0.00000  Uiso   1.00
N135   N     0.24836   0.07926   0.86355   0.00000  Uiso   1.00
N136   N     0.65094   0.37675   0.41995   0.00000  Uiso   1.00
N137   N     0.93038   0.38964   0.54467   0.00000  Uiso   1.00
N138   N     0.19439   0.02832   0.80589   0.00000  Uiso   1.00
C139   C     0.97782   0.97192   0.68062   0.00000  Uiso   1.00
C140   C     0.89958   0.92757   0.66120   0.00000  Uiso   1.00
C141   C     0.82777   0.95094   0.61608   0.00000  Uiso   1.00
C142   C     0.76304   0.90224   0.60512   0.00000  Uiso   1.00
C143   C     0.64054   0.84396   0.56992   0.00000  Uiso   1.00
C144   C     0.09887   0.96286   0.66303   0.00000  Uiso   1.00
C145   C     0.19463   0.01590   0.61945   0.00000  Uiso   1.00
C146   C     0.29768   0.99690   0.61005   0.00000  Uiso   1.00
C147   C     0.48461   0.99342   0.57773   0.00000  Uiso   1.00
C148   C     0.94375   0.93756   0.75927   0.00000  Uiso   1.00
C149   C     0.90911   0.96935   0.79661   0.00000  Uiso   1.00
C150   C     0.88158   0.92905   0.86823   0.00000  Uiso   1.00
C151   C     0.82765   0.88630   0.98534   0.00000  Uiso   1.00
C152   C     0.99057   0.84385   0.74140   0.00000  Uiso   1.00
C153   C     0.90651   0.85801   0.69422   0.00000  Uiso   1.00
C154   C     0.84187   0.80925   0.68333   0.00000  Uiso   1.00
C155   C     0.76997   0.83255   0.63820   0.00000  Uiso   1.00
C156   C     0.10580   0.89330   0.69605   0.00000  Uiso   1.00
C157   C     0.20873   0.87421   0.68671   0.00000  Uiso   1.00
C158   C     0.30462   0.92721   0.64312   0.00000  Uiso   1.00
C159   C     0.95067   0.86800   0.79229   0.00000  Uiso   1.00
C160   C     0.92320   0.82765   0.86386   0.00000  Uiso   1.00
C161   C     0.88852   0.85937   0.90131   0.00000  Uiso   1.00
H162   H     0.97244   0.02607   0.65491   0.00000  Uiso   1.00
H163   H     0.82244   0.00478   0.59053   0.00000  Uiso   1.00
H164   H     0.18925   0.06973   0.59392   0.00000  Uiso   1.00
H165   H     0.90376   0.02318   0.77104   0.00000  Uiso   1.00
H166   H     0.65923   0.95051   0.53369   0.00000  Uiso   1.00
H167   H     0.43267   0.08745   0.54085   0.00000  Uiso   1.00
H168   H     0.83067   0.98929   0.91436   0.00000  Uiso   1.00
H169   H     0.99596   0.78969   0.76711   0.00000  Uiso   1.00
H170   H     0.84724   0.75542   0.70889   0.00000  Uiso   1.00
H171   H     0.21406   0.82037   0.71227   0.00000  Uiso   1.00
H172   H     0.92857   0.77382   0.88940   0.00000  Uiso   1.00
H173   H     0.67937   0.74812   0.62975   0.00000  Uiso   1.00
H174   H     0.45281   0.88507   0.63691   0.00000  Uiso   1.00
H175   H     0.85080   0.78691   0.01042   0.00000  Uiso   1.00
O176   O     0.57108   0.83104   0.54138   0.00000  Uiso   1.00
O177   O     0.58580   0.01072   0.55078   0.00000  Uiso   1.00
O178   O     0.79598   0.88193   0.04081   0.00000  Uiso   1.00
N179   N     0.68436   0.90757   0.56430   0.00000  Uiso   1.00
N180   N     0.40748   0.03561   0.57098   0.00000  Uiso   1.00
N181   N     0.84469   0.94385   0.92018   0.00000  Uiso   1.00
N182   N     0.69519   0.79867   0.61599   0.00000  Uiso   1.00
N183   N     0.41831   0.92671   0.62267   0.00000  Uiso   1.00
N184   N     0.85552   0.83494   0.97187   0.00000  Uiso   1.00
C185   C     0.01896   0.34766   0.97302   0.00000  Uiso   1.00
C186   C     0.97864   0.41203   0.92717   0.00000  Uiso   1.00
C187   C     0.88812   0.43513   0.94829   0.00000  Uiso   1.00
C188   C     0.86480   0.49515   0.89851   0.00000  Uiso   1.00
C189   C     0.79235   0.58971   0.83774   0.00000  Uiso   1.00
C190   C     0.14620   0.37261   0.96734   0.00000  Uiso   1.00
C191   C     0.19656   0.36256   0.02223   0.00000  Uiso   1.00
C192   C     0.31430   0.38938   0.00627   0.00000  Uiso   1.00
C193   C     0.50201   0.42270   0.00786   0.00000  Uiso   1.00
C194   C     0.01398   0.30323   0.93822   0.00000  Uiso   1.00
C195   C     0.95320   0.23483   0.96864   0.00000  Uiso   1.00
C196   C     0.95964   0.20324   0.92817   0.00000  Uiso   1.00
C197   C     0.94205   0.12883   0.88456   0.00000  Uiso   1.00
C198   C     0.13852   0.41317   0.84706   0.00000  Uiso   1.00
C199   C     0.04359   0.44761   0.85876   0.00000  Uiso   1.00
C200   C     0.02040   0.50761   0.80893   0.00000  Uiso   1.00
C201   C     0.92986   0.53080   0.82997   0.00000  Uiso   1.00
C202   C     0.21114   0.40819   0.89893   0.00000  Uiso   1.00
C203   C     0.32884   0.43503   0.88288   0.00000  Uiso   1.00
C204   C     0.37937   0.42503   0.93773   0.00000  Uiso   1.00
C205   C     0.07892   0.33881   0.86981   0.00000  Uiso   1.00
C206   C     0.08547   0.30731   0.82929   0.00000  Uiso   1.00
C207   C     0.02470   0.23888   0.85963   0.00000  Uiso   1.00
H208   H     0.96841   0.31996   0.02628   0.00000  Uiso   1.00
H209   H     0.83789   0.40759   0.00124   0.00000  Uiso   1.00
H210   H     0.14629   0.33502   0.07517   0.00000  Uiso   1.00
H211   H     0.90295   0.20732   0.02158   0.00000  Uiso   1.00
H212   H     0.72185   0.52045   0.94331   0.00000  Uiso   1.00
H213   H     0.37213   0.36740   0.09920   0.00000  Uiso   1.00
H214   H     0.85901   0.09812   0.98621   0.00000  Uiso   1.00
H215   H     0.18909   0.44087   0.79380   0.00000  Uiso   1.00
H216   H     0.07067   0.53513   0.75600   0.00000  Uiso   1.00
H217   H     0.37907   0.46256   0.82993   0.00000  Uiso   1.00
H218   H     0.13573   0.33486   0.77635   0.00000  Uiso   1.00
H219   H     0.91079   0.62397   0.74426   0.00000  Uiso   1.00
H220   H     0.56107   0.47092   0.90016   0.00000  Uiso   1.00
H221   H     0.04795   0.20164   0.78716   0.00000  Uiso   1.00
O222   O     0.73446   0.63205   0.82312   0.00000  Uiso   1.00
O223   O     0.58760   0.43125   0.02765   0.00000  Uiso   1.00
O224   O     0.91440   0.07796   0.87940   0.00000  Uiso   1.00
N225   N     0.78255   0.53187   0.90165   0.00000  Uiso   1.00
N226   N     0.39052   0.38879   0.04740   0.00000  Uiso   1.00
N227   N     0.91082   0.13702   0.94177   0.00000  Uiso   1.00
N228   N     0.88421   0.58757   0.79454   0.00000  Uiso   1.00
N229   N     0.49219   0.44449   0.94029   0.00000  Uiso   1.00
N230   N     0.01249   0.19273   0.83466   0.00000  Uiso   1.00
C231   C     0.68265   0.67969   0.34709   0.00000  Uiso   1.00
C232   C     0.58902   0.66256   0.40949   0.00000  Uiso   1.00
C233   C     0.48024   0.61977   0.42983   0.00000  Uiso   1.00
C234   C     0.40706   0.61065   0.48839   0.00000  Uiso   1.00
C235   C     0.25645   0.57907   0.57969   0.00000  Uiso   1.00
C236   C     0.78761   0.65899   0.37513   0.00000  Uiso   1.00
C237   C     0.84580   0.61322   0.36657   0.00000  Uiso   1.00
C238   C     0.93980   0.60111   0.39620   0.00000  Uiso   1.00
C239   C     0.09755   0.56403   0.43411   0.00000  Uiso   1.00
C240   C     0.71482   0.75857   0.30314   0.00000  Uiso   1.00
C241   C     0.71185   0.79652   0.23405   0.00000  Uiso   1.00
C242   C     0.74460   0.86825   0.20306   0.00000  Uiso   1.00
C243   C     0.78935   0.98578   0.12920   0.00000  Uiso   1.00
C244   C     0.74613   0.73959   0.41490   0.00000  Uiso   1.00
C245   C     0.62350   0.69509   0.44632   0.00000  Uiso   1.00
C246   C     0.55047   0.68604   0.50486   0.00000  Uiso   1.00
C247   C     0.44160   0.64325   0.52529   0.00000  Uiso   1.00
C248   C     0.82208   0.69152   0.41196   0.00000  Uiso   1.00
C249   C     0.91603   0.67949   0.44160   0.00000  Uiso   1.00
C250   C     0.97434   0.63370   0.43310   0.00000  Uiso   1.00
C251   C     0.74930   0.79110   0.33997   0.00000  Uiso   1.00
C252   C     0.78207   0.86279   0.30908   0.00000  Uiso   1.00
C253   C     0.77914   0.90084   0.23996   0.00000  Uiso   1.00
H254   H     0.65581   0.65436   0.31842   0.00000  Uiso   1.00
H255   H     0.45359   0.59460   0.40132   0.00000  Uiso   1.00
H256   H     0.81910   0.58805   0.33806   0.00000  Uiso   1.00
H257   H     0.68517   0.77133   0.20557   0.00000  Uiso   1.00
H258   H     0.24462   0.54266   0.50949   0.00000  Uiso   1.00
H259   H     0.01533   0.52888   0.37609   0.00000  Uiso   1.00
H260   H     0.73291   0.91535   0.09669   0.00000  Uiso   1.00
H261   H     0.77297   0.76492   0.44358   0.00000  Uiso   1.00
H262   H     0.57717   0.71122   0.53335   0.00000  Uiso   1.00
H263   H     0.94269   0.70467   0.47010   0.00000  Uiso   1.00
H264   H     0.80875   0.88795   0.33760   0.00000  Uiso   1.00
H265   H     0.34492   0.63732   0.61666   0.00000  Uiso   1.00
H266   H     0.11564   0.62354   0.48325   0.00000  Uiso   1.00
H267   H     0.83322   0.01001   0.20385   0.00000  Uiso   1.00
O268   O     0.16387   0.55265   0.61988   0.00000  Uiso   1.00
O269   O     0.17503   0.53458   0.44485   0.00000  Uiso   1.00
O270   O     0.80449   0.04162   0.07829   0.00000  Uiso   1.00
N271   N     0.29508   0.57232   0.52238   0.00000  Uiso   1.00
N272   N     0.01565   0.55942   0.39767   0.00000  Uiso   1.00
N273   N     0.75164   0.92074   0.13645   0.00000  Uiso   1.00
N274   N     0.34906   0.62325   0.58005   0.00000  Uiso   1.00
N275   N     0.06962   0.61036   0.45533   0.00000  Uiso   1.00
N276   N     0.80561   0.97168   0.19411   0.00000  Uiso   1.00
