data_job_00872
_audit_creation_date              2018-12-19
_audit_creation_method            'Materials Studio'
_symmetry_space_group_name_H-M    'P1'
_symmetry_Int_Tables_number       1
_symmetry_cell_setting            triclinic
loop_
_symmetry_equiv_pos_as_xyz
  x,y,z
_cell_length_a                    11.0240
_cell_length_b                    18.8265
_cell_length_c                    15.1180
_cell_angle_alpha                 90.0000
_cell_angle_beta                  132.0090
_cell_angle_gamma                 90.0000
loop_
_atom_site_label
_atom_site_type_symbol
_atom_site_fract_x
_atom_site_fract_y
_atom_site_fract_z
_atom_site_U_iso_or_equiv
_atom_site_adp_type
_atom_site_occupancy
C1     C     0.29361   0.33113   0.26239   0.00000  Uiso   1.00
C2     C     0.14608   0.34111   0.13014   0.00000  Uiso   1.00
C3     C     0.01798   0.38795   0.08199   0.00000  Uiso   1.00
C4     C     0.89452   0.38914   0.95883   0.00000  Uiso   1.00
C5     C     0.66471   0.41132   0.76448   0.00000  Uiso   1.00
C6     C     0.29721   0.25244   0.28798   0.00000  Uiso   1.00
C7     C     0.29619   0.22472   0.37256   0.00000  Uiso   1.00
C8     C     0.29998   0.15126   0.38228   0.00000  Uiso   1.00
C9     C     0.30492   0.03578   0.43304   0.00000  Uiso   1.00
C10    C     0.44339   0.34419   0.27785   0.00000  Uiso   1.00
C11    C     0.56532   0.39362   0.35392   0.00000  Uiso   1.00
C12    C     0.69221   0.39740   0.35513   0.00000  Uiso   1.00
C13    C     0.92410   0.42439   0.39015   0.00000  Uiso   1.00
C14    C     0.30217   0.24994   0.12930   0.00000  Uiso   1.00
C15    C     0.15073   0.29701   0.05785   0.00000  Uiso   1.00
C16    C     0.02745   0.29813   0.93474   0.00000  Uiso   1.00
C17    C     0.89918   0.34496   0.88641   0.00000  Uiso   1.00
C18    C     0.30186   0.20834   0.21570   0.00000  Uiso   1.00
C19    C     0.30566   0.13490   0.22530   0.00000  Uiso   1.00
C20    C     0.30464   0.10709   0.30986   0.00000  Uiso   1.00
C21    C     0.44804   0.30010   0.20556   0.00000  Uiso   1.00
C22    C     0.57478   0.30380   0.20666   0.00000  Uiso   1.00
C23    C     0.69686   0.35322   0.28271   0.00000  Uiso   1.00
H24    H     0.28999   0.36545   0.31868   0.00000  Uiso   1.00
H25    H     0.01442   0.42206   0.13797   0.00000  Uiso   1.00
H26    H     0.29261   0.25886   0.42849   0.00000  Uiso   1.00
H27    H     0.56168   0.42773   0.40985   0.00000  Uiso   1.00
H28    H     0.71091   0.46536   0.90574   0.00000  Uiso   1.00
H29    H     0.29755   0.12124   0.51835   0.00000  Uiso   1.00
H30    H     0.86494   0.47734   0.47905   0.00000  Uiso   1.00
H31    H     0.30579   0.21561   0.07302   0.00000  Uiso   1.00
H32    H     0.03108   0.26400   0.87882   0.00000  Uiso   1.00
H33    H     0.30927   0.10080   0.16935   0.00000  Uiso   1.00
H34    H     0.57834   0.26967   0.15071   0.00000  Uiso   1.00
H35    H     0.72443   0.33706   0.69540   0.00000  Uiso   1.00
H36    H     0.31108   0.99295   0.30803   0.00000  Uiso   1.00
H37    H     0.87846   0.34905   0.26871   0.00000  Uiso   1.00
O38    O     0.53665   0.43573   0.67725   0.00000  Uiso   1.00
O39    O     0.30633   0.98427   0.48100   0.00000  Uiso   1.00
O40    O     0.05072   0.45146   0.42943   0.00000  Uiso   1.00
N41    N     0.75181   0.42853   0.88288   0.00000  Uiso   1.00
N42    N     0.30026   0.10681   0.45563   0.00000  Uiso   1.00
N43    N     0.83074   0.43971   0.41891   0.00000  Uiso   1.00
N44    N     0.75909   0.35950   0.76970   0.00000  Uiso   1.00
N45    N     0.30754   0.03777   0.34245   0.00000  Uiso   1.00
N46    N     0.83802   0.37068   0.30573   0.00000  Uiso   1.00
C47    C     0.70639   0.83113   0.23761   0.00000  Uiso   1.00
C48    C     0.85392   0.84111   0.36986   0.00000  Uiso   1.00
C49    C     0.98202   0.88795   0.41801   0.00000  Uiso   1.00
C50    C     0.10548   0.88914   0.54117   0.00000  Uiso   1.00
C51    C     0.33529   0.91132   0.73552   0.00000  Uiso   1.00
C52    C     0.70279   0.75244   0.21202   0.00000  Uiso   1.00
C53    C     0.70381   0.72472   0.12744   0.00000  Uiso   1.00
C54    C     0.70002   0.65126   0.11772   0.00000  Uiso   1.00
C55    C     0.69508   0.53578   0.06696   0.00000  Uiso   1.00
C56    C     0.55661   0.84419   0.22215   0.00000  Uiso   1.00
C57    C     0.43468   0.89362   0.14608   0.00000  Uiso   1.00
C58    C     0.30779   0.89740   0.14487   0.00000  Uiso   1.00
C59    C     0.07590   0.92439   0.10985   0.00000  Uiso   1.00
C60    C     0.69783   0.74994   0.37070   0.00000  Uiso   1.00
C61    C     0.84927   0.79701   0.44215   0.00000  Uiso   1.00
C62    C     0.97255   0.79813   0.56526   0.00000  Uiso   1.00
C63    C     0.10082   0.84496   0.61359   0.00000  Uiso   1.00
C64    C     0.69814   0.70834   0.28430   0.00000  Uiso   1.00
C65    C     0.69434   0.63490   0.27470   0.00000  Uiso   1.00
C66    C     0.69536   0.60709   0.19014   0.00000  Uiso   1.00
C67    C     0.55196   0.80010   0.29444   0.00000  Uiso   1.00
C68    C     0.42522   0.80380   0.29334   0.00000  Uiso   1.00
C69    C     0.30314   0.85322   0.21729   0.00000  Uiso   1.00
H70    H     0.71001   0.86545   0.18132   0.00000  Uiso   1.00
H71    H     0.98558   0.92206   0.36203   0.00000  Uiso   1.00
H72    H     0.70739   0.75886   0.07151   0.00000  Uiso   1.00
H73    H     0.43832   0.92773   0.09015   0.00000  Uiso   1.00
H74    H     0.28909   0.96536   0.59426   0.00000  Uiso   1.00
H75    H     0.70245   0.62124   0.98165   0.00000  Uiso   1.00
H76    H     0.13506   0.97734   0.02095   0.00000  Uiso   1.00
H77    H     0.69421   0.71561   0.42698   0.00000  Uiso   1.00
H78    H     0.96892   0.76400   0.62118   0.00000  Uiso   1.00
H79    H     0.69073   0.60080   0.33065   0.00000  Uiso   1.00
H80    H     0.42166   0.76967   0.34929   0.00000  Uiso   1.00
H81    H     0.27557   0.83706   0.80460   0.00000  Uiso   1.00
H82    H     0.68892   0.49295   0.19197   0.00000  Uiso   1.00
H83    H     0.12154   0.84905   0.23129   0.00000  Uiso   1.00
O84    O     0.46335   0.93573   0.82275   0.00000  Uiso   1.00
O85    O     0.69367   0.48427   0.01900   0.00000  Uiso   1.00
O86    O     0.94928   0.95146   0.07057   0.00000  Uiso   1.00
N87    N     0.24819   0.92853   0.61712   0.00000  Uiso   1.00
N88    N     0.69974   0.60681   0.04437   0.00000  Uiso   1.00
N89    N     0.16926   0.93971   0.08109   0.00000  Uiso   1.00
N90    N     0.24091   0.85950   0.73030   0.00000  Uiso   1.00
N91    N     0.69246   0.53777   0.15755   0.00000  Uiso   1.00
N92    N     0.16198   0.87068   0.19427   0.00000  Uiso   1.00
C93    C     0.70639   0.66887   0.73761   0.00000  Uiso   1.00
C94    C     0.85392   0.65889   0.86986   0.00000  Uiso   1.00
C95    C     0.98202   0.61205   0.91801   0.00000  Uiso   1.00
C96    C     0.10548   0.61086   0.04117   0.00000  Uiso   1.00
C97    C     0.33529   0.58868   0.23552   0.00000  Uiso   1.00
C98    C     0.70279   0.74756   0.71202   0.00000  Uiso   1.00
C99    C     0.70381   0.77528   0.62744   0.00000  Uiso   1.00
C100   C     0.70002   0.84874   0.61772   0.00000  Uiso   1.00
C101   C     0.69508   0.96422   0.56696   0.00000  Uiso   1.00
C102   C     0.55661   0.65581   0.72215   0.00000  Uiso   1.00
C103   C     0.43468   0.60638   0.64608   0.00000  Uiso   1.00
C104   C     0.30779   0.60260   0.64487   0.00000  Uiso   1.00
C105   C     0.07590   0.57561   0.60985   0.00000  Uiso   1.00
C106   C     0.69783   0.75006   0.87070   0.00000  Uiso   1.00
C107   C     0.84927   0.70299   0.94215   0.00000  Uiso   1.00
C108   C     0.97255   0.70187   0.06526   0.00000  Uiso   1.00
C109   C     0.10082   0.65504   0.11359   0.00000  Uiso   1.00
C110   C     0.69814   0.79166   0.78430   0.00000  Uiso   1.00
C111   C     0.69434   0.86510   0.77470   0.00000  Uiso   1.00
C112   C     0.69536   0.89291   0.69014   0.00000  Uiso   1.00
C113   C     0.55196   0.69990   0.79444   0.00000  Uiso   1.00
C114   C     0.42522   0.69620   0.79334   0.00000  Uiso   1.00
C115   C     0.30314   0.64678   0.71729   0.00000  Uiso   1.00
H116   H     0.71001   0.63455   0.68132   0.00000  Uiso   1.00
H117   H     0.98558   0.57794   0.86203   0.00000  Uiso   1.00
H118   H     0.70739   0.74114   0.57151   0.00000  Uiso   1.00
H119   H     0.43832   0.57227   0.59015   0.00000  Uiso   1.00
H120   H     0.28909   0.53464   0.09426   0.00000  Uiso   1.00
H121   H     0.70245   0.87876   0.48165   0.00000  Uiso   1.00
H122   H     0.13506   0.52266   0.52095   0.00000  Uiso   1.00
H123   H     0.69421   0.78439   0.92698   0.00000  Uiso   1.00
H124   H     0.96892   0.73600   0.12118   0.00000  Uiso   1.00
H125   H     0.69073   0.89920   0.83065   0.00000  Uiso   1.00
H126   H     0.42166   0.73033   0.84929   0.00000  Uiso   1.00
H127   H     0.27557   0.66294   0.30460   0.00000  Uiso   1.00
H128   H     0.68892   0.00705   0.69197   0.00000  Uiso   1.00
H129   H     0.12154   0.65095   0.73129   0.00000  Uiso   1.00
O130   O     0.46335   0.56427   0.32275   0.00000  Uiso   1.00
O131   O     0.69367   0.01573   0.51900   0.00000  Uiso   1.00
O132   O     0.94928   0.54854   0.57057   0.00000  Uiso   1.00
N133   N     0.24819   0.57147   0.11712   0.00000  Uiso   1.00
N134   N     0.69974   0.89319   0.54437   0.00000  Uiso   1.00
N135   N     0.16926   0.56029   0.58109   0.00000  Uiso   1.00
N136   N     0.24091   0.64050   0.23030   0.00000  Uiso   1.00
N137   N     0.69246   0.96223   0.65755   0.00000  Uiso   1.00
N138   N     0.16198   0.62932   0.69427   0.00000  Uiso   1.00
C139   C     0.29361   0.16887   0.76239   0.00000  Uiso   1.00
C140   C     0.14608   0.15889   0.63014   0.00000  Uiso   1.00
C141   C     0.01798   0.11205   0.58199   0.00000  Uiso   1.00
C142   C     0.89452   0.11086   0.45883   0.00000  Uiso   1.00
C143   C     0.66471   0.08868   0.26448   0.00000  Uiso   1.00
C144   C     0.29721   0.24756   0.78798   0.00000  Uiso   1.00
C145   C     0.29619   0.27528   0.87256   0.00000  Uiso   1.00
C146   C     0.29998   0.34874   0.88228   0.00000  Uiso   1.00
C147   C     0.30492   0.46422   0.93304   0.00000  Uiso   1.00
C148   C     0.44339   0.15581   0.77785   0.00000  Uiso   1.00
C149   C     0.56532   0.10638   0.85392   0.00000  Uiso   1.00
C150   C     0.69221   0.10260   0.85513   0.00000  Uiso   1.00
C151   C     0.92410   0.07561   0.89015   0.00000  Uiso   1.00
C152   C     0.30217   0.25006   0.62930   0.00000  Uiso   1.00
C153   C     0.15073   0.20299   0.55785   0.00000  Uiso   1.00
C154   C     0.02745   0.20187   0.43474   0.00000  Uiso   1.00
C155   C     0.89918   0.15504   0.38641   0.00000  Uiso   1.00
C156   C     0.30186   0.29166   0.71570   0.00000  Uiso   1.00
C157   C     0.30566   0.36510   0.72530   0.00000  Uiso   1.00
C158   C     0.30464   0.39291   0.80986   0.00000  Uiso   1.00
C159   C     0.44804   0.19990   0.70556   0.00000  Uiso   1.00
C160   C     0.57478   0.19620   0.70666   0.00000  Uiso   1.00
C161   C     0.69686   0.14678   0.78271   0.00000  Uiso   1.00
H162   H     0.28999   0.13455   0.81868   0.00000  Uiso   1.00
H163   H     0.01442   0.07794   0.63797   0.00000  Uiso   1.00
H164   H     0.29261   0.24114   0.92849   0.00000  Uiso   1.00
H165   H     0.56168   0.07227   0.90985   0.00000  Uiso   1.00
H166   H     0.71091   0.03464   0.40574   0.00000  Uiso   1.00
H167   H     0.29755   0.37876   0.01835   0.00000  Uiso   1.00
H168   H     0.86494   0.02266   0.97905   0.00000  Uiso   1.00
H169   H     0.30579   0.28439   0.57302   0.00000  Uiso   1.00
H170   H     0.03108   0.23600   0.37882   0.00000  Uiso   1.00
H171   H     0.30927   0.39920   0.66935   0.00000  Uiso   1.00
H172   H     0.57834   0.23033   0.65071   0.00000  Uiso   1.00
H173   H     0.72443   0.16294   0.19540   0.00000  Uiso   1.00
H174   H     0.31108   0.50705   0.80803   0.00000  Uiso   1.00
H175   H     0.87846   0.15095   0.76871   0.00000  Uiso   1.00
O176   O     0.53665   0.06427   0.17725   0.00000  Uiso   1.00
O177   O     0.30633   0.51573   0.98100   0.00000  Uiso   1.00
O178   O     0.05072   0.04854   0.92943   0.00000  Uiso   1.00
N179   N     0.75181   0.07147   0.38288   0.00000  Uiso   1.00
N180   N     0.30026   0.39319   0.95563   0.00000  Uiso   1.00
N181   N     0.83074   0.06029   0.91891   0.00000  Uiso   1.00
N182   N     0.75909   0.14050   0.26970   0.00000  Uiso   1.00
N183   N     0.30754   0.46223   0.84245   0.00000  Uiso   1.00
N184   N     0.83802   0.12932   0.80573   0.00000  Uiso   1.00
