data_job_01139
_audit_creation_date              2018-12-19
_audit_creation_method            'Materials Studio'
_symmetry_space_group_name_H-M    'P1'
_symmetry_Int_Tables_number       1
_symmetry_cell_setting            triclinic
loop_
_symmetry_equiv_pos_as_xyz
  x,y,z
_cell_length_a                    21.4511
_cell_length_b                    12.3640
_cell_length_c                    22.7395
_cell_angle_alpha                 90.0000
_cell_angle_beta                  90.0000
_cell_angle_gamma                 90.0000
loop_
_atom_site_label
_atom_site_type_symbol
_atom_site_fract_x
_atom_site_fract_y
_atom_site_fract_z
_atom_site_U_iso_or_equiv
_atom_site_adp_type
_atom_site_occupancy
C1     C     0.05468   0.67795   0.12556   0.00000  Uiso   1.00
C2     C     0.07168   0.78006   0.15958   0.00000  Uiso   1.00
C3     C     0.12675   0.79708   0.19025   0.00000  Uiso   1.00
C4     C     0.13341   0.89594   0.21852   0.00000  Uiso   1.00
C5     C     0.16691   0.04246   0.27173   0.00000  Uiso   1.00
C6     C     0.99297   0.63887   0.15118   0.00000  Uiso   1.00
C7     C     0.98184   0.53716   0.17477   0.00000  Uiso   1.00
C8     C     0.92224   0.51717   0.19596   0.00000  Uiso   1.00
C9     C     0.83352   0.44446   0.23608   0.00000  Uiso   1.00
C10    C     0.04040   0.71450   0.06295   0.00000  Uiso   1.00
C11    C     0.06915   0.67637   0.01236   0.00000  Uiso   1.00
C12    C     0.04948   0.72004   0.95925   0.00000  Uiso   1.00
C13    C     0.03441   0.76477   0.86239   0.00000  Uiso   1.00
C14    C     0.96860   0.82327   0.12121   0.00000  Uiso   1.00
C15    C     0.02493   0.85899   0.15722   0.00000  Uiso   1.00
C16    C     0.03151   0.95786   0.18544   0.00000  Uiso   1.00
C17    C     0.08658   0.97502   0.21615   0.00000  Uiso   1.00
C18    C     0.94621   0.71780   0.14882   0.00000  Uiso   1.00
C19    C     0.88661   0.69794   0.16996   0.00000  Uiso   1.00
C20    C     0.87540   0.59624   0.19359   0.00000  Uiso   1.00
C21    C     0.99365   0.79344   0.06058   0.00000  Uiso   1.00
C22    C     0.97392   0.83716   0.00755   0.00000  Uiso   1.00
C23    C     0.00264   0.79912   0.95689   0.00000  Uiso   1.00
H24    H     0.09108   0.61649   0.12740   0.00000  Uiso   1.00
H25    H     0.16292   0.73597   0.19208   0.00000  Uiso   1.00
H26    H     0.01803   0.47609   0.17659   0.00000  Uiso   1.00
H27    H     0.10533   0.61529   0.01420   0.00000  Uiso   1.00
H28    H     0.22193   0.90322   0.26276   0.00000  Uiso   1.00
H29    H     0.91644   0.35525   0.23009   0.00000  Uiso   1.00
H30    H     0.10052   0.64877   0.88766   0.00000  Uiso   1.00
H31    H     0.93220   0.88473   0.11937   0.00000  Uiso   1.00
H32    H     0.99532   0.01893   0.18360   0.00000  Uiso   1.00
H33    H     0.85044   0.75905   0.16812   0.00000  Uiso   1.00
H34    H     0.93774   0.89825   0.00573   0.00000  Uiso   1.00
H35    H     0.08591   0.13288   0.25588   0.00000  Uiso   1.00
H36    H     0.78041   0.58490   0.22321   0.00000  Uiso   1.00
H37    H     0.96449   0.87843   0.88079   0.00000  Uiso   1.00
O38    O     0.19830   0.10147   0.30174   0.00000  Uiso   1.00
O39    O     0.79750   0.38255   0.25887   0.00000  Uiso   1.00
O40    O     0.03902   0.76765   0.80961   0.00000  Uiso   1.00
N41    N     0.18126   0.93886   0.25231   0.00000  Uiso   1.00
N42    N     0.89564   0.42654   0.22178   0.00000  Uiso   1.00
N43    N     0.06773   0.70094   0.90164   0.00000  Uiso   1.00
N44    N     0.10807   0.06244   0.24861   0.00000  Uiso   1.00
N45    N     0.82245   0.55012   0.21808   0.00000  Uiso   1.00
N46    N     0.99454   0.82452   0.89794   0.00000  Uiso   1.00
C47    C     0.44532   0.32205   0.12556   0.00000  Uiso   1.00
C48    C     0.42832   0.21994   0.15958   0.00000  Uiso   1.00
C49    C     0.37325   0.20292   0.19025   0.00000  Uiso   1.00
C50    C     0.36659   0.10406   0.21852   0.00000  Uiso   1.00
C51    C     0.33309   0.95754   0.27173   0.00000  Uiso   1.00
C52    C     0.50703   0.36113   0.15118   0.00000  Uiso   1.00
C53    C     0.51816   0.46284   0.17477   0.00000  Uiso   1.00
C54    C     0.57776   0.48283   0.19596   0.00000  Uiso   1.00
C55    C     0.66648   0.55554   0.23608   0.00000  Uiso   1.00
C56    C     0.45960   0.28550   0.06295   0.00000  Uiso   1.00
C57    C     0.43085   0.32363   0.01236   0.00000  Uiso   1.00
C58    C     0.45052   0.27996   0.95925   0.00000  Uiso   1.00
C59    C     0.46559   0.23523   0.86239   0.00000  Uiso   1.00
C60    C     0.53140   0.17673   0.12121   0.00000  Uiso   1.00
C61    C     0.47507   0.14101   0.15722   0.00000  Uiso   1.00
C62    C     0.46849   0.04214   0.18544   0.00000  Uiso   1.00
C63    C     0.41342   0.02498   0.21615   0.00000  Uiso   1.00
C64    C     0.55379   0.28220   0.14882   0.00000  Uiso   1.00
C65    C     0.61339   0.30206   0.16996   0.00000  Uiso   1.00
C66    C     0.62460   0.40376   0.19359   0.00000  Uiso   1.00
C67    C     0.50635   0.20656   0.06058   0.00000  Uiso   1.00
C68    C     0.52608   0.16284   0.00755   0.00000  Uiso   1.00
C69    C     0.49736   0.20088   0.95689   0.00000  Uiso   1.00
H70    H     0.40892   0.38351   0.12740   0.00000  Uiso   1.00
H71    H     0.33708   0.26403   0.19208   0.00000  Uiso   1.00
H72    H     0.48197   0.52391   0.17659   0.00000  Uiso   1.00
H73    H     0.39467   0.38471   0.01420   0.00000  Uiso   1.00
H74    H     0.27807   0.09678   0.26276   0.00000  Uiso   1.00
H75    H     0.58356   0.64475   0.23009   0.00000  Uiso   1.00
H76    H     0.39948   0.35123   0.88766   0.00000  Uiso   1.00
H77    H     0.56780   0.11527   0.11937   0.00000  Uiso   1.00
H78    H     0.50468   0.98107   0.18360   0.00000  Uiso   1.00
H79    H     0.64956   0.24095   0.16812   0.00000  Uiso   1.00
H80    H     0.56226   0.10175   0.00573   0.00000  Uiso   1.00
H81    H     0.41409   0.86712   0.25588   0.00000  Uiso   1.00
H82    H     0.71959   0.41510   0.22321   0.00000  Uiso   1.00
H83    H     0.53551   0.12157   0.88079   0.00000  Uiso   1.00
O84    O     0.30170   0.89853   0.30174   0.00000  Uiso   1.00
O85    O     0.70250   0.61745   0.25887   0.00000  Uiso   1.00
O86    O     0.46098   0.23235   0.80961   0.00000  Uiso   1.00
N87    N     0.31874   0.06114   0.25231   0.00000  Uiso   1.00
N88    N     0.60436   0.57346   0.22178   0.00000  Uiso   1.00
N89    N     0.43227   0.29906   0.90164   0.00000  Uiso   1.00
N90    N     0.39193   0.93756   0.24861   0.00000  Uiso   1.00
N91    N     0.67755   0.44988   0.21808   0.00000  Uiso   1.00
N92    N     0.50546   0.17548   0.89794   0.00000  Uiso   1.00
C93    C     0.94532   0.67795   0.37444   0.00000  Uiso   1.00
C94    C     0.92832   0.78006   0.34042   0.00000  Uiso   1.00
C95    C     0.87325   0.79708   0.30975   0.00000  Uiso   1.00
C96    C     0.86659   0.89594   0.28148   0.00000  Uiso   1.00
C97    C     0.83309   0.04246   0.22827   0.00000  Uiso   1.00
C98    C     0.00703   0.63887   0.34882   0.00000  Uiso   1.00
C99    C     0.01816   0.53716   0.32523   0.00000  Uiso   1.00
C100   C     0.07776   0.51717   0.30404   0.00000  Uiso   1.00
C101   C     0.16648   0.44446   0.26392   0.00000  Uiso   1.00
C102   C     0.95960   0.71450   0.43705   0.00000  Uiso   1.00
C103   C     0.93085   0.67637   0.48764   0.00000  Uiso   1.00
C104   C     0.95052   0.72004   0.54075   0.00000  Uiso   1.00
C105   C     0.96559   0.76477   0.63761   0.00000  Uiso   1.00
C106   C     0.03140   0.82327   0.37879   0.00000  Uiso   1.00
C107   C     0.97507   0.85899   0.34278   0.00000  Uiso   1.00
C108   C     0.96849   0.95786   0.31456   0.00000  Uiso   1.00
C109   C     0.91342   0.97502   0.28385   0.00000  Uiso   1.00
C110   C     0.05379   0.71780   0.35118   0.00000  Uiso   1.00
C111   C     0.11339   0.69794   0.33004   0.00000  Uiso   1.00
C112   C     0.12460   0.59624   0.30641   0.00000  Uiso   1.00
C113   C     0.00635   0.79344   0.43942   0.00000  Uiso   1.00
C114   C     0.02608   0.83716   0.49245   0.00000  Uiso   1.00
C115   C     0.99736   0.79912   0.54311   0.00000  Uiso   1.00
H116   H     0.90892   0.61649   0.37260   0.00000  Uiso   1.00
H117   H     0.83708   0.73597   0.30792   0.00000  Uiso   1.00
H118   H     0.98197   0.47609   0.32341   0.00000  Uiso   1.00
H119   H     0.89467   0.61529   0.48580   0.00000  Uiso   1.00
H120   H     0.77807   0.90322   0.23724   0.00000  Uiso   1.00
H121   H     0.08356   0.35525   0.26991   0.00000  Uiso   1.00
H122   H     0.89948   0.64877   0.61234   0.00000  Uiso   1.00
H123   H     0.06780   0.88473   0.38063   0.00000  Uiso   1.00
H124   H     0.00468   0.01893   0.31640   0.00000  Uiso   1.00
H125   H     0.14956   0.75905   0.33188   0.00000  Uiso   1.00
H126   H     0.06226   0.89825   0.49427   0.00000  Uiso   1.00
H127   H     0.91409   0.13288   0.24412   0.00000  Uiso   1.00
H128   H     0.21959   0.58490   0.27679   0.00000  Uiso   1.00
H129   H     0.03551   0.87843   0.61921   0.00000  Uiso   1.00
O130   O     0.80170   0.10147   0.19826   0.00000  Uiso   1.00
O131   O     0.20250   0.38255   0.24113   0.00000  Uiso   1.00
O132   O     0.96098   0.76765   0.69039   0.00000  Uiso   1.00
N133   N     0.81874   0.93886   0.24769   0.00000  Uiso   1.00
N134   N     0.10436   0.42654   0.27822   0.00000  Uiso   1.00
N135   N     0.93227   0.70094   0.59836   0.00000  Uiso   1.00
N136   N     0.89193   0.06244   0.25139   0.00000  Uiso   1.00
N137   N     0.17755   0.55012   0.28192   0.00000  Uiso   1.00
N138   N     0.00546   0.82452   0.60206   0.00000  Uiso   1.00
C139   C     0.55468   0.32205   0.37444   0.00000  Uiso   1.00
C140   C     0.57168   0.21994   0.34042   0.00000  Uiso   1.00
C141   C     0.62675   0.20292   0.30975   0.00000  Uiso   1.00
C142   C     0.63341   0.10406   0.28148   0.00000  Uiso   1.00
C143   C     0.66691   0.95754   0.22827   0.00000  Uiso   1.00
C144   C     0.49297   0.36113   0.34882   0.00000  Uiso   1.00
C145   C     0.48184   0.46284   0.32523   0.00000  Uiso   1.00
C146   C     0.42224   0.48283   0.30404   0.00000  Uiso   1.00
C147   C     0.33352   0.55554   0.26392   0.00000  Uiso   1.00
C148   C     0.54040   0.28550   0.43705   0.00000  Uiso   1.00
C149   C     0.56915   0.32363   0.48764   0.00000  Uiso   1.00
C150   C     0.54948   0.27996   0.54075   0.00000  Uiso   1.00
C151   C     0.53441   0.23523   0.63761   0.00000  Uiso   1.00
C152   C     0.46860   0.17673   0.37879   0.00000  Uiso   1.00
C153   C     0.52493   0.14101   0.34278   0.00000  Uiso   1.00
C154   C     0.53151   0.04214   0.31456   0.00000  Uiso   1.00
C155   C     0.58658   0.02498   0.28385   0.00000  Uiso   1.00
C156   C     0.44621   0.28220   0.35118   0.00000  Uiso   1.00
C157   C     0.38661   0.30206   0.33004   0.00000  Uiso   1.00
C158   C     0.37540   0.40376   0.30641   0.00000  Uiso   1.00
C159   C     0.49365   0.20656   0.43942   0.00000  Uiso   1.00
C160   C     0.47392   0.16284   0.49245   0.00000  Uiso   1.00
C161   C     0.50264   0.20088   0.54311   0.00000  Uiso   1.00
H162   H     0.59108   0.38351   0.37260   0.00000  Uiso   1.00
H163   H     0.66292   0.26403   0.30792   0.00000  Uiso   1.00
H164   H     0.51803   0.52391   0.32341   0.00000  Uiso   1.00
H165   H     0.60533   0.38471   0.48580   0.00000  Uiso   1.00
H166   H     0.72193   0.09678   0.23724   0.00000  Uiso   1.00
H167   H     0.41644   0.64475   0.26991   0.00000  Uiso   1.00
H168   H     0.60052   0.35123   0.61234   0.00000  Uiso   1.00
H169   H     0.43220   0.11527   0.38063   0.00000  Uiso   1.00
H170   H     0.49532   0.98107   0.31640   0.00000  Uiso   1.00
H171   H     0.35044   0.24095   0.33188   0.00000  Uiso   1.00
H172   H     0.43774   0.10175   0.49427   0.00000  Uiso   1.00
H173   H     0.58591   0.86712   0.24412   0.00000  Uiso   1.00
H174   H     0.28041   0.41510   0.27679   0.00000  Uiso   1.00
H175   H     0.46449   0.12157   0.61921   0.00000  Uiso   1.00
O176   O     0.69830   0.89853   0.19826   0.00000  Uiso   1.00
O177   O     0.29750   0.61745   0.24113   0.00000  Uiso   1.00
O178   O     0.53902   0.23235   0.69039   0.00000  Uiso   1.00
N179   N     0.68126   0.06114   0.24769   0.00000  Uiso   1.00
N180   N     0.39564   0.57346   0.27822   0.00000  Uiso   1.00
N181   N     0.56773   0.29906   0.59836   0.00000  Uiso   1.00
N182   N     0.60807   0.93756   0.25139   0.00000  Uiso   1.00
N183   N     0.32245   0.44988   0.28192   0.00000  Uiso   1.00
N184   N     0.49454   0.17548   0.60206   0.00000  Uiso   1.00
C185   C     0.94532   0.32205   0.87444   0.00000  Uiso   1.00
C186   C     0.92832   0.21994   0.84042   0.00000  Uiso   1.00
C187   C     0.87325   0.20292   0.80975   0.00000  Uiso   1.00
C188   C     0.86659   0.10406   0.78148   0.00000  Uiso   1.00
C189   C     0.83309   0.95754   0.72827   0.00000  Uiso   1.00
C190   C     0.00703   0.36113   0.84882   0.00000  Uiso   1.00
C191   C     0.01816   0.46284   0.82523   0.00000  Uiso   1.00
C192   C     0.07776   0.48283   0.80404   0.00000  Uiso   1.00
C193   C     0.16648   0.55554   0.76392   0.00000  Uiso   1.00
C194   C     0.95960   0.28550   0.93705   0.00000  Uiso   1.00
C195   C     0.93085   0.32363   0.98764   0.00000  Uiso   1.00
C196   C     0.95052   0.27996   0.04075   0.00000  Uiso   1.00
C197   C     0.96559   0.23523   0.13761   0.00000  Uiso   1.00
C198   C     0.03140   0.17673   0.87879   0.00000  Uiso   1.00
C199   C     0.97507   0.14101   0.84278   0.00000  Uiso   1.00
C200   C     0.96849   0.04214   0.81456   0.00000  Uiso   1.00
C201   C     0.91342   0.02498   0.78385   0.00000  Uiso   1.00
C202   C     0.05379   0.28220   0.85118   0.00000  Uiso   1.00
C203   C     0.11339   0.30206   0.83004   0.00000  Uiso   1.00
C204   C     0.12460   0.40376   0.80641   0.00000  Uiso   1.00
C205   C     0.00635   0.20656   0.93942   0.00000  Uiso   1.00
C206   C     0.02608   0.16284   0.99245   0.00000  Uiso   1.00
C207   C     0.99736   0.20088   0.04311   0.00000  Uiso   1.00
H208   H     0.90892   0.38351   0.87260   0.00000  Uiso   1.00
H209   H     0.83708   0.26403   0.80792   0.00000  Uiso   1.00
H210   H     0.98197   0.52391   0.82341   0.00000  Uiso   1.00
H211   H     0.89467   0.38471   0.98580   0.00000  Uiso   1.00
H212   H     0.77807   0.09678   0.73724   0.00000  Uiso   1.00
H213   H     0.08356   0.64475   0.76991   0.00000  Uiso   1.00
H214   H     0.89948   0.35123   0.11234   0.00000  Uiso   1.00
H215   H     0.06780   0.11527   0.88063   0.00000  Uiso   1.00
H216   H     0.00468   0.98107   0.81640   0.00000  Uiso   1.00
H217   H     0.14956   0.24095   0.83188   0.00000  Uiso   1.00
H218   H     0.06226   0.10175   0.99427   0.00000  Uiso   1.00
H219   H     0.91409   0.86712   0.74412   0.00000  Uiso   1.00
H220   H     0.21959   0.41510   0.77679   0.00000  Uiso   1.00
H221   H     0.03551   0.12157   0.11921   0.00000  Uiso   1.00
O222   O     0.80170   0.89853   0.69826   0.00000  Uiso   1.00
O223   O     0.20250   0.61745   0.74113   0.00000  Uiso   1.00
O224   O     0.96098   0.23235   0.19039   0.00000  Uiso   1.00
N225   N     0.81874   0.06114   0.74769   0.00000  Uiso   1.00
N226   N     0.10436   0.57346   0.77822   0.00000  Uiso   1.00
N227   N     0.93227   0.29906   0.09836   0.00000  Uiso   1.00
N228   N     0.89193   0.93756   0.75139   0.00000  Uiso   1.00
N229   N     0.17755   0.44988   0.78192   0.00000  Uiso   1.00
N230   N     0.00546   0.17548   0.10206   0.00000  Uiso   1.00
C231   C     0.55468   0.67795   0.87444   0.00000  Uiso   1.00
C232   C     0.57168   0.78006   0.84042   0.00000  Uiso   1.00
C233   C     0.62675   0.79708   0.80975   0.00000  Uiso   1.00
C234   C     0.63341   0.89594   0.78148   0.00000  Uiso   1.00
C235   C     0.66691   0.04246   0.72827   0.00000  Uiso   1.00
C236   C     0.49297   0.63887   0.84882   0.00000  Uiso   1.00
C237   C     0.48184   0.53716   0.82523   0.00000  Uiso   1.00
C238   C     0.42224   0.51717   0.80404   0.00000  Uiso   1.00
C239   C     0.33352   0.44446   0.76392   0.00000  Uiso   1.00
C240   C     0.54040   0.71450   0.93705   0.00000  Uiso   1.00
C241   C     0.56915   0.67637   0.98764   0.00000  Uiso   1.00
C242   C     0.54948   0.72004   0.04075   0.00000  Uiso   1.00
C243   C     0.53441   0.76477   0.13761   0.00000  Uiso   1.00
C244   C     0.46860   0.82327   0.87879   0.00000  Uiso   1.00
C245   C     0.52493   0.85899   0.84278   0.00000  Uiso   1.00
C246   C     0.53151   0.95786   0.81456   0.00000  Uiso   1.00
C247   C     0.58658   0.97502   0.78385   0.00000  Uiso   1.00
C248   C     0.44621   0.71780   0.85118   0.00000  Uiso   1.00
C249   C     0.38661   0.69794   0.83004   0.00000  Uiso   1.00
C250   C     0.37540   0.59624   0.80641   0.00000  Uiso   1.00
C251   C     0.49365   0.79344   0.93942   0.00000  Uiso   1.00
C252   C     0.47392   0.83716   0.99245   0.00000  Uiso   1.00
C253   C     0.50264   0.79912   0.04311   0.00000  Uiso   1.00
H254   H     0.59108   0.61649   0.87260   0.00000  Uiso   1.00
H255   H     0.66292   0.73597   0.80792   0.00000  Uiso   1.00
H256   H     0.51803   0.47609   0.82341   0.00000  Uiso   1.00
H257   H     0.60533   0.61529   0.98580   0.00000  Uiso   1.00
H258   H     0.72193   0.90322   0.73724   0.00000  Uiso   1.00
H259   H     0.41644   0.35525   0.76991   0.00000  Uiso   1.00
H260   H     0.60052   0.64877   0.11234   0.00000  Uiso   1.00
H261   H     0.43220   0.88473   0.88063   0.00000  Uiso   1.00
H262   H     0.49532   0.01893   0.81640   0.00000  Uiso   1.00
H263   H     0.35044   0.75905   0.83188   0.00000  Uiso   1.00
H264   H     0.43774   0.89825   0.99427   0.00000  Uiso   1.00
H265   H     0.58591   0.13288   0.74412   0.00000  Uiso   1.00
H266   H     0.28041   0.58490   0.77679   0.00000  Uiso   1.00
H267   H     0.46449   0.87843   0.11921   0.00000  Uiso   1.00
O268   O     0.69830   0.10147   0.69826   0.00000  Uiso   1.00
O269   O     0.29750   0.38255   0.74113   0.00000  Uiso   1.00
O270   O     0.53902   0.76765   0.19039   0.00000  Uiso   1.00
N271   N     0.68126   0.93886   0.74769   0.00000  Uiso   1.00
N272   N     0.39564   0.42654   0.77822   0.00000  Uiso   1.00
N273   N     0.56773   0.70094   0.09836   0.00000  Uiso   1.00
N274   N     0.60807   0.06244   0.75139   0.00000  Uiso   1.00
N275   N     0.32245   0.55012   0.78192   0.00000  Uiso   1.00
N276   N     0.49454   0.82452   0.10206   0.00000  Uiso   1.00
C277   C     0.05468   0.32205   0.62556   0.00000  Uiso   1.00
C278   C     0.07168   0.21994   0.65958   0.00000  Uiso   1.00
C279   C     0.12675   0.20292   0.69025   0.00000  Uiso   1.00
C280   C     0.13341   0.10406   0.71852   0.00000  Uiso   1.00
C281   C     0.16691   0.95754   0.77173   0.00000  Uiso   1.00
C282   C     0.99297   0.36113   0.65118   0.00000  Uiso   1.00
C283   C     0.98184   0.46284   0.67477   0.00000  Uiso   1.00
C284   C     0.92224   0.48283   0.69596   0.00000  Uiso   1.00
C285   C     0.83352   0.55554   0.73608   0.00000  Uiso   1.00
C286   C     0.04040   0.28550   0.56295   0.00000  Uiso   1.00
C287   C     0.06915   0.32363   0.51236   0.00000  Uiso   1.00
C288   C     0.04948   0.27996   0.45925   0.00000  Uiso   1.00
C289   C     0.03441   0.23523   0.36239   0.00000  Uiso   1.00
C290   C     0.96860   0.17673   0.62121   0.00000  Uiso   1.00
C291   C     0.02493   0.14101   0.65722   0.00000  Uiso   1.00
C292   C     0.03151   0.04214   0.68544   0.00000  Uiso   1.00
C293   C     0.08658   0.02498   0.71615   0.00000  Uiso   1.00
C294   C     0.94621   0.28220   0.64882   0.00000  Uiso   1.00
C295   C     0.88661   0.30206   0.66996   0.00000  Uiso   1.00
C296   C     0.87540   0.40376   0.69359   0.00000  Uiso   1.00
C297   C     0.99365   0.20656   0.56058   0.00000  Uiso   1.00
C298   C     0.97392   0.16284   0.50755   0.00000  Uiso   1.00
C299   C     0.00264   0.20088   0.45689   0.00000  Uiso   1.00
H300   H     0.09108   0.38351   0.62740   0.00000  Uiso   1.00
H301   H     0.16292   0.26403   0.69208   0.00000  Uiso   1.00
H302   H     0.01803   0.52391   0.67659   0.00000  Uiso   1.00
H303   H     0.10533   0.38471   0.51420   0.00000  Uiso   1.00
H304   H     0.22193   0.09678   0.76276   0.00000  Uiso   1.00
H305   H     0.91644   0.64475   0.73009   0.00000  Uiso   1.00
H306   H     0.10052   0.35123   0.38766   0.00000  Uiso   1.00
H307   H     0.93220   0.11527   0.61937   0.00000  Uiso   1.00
H308   H     0.99532   0.98107   0.68360   0.00000  Uiso   1.00
H309   H     0.85044   0.24095   0.66812   0.00000  Uiso   1.00
H310   H     0.93774   0.10175   0.50573   0.00000  Uiso   1.00
H311   H     0.08591   0.86712   0.75588   0.00000  Uiso   1.00
H312   H     0.78041   0.41510   0.72321   0.00000  Uiso   1.00
H313   H     0.96449   0.12157   0.38079   0.00000  Uiso   1.00
O314   O     0.19830   0.89853   0.80174   0.00000  Uiso   1.00
O315   O     0.79750   0.61745   0.75887   0.00000  Uiso   1.00
O316   O     0.03902   0.23235   0.30961   0.00000  Uiso   1.00
N317   N     0.18126   0.06114   0.75231   0.00000  Uiso   1.00
N318   N     0.89564   0.57346   0.72178   0.00000  Uiso   1.00
N319   N     0.06773   0.29906   0.40164   0.00000  Uiso   1.00
N320   N     0.10807   0.93756   0.74861   0.00000  Uiso   1.00
N321   N     0.82245   0.44988   0.71808   0.00000  Uiso   1.00
N322   N     0.99454   0.17548   0.39794   0.00000  Uiso   1.00
C323   C     0.44532   0.67795   0.62556   0.00000  Uiso   1.00
C324   C     0.42832   0.78006   0.65958   0.00000  Uiso   1.00
C325   C     0.37325   0.79708   0.69025   0.00000  Uiso   1.00
C326   C     0.36659   0.89594   0.71852   0.00000  Uiso   1.00
C327   C     0.33309   0.04246   0.77173   0.00000  Uiso   1.00
C328   C     0.50703   0.63887   0.65118   0.00000  Uiso   1.00
C329   C     0.51816   0.53716   0.67477   0.00000  Uiso   1.00
C330   C     0.57776   0.51717   0.69596   0.00000  Uiso   1.00
C331   C     0.66648   0.44446   0.73608   0.00000  Uiso   1.00
C332   C     0.45960   0.71450   0.56295   0.00000  Uiso   1.00
C333   C     0.43085   0.67637   0.51236   0.00000  Uiso   1.00
C334   C     0.45052   0.72004   0.45925   0.00000  Uiso   1.00
C335   C     0.46559   0.76477   0.36239   0.00000  Uiso   1.00
C336   C     0.53140   0.82327   0.62121   0.00000  Uiso   1.00
C337   C     0.47507   0.85899   0.65722   0.00000  Uiso   1.00
C338   C     0.46849   0.95786   0.68544   0.00000  Uiso   1.00
C339   C     0.41342   0.97502   0.71615   0.00000  Uiso   1.00
C340   C     0.55379   0.71780   0.64882   0.00000  Uiso   1.00
C341   C     0.61339   0.69794   0.66996   0.00000  Uiso   1.00
C342   C     0.62460   0.59624   0.69359   0.00000  Uiso   1.00
C343   C     0.50635   0.79344   0.56058   0.00000  Uiso   1.00
C344   C     0.52608   0.83716   0.50755   0.00000  Uiso   1.00
C345   C     0.49736   0.79912   0.45689   0.00000  Uiso   1.00
H346   H     0.40892   0.61649   0.62740   0.00000  Uiso   1.00
H347   H     0.33708   0.73597   0.69208   0.00000  Uiso   1.00
H348   H     0.48197   0.47609   0.67659   0.00000  Uiso   1.00
H349   H     0.39467   0.61529   0.51420   0.00000  Uiso   1.00
H350   H     0.27807   0.90322   0.76276   0.00000  Uiso   1.00
H351   H     0.58356   0.35525   0.73009   0.00000  Uiso   1.00
H352   H     0.39948   0.64877   0.38766   0.00000  Uiso   1.00
H353   H     0.56780   0.88473   0.61937   0.00000  Uiso   1.00
H354   H     0.50468   0.01893   0.68360   0.00000  Uiso   1.00
H355   H     0.64956   0.75905   0.66812   0.00000  Uiso   1.00
H356   H     0.56226   0.89825   0.50573   0.00000  Uiso   1.00
H357   H     0.41409   0.13288   0.75588   0.00000  Uiso   1.00
H358   H     0.71959   0.58490   0.72321   0.00000  Uiso   1.00
H359   H     0.53551   0.87843   0.38079   0.00000  Uiso   1.00
O360   O     0.30170   0.10147   0.80174   0.00000  Uiso   1.00
O361   O     0.70250   0.38255   0.75887   0.00000  Uiso   1.00
O362   O     0.46098   0.76765   0.30961   0.00000  Uiso   1.00
N363   N     0.31874   0.93886   0.75231   0.00000  Uiso   1.00
N364   N     0.60436   0.42654   0.72178   0.00000  Uiso   1.00
N365   N     0.43227   0.70094   0.40164   0.00000  Uiso   1.00
N366   N     0.39193   0.06244   0.74861   0.00000  Uiso   1.00
N367   N     0.67755   0.55012   0.71808   0.00000  Uiso   1.00
N368   N     0.50546   0.82452   0.39794   0.00000  Uiso   1.00
