data_job_00031
_audit_creation_date              2018-12-19
_audit_creation_method            'Materials Studio'
_symmetry_space_group_name_H-M    'P1'
_symmetry_Int_Tables_number       1
_symmetry_cell_setting            triclinic
loop_
_symmetry_equiv_pos_as_xyz
  x,y,z
_cell_length_a                    22.6777
_cell_length_b                    22.6777
_cell_length_c                    7.5775
_cell_angle_alpha                 90.0000
_cell_angle_beta                  90.0000
_cell_angle_gamma                 120.0000
loop_
_atom_site_label
_atom_site_type_symbol
_atom_site_fract_x
_atom_site_fract_y
_atom_site_fract_z
_atom_site_U_iso_or_equiv
_atom_site_adp_type
_atom_site_occupancy
C1     C     0.95070   0.29649   0.57986   0.00000  Uiso   1.00
C2     C     0.99260   0.36775   0.65758   0.00000  Uiso   1.00
C3     C     0.02783   0.42766   0.56175   0.00000  Uiso   1.00
C4     C     0.06311   0.48764   0.65738   0.00000  Uiso   1.00
C5     C     0.12819   0.59828   0.74994   0.00000  Uiso   1.00
C6     C     0.98007   0.25460   0.65760   0.00000  Uiso   1.00
C7     C     0.00475   0.21937   0.56178   0.00000  Uiso   1.00
C8     C     0.02947   0.18410   0.65744   0.00000  Uiso   1.00
C9     C     0.07505   0.11904   0.75003   0.00000  Uiso   1.00
C10    C     0.87945   0.26713   0.65759   0.00000  Uiso   1.00
C11    C     0.81953   0.24241   0.56178   0.00000  Uiso   1.00
C12    C     0.75954   0.21767   0.65744   0.00000  Uiso   1.00
C13    C     0.64890   0.17205   0.75001   0.00000  Uiso   1.00
C14    C     0.95070   0.29650   0.92012   0.00000  Uiso   1.00
C15    C     0.99260   0.36775   0.84239   0.00000  Uiso   1.00
C16    C     0.02783   0.42766   0.93820   0.00000  Uiso   1.00
C17    C     0.06311   0.48765   0.84253   0.00000  Uiso   1.00
C18    C     0.98007   0.25460   0.84240   0.00000  Uiso   1.00
C19    C     0.00476   0.21938   0.93823   0.00000  Uiso   1.00
C20    C     0.02948   0.18411   0.84259   0.00000  Uiso   1.00
C21    C     0.87945   0.26713   0.84241   0.00000  Uiso   1.00
C22    C     0.81954   0.24242   0.93823   0.00000  Uiso   1.00
C23    C     0.75954   0.21767   0.84258   0.00000  Uiso   1.00
H24    H     0.95070   0.29648   0.43598   0.00000  Uiso   1.00
H25    H     0.02782   0.42763   0.41872   0.00000  Uiso   1.00
H26    H     0.00474   0.21937   0.41876   0.00000  Uiso   1.00
H27    H     0.81955   0.24241   0.41876   0.00000  Uiso   1.00
H28    H     0.11334   0.57303   0.48109   0.00000  Uiso   1.00
H29    H     0.06465   0.13389   0.48117   0.00000  Uiso   1.00
H30    H     0.67414   0.18247   0.48117   0.00000  Uiso   1.00
H31    H     0.95071   0.29650   0.06401   0.00000  Uiso   1.00
H32    H     0.02783   0.42765   0.08122   0.00000  Uiso   1.00
H33    H     0.00475   0.21939   0.08125   0.00000  Uiso   1.00
H34    H     0.81956   0.24243   0.08125   0.00000  Uiso   1.00
H35    H     0.11335   0.57304   0.01880   0.00000  Uiso   1.00
H36    H     0.06466   0.13390   0.01887   0.00000  Uiso   1.00
H37    H     0.67415   0.18248   0.01887   0.00000  Uiso   1.00
O38    O     0.16409   0.65931   0.74994   0.00000  Uiso   1.00
O39    O     0.10020   0.08316   0.75003   0.00000  Uiso   1.00
O40    O     0.58787   0.14690   0.75002   0.00000  Uiso   1.00
N41    N     0.10275   0.55504   0.60528   0.00000  Uiso   1.00
N42    N     0.05724   0.14447   0.60535   0.00000  Uiso   1.00
N43    N     0.69214   0.18987   0.60535   0.00000  Uiso   1.00
N44    N     0.10275   0.55504   0.89462   0.00000  Uiso   1.00
N45    N     0.05724   0.14448   0.89469   0.00000  Uiso   1.00
N46    N     0.69214   0.18988   0.89468   0.00000  Uiso   1.00
C47    C     0.70351   0.65421   0.57986   0.00000  Uiso   1.00
C48    C     0.63225   0.62485   0.65758   0.00000  Uiso   1.00
C49    C     0.57234   0.60017   0.56175   0.00000  Uiso   1.00
C50    C     0.51236   0.57546   0.65738   0.00000  Uiso   1.00
C51    C     0.40172   0.52990   0.74994   0.00000  Uiso   1.00
C52    C     0.74540   0.72546   0.65760   0.00000  Uiso   1.00
C53    C     0.78063   0.78538   0.56178   0.00000  Uiso   1.00
C54    C     0.81590   0.84537   0.65744   0.00000  Uiso   1.00
C55    C     0.88096   0.95601   0.75003   0.00000  Uiso   1.00
C56    C     0.73287   0.61232   0.65759   0.00000  Uiso   1.00
C57    C     0.75759   0.57712   0.56178   0.00000  Uiso   1.00
C58    C     0.78233   0.54187   0.65744   0.00000  Uiso   1.00
C59    C     0.82795   0.47684   0.75001   0.00000  Uiso   1.00
C60    C     0.70350   0.65421   0.92012   0.00000  Uiso   1.00
C61    C     0.63225   0.62485   0.84239   0.00000  Uiso   1.00
C62    C     0.57234   0.60017   0.93820   0.00000  Uiso   1.00
C63    C     0.51235   0.57546   0.84253   0.00000  Uiso   1.00
C64    C     0.74540   0.72547   0.84240   0.00000  Uiso   1.00
C65    C     0.78062   0.78538   0.93823   0.00000  Uiso   1.00
C66    C     0.81589   0.84537   0.84259   0.00000  Uiso   1.00
C67    C     0.73287   0.61232   0.84241   0.00000  Uiso   1.00
C68    C     0.75758   0.57712   0.93823   0.00000  Uiso   1.00
C69    C     0.78233   0.54187   0.84258   0.00000  Uiso   1.00
H70    H     0.70352   0.65422   0.43598   0.00000  Uiso   1.00
H71    H     0.57237   0.60019   0.41872   0.00000  Uiso   1.00
H72    H     0.78063   0.78536   0.41876   0.00000  Uiso   1.00
H73    H     0.75759   0.57714   0.41876   0.00000  Uiso   1.00
H74    H     0.42697   0.54031   0.48109   0.00000  Uiso   1.00
H75    H     0.86611   0.93076   0.48117   0.00000  Uiso   1.00
H76    H     0.81753   0.49168   0.48117   0.00000  Uiso   1.00
H77    H     0.70350   0.65421   0.06401   0.00000  Uiso   1.00
H78    H     0.57235   0.60018   0.08122   0.00000  Uiso   1.00
H79    H     0.78061   0.78536   0.08125   0.00000  Uiso   1.00
H80    H     0.75757   0.57713   0.08125   0.00000  Uiso   1.00
H81    H     0.42696   0.54030   0.01880   0.00000  Uiso   1.00
H82    H     0.86610   0.93076   0.01887   0.00000  Uiso   1.00
H83    H     0.81752   0.49167   0.01887   0.00000  Uiso   1.00
O84    O     0.34069   0.50478   0.74994   0.00000  Uiso   1.00
O85    O     0.91684   0.01704   0.75003   0.00000  Uiso   1.00
O86    O     0.85310   0.44097   0.75002   0.00000  Uiso   1.00
N87    N     0.44496   0.54771   0.60528   0.00000  Uiso   1.00
N88    N     0.85553   0.91276   0.60535   0.00000  Uiso   1.00
N89    N     0.81013   0.50227   0.60535   0.00000  Uiso   1.00
N90    N     0.44496   0.54771   0.89462   0.00000  Uiso   1.00
N91    N     0.85552   0.91276   0.89469   0.00000  Uiso   1.00
N92    N     0.81012   0.50226   0.89468   0.00000  Uiso   1.00
C93    C     0.34579   0.04930   0.57986   0.00000  Uiso   1.00
C94    C     0.37515   0.00740   0.65758   0.00000  Uiso   1.00
C95    C     0.39983   0.97217   0.56175   0.00000  Uiso   1.00
C96    C     0.42454   0.93689   0.65738   0.00000  Uiso   1.00
C97    C     0.47010   0.87181   0.74994   0.00000  Uiso   1.00
C98    C     0.27454   0.01993   0.65760   0.00000  Uiso   1.00
C99    C     0.21462   0.99525   0.56178   0.00000  Uiso   1.00
C100   C     0.15463   0.97053   0.65744   0.00000  Uiso   1.00
C101   C     0.04399   0.92495   0.75003   0.00000  Uiso   1.00
C102   C     0.38768   0.12055   0.65759   0.00000  Uiso   1.00
C103   C     0.42288   0.18047   0.56178   0.00000  Uiso   1.00
C104   C     0.45813   0.24046   0.65744   0.00000  Uiso   1.00
C105   C     0.52316   0.35110   0.75001   0.00000  Uiso   1.00
C106   C     0.34579   0.04930   0.92012   0.00000  Uiso   1.00
C107   C     0.37515   0.00740   0.84239   0.00000  Uiso   1.00
C108   C     0.39983   0.97217   0.93820   0.00000  Uiso   1.00
C109   C     0.42454   0.93689   0.84253   0.00000  Uiso   1.00
C110   C     0.27453   0.01993   0.84240   0.00000  Uiso   1.00
C111   C     0.21462   0.99524   0.93823   0.00000  Uiso   1.00
C112   C     0.15463   0.97052   0.84259   0.00000  Uiso   1.00
C113   C     0.38768   0.12055   0.84241   0.00000  Uiso   1.00
C114   C     0.42288   0.18046   0.93823   0.00000  Uiso   1.00
C115   C     0.45813   0.24046   0.84258   0.00000  Uiso   1.00
H116   H     0.34578   0.04930   0.43598   0.00000  Uiso   1.00
H117   H     0.39981   0.97218   0.41872   0.00000  Uiso   1.00
H118   H     0.21464   0.99526   0.41876   0.00000  Uiso   1.00
H119   H     0.42286   0.18045   0.41876   0.00000  Uiso   1.00
H120   H     0.45969   0.88666   0.48109   0.00000  Uiso   1.00
H121   H     0.06924   0.93535   0.48117   0.00000  Uiso   1.00
H122   H     0.50832   0.32586   0.48117   0.00000  Uiso   1.00
H123   H     0.34579   0.04929   0.06401   0.00000  Uiso   1.00
H124   H     0.39982   0.97217   0.08122   0.00000  Uiso   1.00
H125   H     0.21464   0.99525   0.08125   0.00000  Uiso   1.00
H126   H     0.42287   0.18044   0.08125   0.00000  Uiso   1.00
H127   H     0.45970   0.88665   0.01880   0.00000  Uiso   1.00
H128   H     0.06924   0.93534   0.01887   0.00000  Uiso   1.00
H129   H     0.50833   0.32585   0.01887   0.00000  Uiso   1.00
O130   O     0.49522   0.83591   0.74994   0.00000  Uiso   1.00
O131   O     0.98296   0.89980   0.75003   0.00000  Uiso   1.00
O132   O     0.55903   0.41213   0.75002   0.00000  Uiso   1.00
N133   N     0.45229   0.89725   0.60528   0.00000  Uiso   1.00
N134   N     0.08724   0.94276   0.60535   0.00000  Uiso   1.00
N135   N     0.49773   0.30786   0.60535   0.00000  Uiso   1.00
N136   N     0.45229   0.89725   0.89462   0.00000  Uiso   1.00
N137   N     0.08724   0.94276   0.89469   0.00000  Uiso   1.00
N138   N     0.49774   0.30786   0.89468   0.00000  Uiso   1.00
C139   C     0.04930   0.70351   0.42014   0.00000  Uiso   1.00
C140   C     0.00740   0.63225   0.34242   0.00000  Uiso   1.00
C141   C     0.97217   0.57234   0.43825   0.00000  Uiso   1.00
C142   C     0.93689   0.51236   0.34262   0.00000  Uiso   1.00
C143   C     0.87181   0.40172   0.25006   0.00000  Uiso   1.00
C144   C     0.01993   0.74540   0.34240   0.00000  Uiso   1.00
C145   C     0.99525   0.78063   0.43822   0.00000  Uiso   1.00
C146   C     0.97053   0.81590   0.34256   0.00000  Uiso   1.00
C147   C     0.92495   0.88096   0.24997   0.00000  Uiso   1.00
C148   C     0.12055   0.73287   0.34241   0.00000  Uiso   1.00
C149   C     0.18047   0.75759   0.43822   0.00000  Uiso   1.00
C150   C     0.24046   0.78233   0.34256   0.00000  Uiso   1.00
C151   C     0.35110   0.82795   0.24999   0.00000  Uiso   1.00
C152   C     0.04930   0.70350   0.07988   0.00000  Uiso   1.00
C153   C     0.00740   0.63225   0.15761   0.00000  Uiso   1.00
C154   C     0.97217   0.57234   0.06180   0.00000  Uiso   1.00
C155   C     0.93689   0.51235   0.15747   0.00000  Uiso   1.00
C156   C     0.01993   0.74540   0.15760   0.00000  Uiso   1.00
C157   C     0.99524   0.78062   0.06177   0.00000  Uiso   1.00
C158   C     0.97052   0.81589   0.15741   0.00000  Uiso   1.00
C159   C     0.12055   0.73287   0.15759   0.00000  Uiso   1.00
C160   C     0.18046   0.75758   0.06177   0.00000  Uiso   1.00
C161   C     0.24046   0.78233   0.15742   0.00000  Uiso   1.00
H162   H     0.04930   0.70352   0.56402   0.00000  Uiso   1.00
H163   H     0.97218   0.57237   0.58128   0.00000  Uiso   1.00
H164   H     0.99526   0.78063   0.58124   0.00000  Uiso   1.00
H165   H     0.18045   0.75759   0.58124   0.00000  Uiso   1.00
H166   H     0.88666   0.42697   0.51891   0.00000  Uiso   1.00
H167   H     0.93535   0.86611   0.51883   0.00000  Uiso   1.00
H168   H     0.32586   0.81753   0.51883   0.00000  Uiso   1.00
H169   H     0.04929   0.70350   0.93599   0.00000  Uiso   1.00
H170   H     0.97217   0.57235   0.91878   0.00000  Uiso   1.00
H171   H     0.99525   0.78061   0.91875   0.00000  Uiso   1.00
H172   H     0.18044   0.75757   0.91875   0.00000  Uiso   1.00
H173   H     0.88665   0.42696   0.98120   0.00000  Uiso   1.00
H174   H     0.93534   0.86610   0.98113   0.00000  Uiso   1.00
H175   H     0.32585   0.81752   0.98113   0.00000  Uiso   1.00
O176   O     0.83591   0.34069   0.25006   0.00000  Uiso   1.00
O177   O     0.89980   0.91684   0.24997   0.00000  Uiso   1.00
O178   O     0.41213   0.85310   0.24998   0.00000  Uiso   1.00
N179   N     0.89725   0.44496   0.39472   0.00000  Uiso   1.00
N180   N     0.94276   0.85553   0.39465   0.00000  Uiso   1.00
N181   N     0.30786   0.81013   0.39465   0.00000  Uiso   1.00
N182   N     0.89725   0.44496   0.10538   0.00000  Uiso   1.00
N183   N     0.94276   0.85552   0.10531   0.00000  Uiso   1.00
N184   N     0.30786   0.81012   0.10532   0.00000  Uiso   1.00
C185   C     0.29649   0.34579   0.42014   0.00000  Uiso   1.00
C186   C     0.36775   0.37515   0.34242   0.00000  Uiso   1.00
C187   C     0.42766   0.39983   0.43825   0.00000  Uiso   1.00
C188   C     0.48764   0.42454   0.34262   0.00000  Uiso   1.00
C189   C     0.59828   0.47010   0.25006   0.00000  Uiso   1.00
C190   C     0.25460   0.27454   0.34240   0.00000  Uiso   1.00
C191   C     0.21937   0.21462   0.43822   0.00000  Uiso   1.00
C192   C     0.18410   0.15463   0.34256   0.00000  Uiso   1.00
C193   C     0.11904   0.04399   0.24997   0.00000  Uiso   1.00
C194   C     0.26713   0.38768   0.34241   0.00000  Uiso   1.00
C195   C     0.24241   0.42288   0.43822   0.00000  Uiso   1.00
C196   C     0.21767   0.45813   0.34256   0.00000  Uiso   1.00
C197   C     0.17205   0.52316   0.24999   0.00000  Uiso   1.00
C198   C     0.29650   0.34579   0.07988   0.00000  Uiso   1.00
C199   C     0.36775   0.37515   0.15761   0.00000  Uiso   1.00
C200   C     0.42766   0.39983   0.06180   0.00000  Uiso   1.00
C201   C     0.48765   0.42454   0.15747   0.00000  Uiso   1.00
C202   C     0.25460   0.27453   0.15760   0.00000  Uiso   1.00
C203   C     0.21938   0.21462   0.06177   0.00000  Uiso   1.00
C204   C     0.18411   0.15463   0.15741   0.00000  Uiso   1.00
C205   C     0.26713   0.38768   0.15759   0.00000  Uiso   1.00
C206   C     0.24242   0.42288   0.06177   0.00000  Uiso   1.00
C207   C     0.21767   0.45813   0.15742   0.00000  Uiso   1.00
H208   H     0.29648   0.34578   0.56402   0.00000  Uiso   1.00
H209   H     0.42763   0.39981   0.58128   0.00000  Uiso   1.00
H210   H     0.21937   0.21464   0.58124   0.00000  Uiso   1.00
H211   H     0.24241   0.42286   0.58124   0.00000  Uiso   1.00
H212   H     0.57303   0.45969   0.51891   0.00000  Uiso   1.00
H213   H     0.13389   0.06924   0.51883   0.00000  Uiso   1.00
H214   H     0.18247   0.50832   0.51883   0.00000  Uiso   1.00
H215   H     0.29650   0.34579   0.93599   0.00000  Uiso   1.00
H216   H     0.42765   0.39982   0.91878   0.00000  Uiso   1.00
H217   H     0.21939   0.21464   0.91875   0.00000  Uiso   1.00
H218   H     0.24243   0.42287   0.91875   0.00000  Uiso   1.00
H219   H     0.57304   0.45970   0.98120   0.00000  Uiso   1.00
H220   H     0.13390   0.06924   0.98113   0.00000  Uiso   1.00
H221   H     0.18248   0.50833   0.98113   0.00000  Uiso   1.00
O222   O     0.65931   0.49522   0.25006   0.00000  Uiso   1.00
O223   O     0.08316   0.98296   0.24997   0.00000  Uiso   1.00
O224   O     0.14690   0.55903   0.24998   0.00000  Uiso   1.00
N225   N     0.55504   0.45229   0.39472   0.00000  Uiso   1.00
N226   N     0.14447   0.08724   0.39465   0.00000  Uiso   1.00
N227   N     0.18987   0.49773   0.39465   0.00000  Uiso   1.00
N228   N     0.55504   0.45229   0.10538   0.00000  Uiso   1.00
N229   N     0.14448   0.08724   0.10531   0.00000  Uiso   1.00
N230   N     0.18988   0.49774   0.10532   0.00000  Uiso   1.00
C231   C     0.65421   0.95070   0.42014   0.00000  Uiso   1.00
C232   C     0.62485   0.99260   0.34242   0.00000  Uiso   1.00
C233   C     0.60017   0.02783   0.43825   0.00000  Uiso   1.00
C234   C     0.57546   0.06311   0.34262   0.00000  Uiso   1.00
C235   C     0.52990   0.12819   0.25006   0.00000  Uiso   1.00
C236   C     0.72546   0.98007   0.34240   0.00000  Uiso   1.00
C237   C     0.78538   0.00475   0.43822   0.00000  Uiso   1.00
C238   C     0.84537   0.02947   0.34256   0.00000  Uiso   1.00
C239   C     0.95601   0.07505   0.24997   0.00000  Uiso   1.00
C240   C     0.61232   0.87945   0.34241   0.00000  Uiso   1.00
C241   C     0.57712   0.81953   0.43822   0.00000  Uiso   1.00
C242   C     0.54187   0.75954   0.34256   0.00000  Uiso   1.00
C243   C     0.47684   0.64890   0.24999   0.00000  Uiso   1.00
C244   C     0.65421   0.95070   0.07988   0.00000  Uiso   1.00
C245   C     0.62485   0.99260   0.15761   0.00000  Uiso   1.00
C246   C     0.60017   0.02783   0.06180   0.00000  Uiso   1.00
C247   C     0.57546   0.06311   0.15747   0.00000  Uiso   1.00
C248   C     0.72547   0.98007   0.15760   0.00000  Uiso   1.00
C249   C     0.78538   0.00476   0.06177   0.00000  Uiso   1.00
C250   C     0.84537   0.02948   0.15741   0.00000  Uiso   1.00
C251   C     0.61232   0.87945   0.15759   0.00000  Uiso   1.00
C252   C     0.57712   0.81954   0.06177   0.00000  Uiso   1.00
C253   C     0.54187   0.75954   0.15742   0.00000  Uiso   1.00
H254   H     0.65422   0.95070   0.56402   0.00000  Uiso   1.00
H255   H     0.60019   0.02782   0.58128   0.00000  Uiso   1.00
H256   H     0.78536   0.00474   0.58124   0.00000  Uiso   1.00
H257   H     0.57714   0.81955   0.58124   0.00000  Uiso   1.00
H258   H     0.54031   0.11334   0.51891   0.00000  Uiso   1.00
H259   H     0.93076   0.06465   0.51883   0.00000  Uiso   1.00
H260   H     0.49168   0.67414   0.51883   0.00000  Uiso   1.00
H261   H     0.65421   0.95071   0.93599   0.00000  Uiso   1.00
H262   H     0.60018   0.02783   0.91878   0.00000  Uiso   1.00
H263   H     0.78536   0.00475   0.91875   0.00000  Uiso   1.00
H264   H     0.57713   0.81956   0.91875   0.00000  Uiso   1.00
H265   H     0.54030   0.11335   0.98120   0.00000  Uiso   1.00
H266   H     0.93076   0.06466   0.98113   0.00000  Uiso   1.00
H267   H     0.49167   0.67415   0.98113   0.00000  Uiso   1.00
O268   O     0.50478   0.16409   0.25006   0.00000  Uiso   1.00
O269   O     0.01704   0.10020   0.24997   0.00000  Uiso   1.00
O270   O     0.44097   0.58787   0.24998   0.00000  Uiso   1.00
N271   N     0.54771   0.10275   0.39472   0.00000  Uiso   1.00
N272   N     0.91276   0.05724   0.39465   0.00000  Uiso   1.00
N273   N     0.50227   0.69214   0.39465   0.00000  Uiso   1.00
N274   N     0.54771   0.10275   0.10538   0.00000  Uiso   1.00
N275   N     0.91276   0.05724   0.10531   0.00000  Uiso   1.00
N276   N     0.50226   0.69214   0.10532   0.00000  Uiso   1.00
