data_job_04541
_audit_creation_date              2018-12-19
_audit_creation_method            'Materials Studio'
_symmetry_space_group_name_H-M    'P1'
_symmetry_Int_Tables_number       1
_symmetry_cell_setting            triclinic
loop_
_symmetry_equiv_pos_as_xyz
  x,y,z
_cell_length_a                    14.9609
_cell_length_b                    30.1795
_cell_length_c                    10.1012
_cell_angle_alpha                 90.0000
_cell_angle_beta                  142.2491
_cell_angle_gamma                 90.0000
loop_
_atom_site_label
_atom_site_type_symbol
_atom_site_fract_x
_atom_site_fract_y
_atom_site_fract_z
_atom_site_U_iso_or_equiv
_atom_site_adp_type
_atom_site_occupancy
C1     C     0.55069   0.11726   0.74782   0.00000  Uiso   1.00
C2     C     0.61026   0.15391   0.90638   0.00000  Uiso   1.00
C3     C     0.75635   0.16106   0.10695   0.00000  Uiso   1.00
C4     C     0.78849   0.19634   0.22784   0.00000  Uiso   1.00
C5     C     0.89773   0.24910   0.48582   0.00000  Uiso   1.00
C6     C     0.44096   0.09167   0.70324   0.00000  Uiso   1.00
C7     C     0.44471   0.04649   0.73300   0.00000  Uiso   1.00
C8     C     0.33433   0.02937   0.68286   0.00000  Uiso   1.00
C9     C     0.18067   0.98550   0.62531   0.00000  Uiso   1.00
C10    C     0.46194   0.14044   0.53656   0.00000  Uiso   1.00
C11    C     0.48330   0.13625   0.42612   0.00000  Uiso   1.00
C12    C     0.39055   0.16019   0.23562   0.00000  Uiso   1.00
C13    C     0.26947   0.19203   0.91928   0.00000  Uiso   1.00
C14    C     0.34799   0.16721   0.60585   0.00000  Uiso   1.00
C15    C     0.50015   0.18103   0.82926   0.00000  Uiso   1.00
C16    C     0.53208   0.21632   0.94988   0.00000  Uiso   1.00
C17    C     0.67820   0.22352   0.15059   0.00000  Uiso   1.00
C18    C     0.33087   0.11879   0.62614   0.00000  Uiso   1.00
C19    C     0.22045   0.10174   0.57593   0.00000  Uiso   1.00
C20    C     0.22403   0.05655   0.60561   0.00000  Uiso   1.00
C21    C     0.35184   0.16756   0.45945   0.00000  Uiso   1.00
C22    C     0.25904   0.19151   0.26907   0.00000  Uiso   1.00
C23    C     0.28025   0.18736   0.15837   0.00000  Uiso   1.00
H24    H     0.63640   0.09614   0.80785   0.00000  Uiso   1.00
H25    H     0.84152   0.14006   0.16658   0.00000  Uiso   1.00
H26    H     0.52992   0.02550   0.79265   0.00000  Uiso   1.00
H27    H     0.56850   0.11526   0.48585   0.00000  Uiso   1.00
H28    H     0.02037   0.20070   0.53031   0.00000  Uiso   1.00
H29    H     0.36332   0.95915   0.74181   0.00000  Uiso   1.00
H30    H     0.44468   0.14841   0.09484   0.00000  Uiso   1.00
H31    H     0.26227   0.18833   0.54581   0.00000  Uiso   1.00
H32    H     0.44686   0.23730   0.89016   0.00000  Uiso   1.00
H33    H     0.13526   0.12274   0.51625   0.00000  Uiso   1.00
H34    H     0.17385   0.21250   0.20944   0.00000  Uiso   1.00
H35    H     0.70005   0.27963   0.30598   0.00000  Uiso   1.00
H36    H     0.04300   0.03807   0.51746   0.00000  Uiso   1.00
H37    H     0.12437   0.22734   0.87050   0.00000  Uiso   1.00
O38    O     0.98839   0.27071   0.64943   0.00000  Uiso   1.00
O39    O     0.12635   0.95380   0.61490   0.00000  Uiso   1.00
O40    O     0.23311   0.20211   0.76611   0.00000  Uiso   1.00
N41    N     0.91965   0.21256   0.43024   0.00000  Uiso   1.00
N42    N     0.30536   0.98672   0.69307   0.00000  Uiso   1.00
N43    N     0.38141   0.16366   0.08818   0.00000  Uiso   1.00
N44    N     0.74729   0.25503   0.30952   0.00000  Uiso   1.00
N45    N     0.13300   0.02919   0.57235   0.00000  Uiso   1.00
N46    N     0.20905   0.20613   0.96746   0.00000  Uiso   1.00
C47    C     0.44931   0.61726   0.75218   0.00000  Uiso   1.00
C48    C     0.38974   0.65391   0.59362   0.00000  Uiso   1.00
C49    C     0.24365   0.66106   0.39305   0.00000  Uiso   1.00
C50    C     0.21151   0.69634   0.27216   0.00000  Uiso   1.00
C51    C     0.10227   0.74910   0.01418   0.00000  Uiso   1.00
C52    C     0.55904   0.59167   0.79676   0.00000  Uiso   1.00
C53    C     0.55529   0.54649   0.76700   0.00000  Uiso   1.00
C54    C     0.66567   0.52937   0.81714   0.00000  Uiso   1.00
C55    C     0.81933   0.48550   0.87469   0.00000  Uiso   1.00
C56    C     0.53806   0.64044   0.96344   0.00000  Uiso   1.00
C57    C     0.51670   0.63625   0.07388   0.00000  Uiso   1.00
C58    C     0.60945   0.66019   0.26438   0.00000  Uiso   1.00
C59    C     0.73053   0.69203   0.58072   0.00000  Uiso   1.00
C60    C     0.65201   0.66721   0.89415   0.00000  Uiso   1.00
C61    C     0.49985   0.68103   0.67074   0.00000  Uiso   1.00
C62    C     0.46792   0.71632   0.55012   0.00000  Uiso   1.00
C63    C     0.32180   0.72352   0.34941   0.00000  Uiso   1.00
C64    C     0.66913   0.61879   0.87386   0.00000  Uiso   1.00
C65    C     0.77955   0.60174   0.92407   0.00000  Uiso   1.00
C66    C     0.77597   0.55655   0.89439   0.00000  Uiso   1.00
C67    C     0.64816   0.66756   0.04055   0.00000  Uiso   1.00
C68    C     0.74096   0.69151   0.23093   0.00000  Uiso   1.00
C69    C     0.71975   0.68736   0.34163   0.00000  Uiso   1.00
H70    H     0.36360   0.59614   0.69215   0.00000  Uiso   1.00
H71    H     0.15848   0.64006   0.33342   0.00000  Uiso   1.00
H72    H     0.47008   0.52550   0.70735   0.00000  Uiso   1.00
H73    H     0.43150   0.61526   0.01415   0.00000  Uiso   1.00
H74    H     0.97963   0.70070   0.96969   0.00000  Uiso   1.00
H75    H     0.63668   0.45915   0.75819   0.00000  Uiso   1.00
H76    H     0.55532   0.64841   0.40516   0.00000  Uiso   1.00
H77    H     0.73773   0.68833   0.95419   0.00000  Uiso   1.00
H78    H     0.55314   0.73730   0.60984   0.00000  Uiso   1.00
H79    H     0.86474   0.62274   0.98375   0.00000  Uiso   1.00
H80    H     0.82615   0.71250   0.29056   0.00000  Uiso   1.00
H81    H     0.29995   0.77963   0.19402   0.00000  Uiso   1.00
H82    H     0.95700   0.53807   0.98254   0.00000  Uiso   1.00
H83    H     0.87563   0.72734   0.62950   0.00000  Uiso   1.00
O84    O     0.01161   0.77071   0.85057   0.00000  Uiso   1.00
O85    O     0.87365   0.45380   0.88510   0.00000  Uiso   1.00
O86    O     0.76689   0.70211   0.73389   0.00000  Uiso   1.00
N87    N     0.08035   0.71256   0.06976   0.00000  Uiso   1.00
N88    N     0.69464   0.48672   0.80693   0.00000  Uiso   1.00
N89    N     0.61859   0.66366   0.41182   0.00000  Uiso   1.00
N90    N     0.25271   0.75503   0.19048   0.00000  Uiso   1.00
N91    N     0.86700   0.52919   0.92765   0.00000  Uiso   1.00
N92    N     0.79095   0.70613   0.53254   0.00000  Uiso   1.00
C93    C     0.44931   0.88274   0.25218   0.00000  Uiso   1.00
C94    C     0.38974   0.84609   0.09362   0.00000  Uiso   1.00
C95    C     0.24365   0.83894   0.89305   0.00000  Uiso   1.00
C96    C     0.21151   0.80366   0.77216   0.00000  Uiso   1.00
C97    C     0.10227   0.75090   0.51418   0.00000  Uiso   1.00
C98    C     0.55904   0.90833   0.29676   0.00000  Uiso   1.00
C99    C     0.55529   0.95351   0.26700   0.00000  Uiso   1.00
C100   C     0.66567   0.97063   0.31714   0.00000  Uiso   1.00
C101   C     0.81933   0.01450   0.37469   0.00000  Uiso   1.00
C102   C     0.53806   0.85956   0.46344   0.00000  Uiso   1.00
C103   C     0.51670   0.86375   0.57388   0.00000  Uiso   1.00
C104   C     0.60945   0.83981   0.76438   0.00000  Uiso   1.00
C105   C     0.73053   0.80797   0.08072   0.00000  Uiso   1.00
C106   C     0.65201   0.83279   0.39415   0.00000  Uiso   1.00
C107   C     0.49985   0.81897   0.17074   0.00000  Uiso   1.00
C108   C     0.46792   0.78368   0.05012   0.00000  Uiso   1.00
C109   C     0.32180   0.77648   0.84941   0.00000  Uiso   1.00
C110   C     0.66913   0.88121   0.37386   0.00000  Uiso   1.00
C111   C     0.77955   0.89826   0.42407   0.00000  Uiso   1.00
C112   C     0.77597   0.94345   0.39439   0.00000  Uiso   1.00
C113   C     0.64816   0.83244   0.54055   0.00000  Uiso   1.00
C114   C     0.74096   0.80849   0.73093   0.00000  Uiso   1.00
C115   C     0.71975   0.81264   0.84163   0.00000  Uiso   1.00
H116   H     0.36360   0.90386   0.19215   0.00000  Uiso   1.00
H117   H     0.15848   0.85994   0.83342   0.00000  Uiso   1.00
H118   H     0.47008   0.97450   0.20735   0.00000  Uiso   1.00
H119   H     0.43150   0.88474   0.51415   0.00000  Uiso   1.00
H120   H     0.97963   0.79930   0.46969   0.00000  Uiso   1.00
H121   H     0.63668   0.04085   0.25819   0.00000  Uiso   1.00
H122   H     0.55532   0.85159   0.90516   0.00000  Uiso   1.00
H123   H     0.73773   0.81167   0.45419   0.00000  Uiso   1.00
H124   H     0.55314   0.76270   0.10984   0.00000  Uiso   1.00
H125   H     0.86474   0.87726   0.48375   0.00000  Uiso   1.00
H126   H     0.82615   0.78750   0.79056   0.00000  Uiso   1.00
H127   H     0.29995   0.72037   0.69402   0.00000  Uiso   1.00
H128   H     0.95700   0.96193   0.48254   0.00000  Uiso   1.00
H129   H     0.87563   0.77266   0.12950   0.00000  Uiso   1.00
O130   O     0.01161   0.72929   0.35057   0.00000  Uiso   1.00
O131   O     0.87365   0.04620   0.38510   0.00000  Uiso   1.00
O132   O     0.76689   0.79789   0.23389   0.00000  Uiso   1.00
N133   N     0.08035   0.78744   0.56976   0.00000  Uiso   1.00
N134   N     0.69464   0.01328   0.30693   0.00000  Uiso   1.00
N135   N     0.61859   0.83634   0.91182   0.00000  Uiso   1.00
N136   N     0.25271   0.74497   0.69048   0.00000  Uiso   1.00
N137   N     0.86700   0.97081   0.42765   0.00000  Uiso   1.00
N138   N     0.79095   0.79387   0.03254   0.00000  Uiso   1.00
C139   C     0.55069   0.38274   0.24782   0.00000  Uiso   1.00
C140   C     0.61026   0.34609   0.40638   0.00000  Uiso   1.00
C141   C     0.75635   0.33894   0.60695   0.00000  Uiso   1.00
C142   C     0.78849   0.30366   0.72784   0.00000  Uiso   1.00
C143   C     0.89773   0.25090   0.98582   0.00000  Uiso   1.00
C144   C     0.44096   0.40833   0.20324   0.00000  Uiso   1.00
C145   C     0.44471   0.45351   0.23300   0.00000  Uiso   1.00
C146   C     0.33433   0.47063   0.18286   0.00000  Uiso   1.00
C147   C     0.18067   0.51450   0.12531   0.00000  Uiso   1.00
C148   C     0.46194   0.35956   0.03656   0.00000  Uiso   1.00
C149   C     0.48330   0.36375   0.92612   0.00000  Uiso   1.00
C150   C     0.39055   0.33981   0.73562   0.00000  Uiso   1.00
C151   C     0.26947   0.30797   0.41928   0.00000  Uiso   1.00
C152   C     0.34799   0.33279   0.10585   0.00000  Uiso   1.00
C153   C     0.50015   0.31897   0.32926   0.00000  Uiso   1.00
C154   C     0.53208   0.28368   0.44988   0.00000  Uiso   1.00
C155   C     0.67820   0.27648   0.65059   0.00000  Uiso   1.00
C156   C     0.33087   0.38121   0.12614   0.00000  Uiso   1.00
C157   C     0.22045   0.39826   0.07593   0.00000  Uiso   1.00
C158   C     0.22403   0.44345   0.10561   0.00000  Uiso   1.00
C159   C     0.35184   0.33244   0.95945   0.00000  Uiso   1.00
C160   C     0.25904   0.30849   0.76907   0.00000  Uiso   1.00
C161   C     0.28025   0.31264   0.65837   0.00000  Uiso   1.00
H162   H     0.63640   0.40386   0.30785   0.00000  Uiso   1.00
H163   H     0.84152   0.35994   0.66658   0.00000  Uiso   1.00
H164   H     0.52992   0.47450   0.29265   0.00000  Uiso   1.00
H165   H     0.56850   0.38474   0.98585   0.00000  Uiso   1.00
H166   H     0.02037   0.29930   0.03031   0.00000  Uiso   1.00
H167   H     0.36332   0.54085   0.24181   0.00000  Uiso   1.00
H168   H     0.44468   0.35159   0.59484   0.00000  Uiso   1.00
H169   H     0.26227   0.31167   0.04581   0.00000  Uiso   1.00
H170   H     0.44686   0.26270   0.39016   0.00000  Uiso   1.00
H171   H     0.13526   0.37726   0.01625   0.00000  Uiso   1.00
H172   H     0.17385   0.28750   0.70944   0.00000  Uiso   1.00
H173   H     0.70005   0.22037   0.80598   0.00000  Uiso   1.00
H174   H     0.04300   0.46193   0.01746   0.00000  Uiso   1.00
H175   H     0.12437   0.27266   0.37050   0.00000  Uiso   1.00
O176   O     0.98839   0.22929   0.14943   0.00000  Uiso   1.00
O177   O     0.12635   0.54620   0.11490   0.00000  Uiso   1.00
O178   O     0.23311   0.29789   0.26611   0.00000  Uiso   1.00
N179   N     0.91965   0.28744   0.93024   0.00000  Uiso   1.00
N180   N     0.30536   0.51328   0.19307   0.00000  Uiso   1.00
N181   N     0.38141   0.33634   0.58818   0.00000  Uiso   1.00
N182   N     0.74729   0.24497   0.80952   0.00000  Uiso   1.00
N183   N     0.13300   0.47081   0.07235   0.00000  Uiso   1.00
N184   N     0.20905   0.29387   0.46746   0.00000  Uiso   1.00
