data_job_00624
_audit_creation_date              2018-12-19
_audit_creation_method            'Materials Studio'
_symmetry_space_group_name_H-M    'P1'
_symmetry_Int_Tables_number       1
_symmetry_cell_setting            triclinic
loop_
_symmetry_equiv_pos_as_xyz
  x,y,z
_cell_length_a                    18.8955
_cell_length_b                    13.6608
_cell_length_c                    31.2208
_cell_angle_alpha                 90.0000
_cell_angle_beta                  143.3537
_cell_angle_gamma                 90.0000
loop_
_atom_site_label
_atom_site_type_symbol
_atom_site_fract_x
_atom_site_fract_y
_atom_site_fract_z
_atom_site_U_iso_or_equiv
_atom_site_adp_type
_atom_site_occupancy
C1     C     0.29024   0.99103   0.69459   0.00000  Uiso   1.00
C2     C     0.37736   0.96653   0.77268   0.00000  Uiso   1.00
C3     C     0.46883   0.89882   0.81459   0.00000  Uiso   1.00
C4     C     0.53874   0.88700   0.88477   0.00000  Uiso   1.00
C5     C     0.67715   0.84070   0.00187   0.00000  Uiso   1.00
C6     C     0.16689   0.97353   0.65317   0.00000  Uiso   1.00
C7     C     0.08140   0.91172   0.59460   0.00000  Uiso   1.00
C8     C     0.97414   0.90580   0.56418   0.00000  Uiso   1.00
C9     C     0.78576   0.87042   0.49571   0.00000  Uiso   1.00
C10    C     0.30008   0.10117   0.69226   0.00000  Uiso   1.00
C11    C     0.32655   0.14669   0.66654   0.00000  Uiso   1.00
C12    C     0.33140   0.24825   0.66902   0.00000  Uiso   1.00
C13    C     0.34983   0.41106   0.66124   0.00000  Uiso   1.00
C14    C     0.25174   0.09045   0.74470   0.00000  Uiso   1.00
C15    C     0.35644   0.02052   0.79989   0.00000  Uiso   1.00
C16    C     0.42623   0.00881   0.87003   0.00000  Uiso   1.00
C17    C     0.51779   0.94110   0.91204   0.00000  Uiso   1.00
C18    C     0.14597   0.02752   0.68039   0.00000  Uiso   1.00
C19    C     0.03880   0.02171   0.65004   0.00000  Uiso   1.00
C20    C     0.95318   0.95990   0.59145   0.00000  Uiso   1.00
C21    C     0.27917   0.15517   0.71948   0.00000  Uiso   1.00
C22    C     0.28396   0.25668   0.72199   0.00000  Uiso   1.00
C23    C     0.31044   0.30235   0.69628   0.00000  Uiso   1.00
H24    H     0.30652   0.94899   0.67340   0.00000  Uiso   1.00
H25    H     0.48498   0.85704   0.79351   0.00000  Uiso   1.00
H26    H     0.09761   0.86994   0.57355   0.00000  Uiso   1.00
H27    H     0.34273   0.10488   0.64549   0.00000  Uiso   1.00
H28    H     0.67359   0.77888   0.93866   0.00000  Uiso   1.00
H29    H     0.85679   0.80611   0.47486   0.00000  Uiso   1.00
H30    H     0.37367   0.30152   0.62654   0.00000  Uiso   1.00
H31    H     0.23545   0.13249   0.76589   0.00000  Uiso   1.00
H32    H     0.41002   0.05061   0.89108   0.00000  Uiso   1.00
H33    H     0.02265   0.06351   0.67111   0.00000  Uiso   1.00
H34    H     0.26777   0.29845   0.74305   0.00000  Uiso   1.00
H35    H     0.61275   0.93598   0.01785   0.00000  Uiso   1.00
H36    H     0.79594   0.96322   0.55404   0.00000  Uiso   1.00
H37    H     0.31282   0.45863   0.70573   0.00000  Uiso   1.00
O38    O     0.75926   0.80023   0.05893   0.00000  Uiso   1.00
O39    O     0.68764   0.83598   0.45043   0.00000  Uiso   1.00
O40    O     0.36578   0.48594   0.64945   0.00000  Uiso   1.00
N41    N     0.63533   0.82710   0.94013   0.00000  Uiso   1.00
N42    N     0.87167   0.85256   0.50650   0.00000  Uiso   1.00
N43    N     0.35488   0.31572   0.64830   0.00000  Uiso   1.00
N44    N     0.60259   0.91164   0.98274   0.00000  Uiso   1.00
N45    N     0.83893   0.93710   0.54911   0.00000  Uiso   1.00
N46    N     0.32214   0.40026   0.69091   0.00000  Uiso   1.00
C47    C     0.79024   0.49103   0.69459   0.00000  Uiso   1.00
C48    C     0.87736   0.46653   0.77268   0.00000  Uiso   1.00
C49    C     0.96883   0.39882   0.81459   0.00000  Uiso   1.00
C50    C     0.03874   0.38700   0.88477   0.00000  Uiso   1.00
C51    C     0.17715   0.34070   0.00187   0.00000  Uiso   1.00
C52    C     0.66689   0.47353   0.65317   0.00000  Uiso   1.00
C53    C     0.58140   0.41172   0.59460   0.00000  Uiso   1.00
C54    C     0.47414   0.40580   0.56418   0.00000  Uiso   1.00
C55    C     0.28576   0.37042   0.49571   0.00000  Uiso   1.00
C56    C     0.80008   0.60117   0.69226   0.00000  Uiso   1.00
C57    C     0.82655   0.64669   0.66654   0.00000  Uiso   1.00
C58    C     0.83140   0.74825   0.66902   0.00000  Uiso   1.00
C59    C     0.84983   0.91106   0.66124   0.00000  Uiso   1.00
C60    C     0.75174   0.59045   0.74470   0.00000  Uiso   1.00
C61    C     0.85644   0.52052   0.79989   0.00000  Uiso   1.00
C62    C     0.92623   0.50881   0.87003   0.00000  Uiso   1.00
C63    C     0.01779   0.44110   0.91204   0.00000  Uiso   1.00
C64    C     0.64597   0.52752   0.68039   0.00000  Uiso   1.00
C65    C     0.53880   0.52171   0.65004   0.00000  Uiso   1.00
C66    C     0.45318   0.45990   0.59145   0.00000  Uiso   1.00
C67    C     0.77917   0.65517   0.71948   0.00000  Uiso   1.00
C68    C     0.78396   0.75668   0.72199   0.00000  Uiso   1.00
C69    C     0.81044   0.80235   0.69628   0.00000  Uiso   1.00
H70    H     0.80652   0.44899   0.67340   0.00000  Uiso   1.00
H71    H     0.98498   0.35704   0.79351   0.00000  Uiso   1.00
H72    H     0.59761   0.36994   0.57355   0.00000  Uiso   1.00
H73    H     0.84273   0.60488   0.64549   0.00000  Uiso   1.00
H74    H     0.17359   0.27888   0.93866   0.00000  Uiso   1.00
H75    H     0.35679   0.30611   0.47486   0.00000  Uiso   1.00
H76    H     0.87367   0.80152   0.62654   0.00000  Uiso   1.00
H77    H     0.73545   0.63249   0.76589   0.00000  Uiso   1.00
H78    H     0.91002   0.55061   0.89108   0.00000  Uiso   1.00
H79    H     0.52265   0.56351   0.67111   0.00000  Uiso   1.00
H80    H     0.76777   0.79845   0.74305   0.00000  Uiso   1.00
H81    H     0.11275   0.43598   0.01785   0.00000  Uiso   1.00
H82    H     0.29594   0.46322   0.55404   0.00000  Uiso   1.00
H83    H     0.81282   0.95863   0.70573   0.00000  Uiso   1.00
O84    O     0.25926   0.30023   0.05893   0.00000  Uiso   1.00
O85    O     0.18764   0.33598   0.45043   0.00000  Uiso   1.00
O86    O     0.86578   0.98594   0.64945   0.00000  Uiso   1.00
N87    N     0.13533   0.32710   0.94013   0.00000  Uiso   1.00
N88    N     0.37167   0.35256   0.50650   0.00000  Uiso   1.00
N89    N     0.85488   0.81572   0.64830   0.00000  Uiso   1.00
N90    N     0.10259   0.41164   0.98274   0.00000  Uiso   1.00
N91    N     0.33893   0.43710   0.54911   0.00000  Uiso   1.00
N92    N     0.82214   0.90026   0.69091   0.00000  Uiso   1.00
C93    C     0.70976   0.99103   0.80541   0.00000  Uiso   1.00
C94    C     0.62264   0.96653   0.72732   0.00000  Uiso   1.00
C95    C     0.53117   0.89882   0.68541   0.00000  Uiso   1.00
C96    C     0.46126   0.88700   0.61523   0.00000  Uiso   1.00
C97    C     0.32285   0.84070   0.49813   0.00000  Uiso   1.00
C98    C     0.83311   0.97353   0.84683   0.00000  Uiso   1.00
C99    C     0.91860   0.91172   0.90540   0.00000  Uiso   1.00
C100   C     0.02586   0.90580   0.93582   0.00000  Uiso   1.00
C101   C     0.21424   0.87042   0.00429   0.00000  Uiso   1.00
C102   C     0.69992   0.10117   0.80774   0.00000  Uiso   1.00
C103   C     0.67345   0.14669   0.83346   0.00000  Uiso   1.00
C104   C     0.66860   0.24825   0.83098   0.00000  Uiso   1.00
C105   C     0.65017   0.41106   0.83876   0.00000  Uiso   1.00
C106   C     0.74826   0.09045   0.75530   0.00000  Uiso   1.00
C107   C     0.64356   0.02052   0.70011   0.00000  Uiso   1.00
C108   C     0.57377   0.00881   0.62997   0.00000  Uiso   1.00
C109   C     0.48221   0.94110   0.58796   0.00000  Uiso   1.00
C110   C     0.85403   0.02752   0.81961   0.00000  Uiso   1.00
C111   C     0.96120   0.02171   0.84996   0.00000  Uiso   1.00
C112   C     0.04682   0.95990   0.90855   0.00000  Uiso   1.00
C113   C     0.72083   0.15517   0.78052   0.00000  Uiso   1.00
C114   C     0.71604   0.25668   0.77801   0.00000  Uiso   1.00
C115   C     0.68956   0.30235   0.80372   0.00000  Uiso   1.00
H116   H     0.69348   0.94899   0.82660   0.00000  Uiso   1.00
H117   H     0.51502   0.85704   0.70649   0.00000  Uiso   1.00
H118   H     0.90239   0.86994   0.92645   0.00000  Uiso   1.00
H119   H     0.65727   0.10488   0.85451   0.00000  Uiso   1.00
H120   H     0.32641   0.77888   0.56134   0.00000  Uiso   1.00
H121   H     0.14321   0.80611   0.02514   0.00000  Uiso   1.00
H122   H     0.62633   0.30152   0.87346   0.00000  Uiso   1.00
H123   H     0.76455   0.13249   0.73411   0.00000  Uiso   1.00
H124   H     0.58998   0.05061   0.60892   0.00000  Uiso   1.00
H125   H     0.97735   0.06351   0.82889   0.00000  Uiso   1.00
H126   H     0.73223   0.29845   0.75695   0.00000  Uiso   1.00
H127   H     0.38725   0.93598   0.48215   0.00000  Uiso   1.00
H128   H     0.20406   0.96322   0.94596   0.00000  Uiso   1.00
H129   H     0.68718   0.45863   0.79427   0.00000  Uiso   1.00
O130   O     0.24074   0.80023   0.44107   0.00000  Uiso   1.00
O131   O     0.31236   0.83598   0.04957   0.00000  Uiso   1.00
O132   O     0.63422   0.48594   0.85055   0.00000  Uiso   1.00
N133   N     0.36467   0.82710   0.55987   0.00000  Uiso   1.00
N134   N     0.12833   0.85256   0.99350   0.00000  Uiso   1.00
N135   N     0.64512   0.31572   0.85170   0.00000  Uiso   1.00
N136   N     0.39741   0.91164   0.51726   0.00000  Uiso   1.00
N137   N     0.16107   0.93710   0.95089   0.00000  Uiso   1.00
N138   N     0.67786   0.40026   0.80909   0.00000  Uiso   1.00
C139   C     0.20976   0.49103   0.80541   0.00000  Uiso   1.00
C140   C     0.12264   0.46653   0.72732   0.00000  Uiso   1.00
C141   C     0.03117   0.39882   0.68541   0.00000  Uiso   1.00
C142   C     0.96126   0.38700   0.61523   0.00000  Uiso   1.00
C143   C     0.82285   0.34070   0.49813   0.00000  Uiso   1.00
C144   C     0.33311   0.47353   0.84683   0.00000  Uiso   1.00
C145   C     0.41860   0.41172   0.90540   0.00000  Uiso   1.00
C146   C     0.52586   0.40580   0.93582   0.00000  Uiso   1.00
C147   C     0.71424   0.37042   0.00429   0.00000  Uiso   1.00
C148   C     0.19992   0.60117   0.80774   0.00000  Uiso   1.00
C149   C     0.17345   0.64669   0.83346   0.00000  Uiso   1.00
C150   C     0.16860   0.74825   0.83098   0.00000  Uiso   1.00
C151   C     0.15017   0.91106   0.83876   0.00000  Uiso   1.00
C152   C     0.24826   0.59045   0.75530   0.00000  Uiso   1.00
C153   C     0.14356   0.52052   0.70011   0.00000  Uiso   1.00
C154   C     0.07377   0.50881   0.62997   0.00000  Uiso   1.00
C155   C     0.98221   0.44110   0.58796   0.00000  Uiso   1.00
C156   C     0.35403   0.52752   0.81961   0.00000  Uiso   1.00
C157   C     0.46120   0.52171   0.84996   0.00000  Uiso   1.00
C158   C     0.54682   0.45990   0.90855   0.00000  Uiso   1.00
C159   C     0.22083   0.65517   0.78052   0.00000  Uiso   1.00
C160   C     0.21604   0.75668   0.77801   0.00000  Uiso   1.00
C161   C     0.18956   0.80235   0.80372   0.00000  Uiso   1.00
H162   H     0.19348   0.44899   0.82660   0.00000  Uiso   1.00
H163   H     0.01502   0.35704   0.70649   0.00000  Uiso   1.00
H164   H     0.40239   0.36994   0.92645   0.00000  Uiso   1.00
H165   H     0.15727   0.60488   0.85451   0.00000  Uiso   1.00
H166   H     0.82641   0.27888   0.56134   0.00000  Uiso   1.00
H167   H     0.64321   0.30611   0.02514   0.00000  Uiso   1.00
H168   H     0.12633   0.80152   0.87346   0.00000  Uiso   1.00
H169   H     0.26455   0.63249   0.73411   0.00000  Uiso   1.00
H170   H     0.08998   0.55061   0.60892   0.00000  Uiso   1.00
H171   H     0.47735   0.56351   0.82889   0.00000  Uiso   1.00
H172   H     0.23223   0.79845   0.75695   0.00000  Uiso   1.00
H173   H     0.88725   0.43598   0.48215   0.00000  Uiso   1.00
H174   H     0.70406   0.46322   0.94596   0.00000  Uiso   1.00
H175   H     0.18718   0.95863   0.79427   0.00000  Uiso   1.00
O176   O     0.74074   0.30023   0.44107   0.00000  Uiso   1.00
O177   O     0.81236   0.33598   0.04957   0.00000  Uiso   1.00
O178   O     0.13422   0.98594   0.85055   0.00000  Uiso   1.00
N179   N     0.86467   0.32710   0.55987   0.00000  Uiso   1.00
N180   N     0.62833   0.35256   0.99350   0.00000  Uiso   1.00
N181   N     0.14512   0.81572   0.85170   0.00000  Uiso   1.00
N182   N     0.89741   0.41164   0.51726   0.00000  Uiso   1.00
N183   N     0.66107   0.43710   0.95089   0.00000  Uiso   1.00
N184   N     0.17786   0.90026   0.80909   0.00000  Uiso   1.00
C185   C     0.70976   0.00897   0.30541   0.00000  Uiso   1.00
C186   C     0.62264   0.03347   0.22732   0.00000  Uiso   1.00
C187   C     0.53117   0.10118   0.18541   0.00000  Uiso   1.00
C188   C     0.46126   0.11300   0.11523   0.00000  Uiso   1.00
C189   C     0.32285   0.15930   0.99813   0.00000  Uiso   1.00
C190   C     0.83311   0.02647   0.34683   0.00000  Uiso   1.00
C191   C     0.91860   0.08828   0.40540   0.00000  Uiso   1.00
C192   C     0.02586   0.09420   0.43582   0.00000  Uiso   1.00
C193   C     0.21424   0.12958   0.50429   0.00000  Uiso   1.00
C194   C     0.69992   0.89883   0.30774   0.00000  Uiso   1.00
C195   C     0.67345   0.85331   0.33346   0.00000  Uiso   1.00
C196   C     0.66860   0.75175   0.33098   0.00000  Uiso   1.00
C197   C     0.65017   0.58894   0.33876   0.00000  Uiso   1.00
C198   C     0.74826   0.90955   0.25530   0.00000  Uiso   1.00
C199   C     0.64356   0.97948   0.20011   0.00000  Uiso   1.00
C200   C     0.57377   0.99119   0.12997   0.00000  Uiso   1.00
C201   C     0.48221   0.05890   0.08796   0.00000  Uiso   1.00
C202   C     0.85403   0.97248   0.31961   0.00000  Uiso   1.00
C203   C     0.96120   0.97829   0.34996   0.00000  Uiso   1.00
C204   C     0.04682   0.04010   0.40855   0.00000  Uiso   1.00
C205   C     0.72083   0.84483   0.28052   0.00000  Uiso   1.00
C206   C     0.71604   0.74332   0.27801   0.00000  Uiso   1.00
C207   C     0.68956   0.69765   0.30372   0.00000  Uiso   1.00
H208   H     0.69348   0.05101   0.32660   0.00000  Uiso   1.00
H209   H     0.51502   0.14296   0.20649   0.00000  Uiso   1.00
H210   H     0.90239   0.13006   0.42645   0.00000  Uiso   1.00
H211   H     0.65727   0.89512   0.35451   0.00000  Uiso   1.00
H212   H     0.32641   0.22112   0.06134   0.00000  Uiso   1.00
H213   H     0.14321   0.19389   0.52514   0.00000  Uiso   1.00
H214   H     0.62633   0.69848   0.37346   0.00000  Uiso   1.00
H215   H     0.76455   0.86751   0.23411   0.00000  Uiso   1.00
H216   H     0.58998   0.94939   0.10892   0.00000  Uiso   1.00
H217   H     0.97735   0.93649   0.32889   0.00000  Uiso   1.00
H218   H     0.73223   0.70155   0.25695   0.00000  Uiso   1.00
H219   H     0.38725   0.06402   0.98215   0.00000  Uiso   1.00
H220   H     0.20406   0.03678   0.44596   0.00000  Uiso   1.00
H221   H     0.68718   0.54137   0.29427   0.00000  Uiso   1.00
O222   O     0.24074   0.19977   0.94107   0.00000  Uiso   1.00
O223   O     0.31236   0.16402   0.54957   0.00000  Uiso   1.00
O224   O     0.63422   0.51406   0.35055   0.00000  Uiso   1.00
N225   N     0.36467   0.17290   0.05987   0.00000  Uiso   1.00
N226   N     0.12833   0.14744   0.49350   0.00000  Uiso   1.00
N227   N     0.64512   0.68428   0.35170   0.00000  Uiso   1.00
N228   N     0.39741   0.08836   0.01726   0.00000  Uiso   1.00
N229   N     0.16107   0.06290   0.45089   0.00000  Uiso   1.00
N230   N     0.67786   0.59974   0.30909   0.00000  Uiso   1.00
C231   C     0.20976   0.50897   0.30541   0.00000  Uiso   1.00
C232   C     0.12264   0.53347   0.22732   0.00000  Uiso   1.00
C233   C     0.03117   0.60118   0.18541   0.00000  Uiso   1.00
C234   C     0.96126   0.61300   0.11523   0.00000  Uiso   1.00
C235   C     0.82285   0.65930   0.99813   0.00000  Uiso   1.00
C236   C     0.33311   0.52647   0.34683   0.00000  Uiso   1.00
C237   C     0.41860   0.58828   0.40540   0.00000  Uiso   1.00
C238   C     0.52586   0.59420   0.43582   0.00000  Uiso   1.00
C239   C     0.71424   0.62958   0.50429   0.00000  Uiso   1.00
C240   C     0.19992   0.39883   0.30774   0.00000  Uiso   1.00
C241   C     0.17345   0.35331   0.33346   0.00000  Uiso   1.00
C242   C     0.16860   0.25175   0.33098   0.00000  Uiso   1.00
C243   C     0.15017   0.08894   0.33876   0.00000  Uiso   1.00
C244   C     0.24826   0.40955   0.25530   0.00000  Uiso   1.00
C245   C     0.14356   0.47948   0.20011   0.00000  Uiso   1.00
C246   C     0.07377   0.49119   0.12997   0.00000  Uiso   1.00
C247   C     0.98221   0.55890   0.08796   0.00000  Uiso   1.00
C248   C     0.35403   0.47248   0.31961   0.00000  Uiso   1.00
C249   C     0.46120   0.47829   0.34996   0.00000  Uiso   1.00
C250   C     0.54682   0.54010   0.40855   0.00000  Uiso   1.00
C251   C     0.22083   0.34483   0.28052   0.00000  Uiso   1.00
C252   C     0.21604   0.24332   0.27801   0.00000  Uiso   1.00
C253   C     0.18956   0.19765   0.30372   0.00000  Uiso   1.00
H254   H     0.19348   0.55101   0.32660   0.00000  Uiso   1.00
H255   H     0.01502   0.64296   0.20649   0.00000  Uiso   1.00
H256   H     0.40239   0.63006   0.42645   0.00000  Uiso   1.00
H257   H     0.15727   0.39512   0.35451   0.00000  Uiso   1.00
H258   H     0.82641   0.72112   0.06134   0.00000  Uiso   1.00
H259   H     0.64321   0.69389   0.52514   0.00000  Uiso   1.00
H260   H     0.12633   0.19848   0.37346   0.00000  Uiso   1.00
H261   H     0.26455   0.36751   0.23411   0.00000  Uiso   1.00
H262   H     0.08998   0.44939   0.10892   0.00000  Uiso   1.00
H263   H     0.47735   0.43649   0.32889   0.00000  Uiso   1.00
H264   H     0.23223   0.20155   0.25695   0.00000  Uiso   1.00
H265   H     0.88725   0.56402   0.98215   0.00000  Uiso   1.00
H266   H     0.70406   0.53678   0.44596   0.00000  Uiso   1.00
H267   H     0.18718   0.04137   0.29427   0.00000  Uiso   1.00
O268   O     0.74074   0.69977   0.94107   0.00000  Uiso   1.00
O269   O     0.81236   0.66402   0.54957   0.00000  Uiso   1.00
O270   O     0.13422   0.01406   0.35055   0.00000  Uiso   1.00
N271   N     0.86467   0.67290   0.05987   0.00000  Uiso   1.00
N272   N     0.62833   0.64744   0.49350   0.00000  Uiso   1.00
N273   N     0.14512   0.18428   0.35170   0.00000  Uiso   1.00
N274   N     0.89741   0.58836   0.01726   0.00000  Uiso   1.00
N275   N     0.66107   0.56290   0.45089   0.00000  Uiso   1.00
N276   N     0.17786   0.09974   0.30909   0.00000  Uiso   1.00
C277   C     0.29024   0.00897   0.19459   0.00000  Uiso   1.00
C278   C     0.37736   0.03347   0.27268   0.00000  Uiso   1.00
C279   C     0.46883   0.10118   0.31459   0.00000  Uiso   1.00
C280   C     0.53874   0.11300   0.38477   0.00000  Uiso   1.00
C281   C     0.67715   0.15930   0.50187   0.00000  Uiso   1.00
C282   C     0.16689   0.02647   0.15317   0.00000  Uiso   1.00
C283   C     0.08140   0.08828   0.09460   0.00000  Uiso   1.00
C284   C     0.97414   0.09420   0.06418   0.00000  Uiso   1.00
C285   C     0.78576   0.12958   0.99571   0.00000  Uiso   1.00
C286   C     0.30008   0.89883   0.19226   0.00000  Uiso   1.00
C287   C     0.32655   0.85331   0.16654   0.00000  Uiso   1.00
C288   C     0.33140   0.75175   0.16902   0.00000  Uiso   1.00
C289   C     0.34983   0.58894   0.16124   0.00000  Uiso   1.00
C290   C     0.25174   0.90955   0.24470   0.00000  Uiso   1.00
C291   C     0.35644   0.97948   0.29989   0.00000  Uiso   1.00
C292   C     0.42623   0.99119   0.37003   0.00000  Uiso   1.00
C293   C     0.51779   0.05890   0.41204   0.00000  Uiso   1.00
C294   C     0.14597   0.97248   0.18039   0.00000  Uiso   1.00
C295   C     0.03880   0.97829   0.15004   0.00000  Uiso   1.00
C296   C     0.95318   0.04010   0.09145   0.00000  Uiso   1.00
C297   C     0.27917   0.84483   0.21948   0.00000  Uiso   1.00
C298   C     0.28396   0.74332   0.22199   0.00000  Uiso   1.00
C299   C     0.31044   0.69765   0.19628   0.00000  Uiso   1.00
H300   H     0.30652   0.05101   0.17340   0.00000  Uiso   1.00
H301   H     0.48498   0.14296   0.29351   0.00000  Uiso   1.00
H302   H     0.09761   0.13006   0.07355   0.00000  Uiso   1.00
H303   H     0.34273   0.89512   0.14549   0.00000  Uiso   1.00
H304   H     0.67359   0.22112   0.43866   0.00000  Uiso   1.00
H305   H     0.85679   0.19389   0.97486   0.00000  Uiso   1.00
H306   H     0.37367   0.69848   0.12654   0.00000  Uiso   1.00
H307   H     0.23545   0.86751   0.26589   0.00000  Uiso   1.00
H308   H     0.41002   0.94939   0.39108   0.00000  Uiso   1.00
H309   H     0.02265   0.93649   0.17111   0.00000  Uiso   1.00
H310   H     0.26777   0.70155   0.24305   0.00000  Uiso   1.00
H311   H     0.61275   0.06402   0.51785   0.00000  Uiso   1.00
H312   H     0.79594   0.03678   0.05404   0.00000  Uiso   1.00
H313   H     0.31282   0.54137   0.20573   0.00000  Uiso   1.00
O314   O     0.75926   0.19977   0.55893   0.00000  Uiso   1.00
O315   O     0.68764   0.16402   0.95043   0.00000  Uiso   1.00
O316   O     0.36578   0.51406   0.14945   0.00000  Uiso   1.00
N317   N     0.63533   0.17290   0.44013   0.00000  Uiso   1.00
N318   N     0.87167   0.14744   0.00650   0.00000  Uiso   1.00
N319   N     0.35488   0.68428   0.14830   0.00000  Uiso   1.00
N320   N     0.60259   0.08836   0.48274   0.00000  Uiso   1.00
N321   N     0.83893   0.06290   0.04911   0.00000  Uiso   1.00
N322   N     0.32214   0.59974   0.19091   0.00000  Uiso   1.00
C323   C     0.79024   0.50897   0.19459   0.00000  Uiso   1.00
C324   C     0.87736   0.53347   0.27268   0.00000  Uiso   1.00
C325   C     0.96883   0.60118   0.31459   0.00000  Uiso   1.00
C326   C     0.03874   0.61300   0.38477   0.00000  Uiso   1.00
C327   C     0.17715   0.65930   0.50187   0.00000  Uiso   1.00
C328   C     0.66689   0.52647   0.15317   0.00000  Uiso   1.00
C329   C     0.58140   0.58828   0.09460   0.00000  Uiso   1.00
C330   C     0.47414   0.59420   0.06418   0.00000  Uiso   1.00
C331   C     0.28576   0.62958   0.99571   0.00000  Uiso   1.00
C332   C     0.80008   0.39883   0.19226   0.00000  Uiso   1.00
C333   C     0.82655   0.35331   0.16654   0.00000  Uiso   1.00
C334   C     0.83140   0.25175   0.16902   0.00000  Uiso   1.00
C335   C     0.84983   0.08894   0.16124   0.00000  Uiso   1.00
C336   C     0.75174   0.40955   0.24470   0.00000  Uiso   1.00
C337   C     0.85644   0.47948   0.29989   0.00000  Uiso   1.00
C338   C     0.92623   0.49119   0.37003   0.00000  Uiso   1.00
C339   C     0.01779   0.55890   0.41204   0.00000  Uiso   1.00
C340   C     0.64597   0.47248   0.18039   0.00000  Uiso   1.00
C341   C     0.53880   0.47829   0.15004   0.00000  Uiso   1.00
C342   C     0.45318   0.54010   0.09145   0.00000  Uiso   1.00
C343   C     0.77917   0.34483   0.21948   0.00000  Uiso   1.00
C344   C     0.78396   0.24332   0.22199   0.00000  Uiso   1.00
C345   C     0.81044   0.19765   0.19628   0.00000  Uiso   1.00
H346   H     0.80652   0.55101   0.17340   0.00000  Uiso   1.00
H347   H     0.98498   0.64296   0.29351   0.00000  Uiso   1.00
H348   H     0.59761   0.63006   0.07355   0.00000  Uiso   1.00
H349   H     0.84273   0.39512   0.14549   0.00000  Uiso   1.00
H350   H     0.17359   0.72112   0.43866   0.00000  Uiso   1.00
H351   H     0.35679   0.69389   0.97486   0.00000  Uiso   1.00
H352   H     0.87367   0.19848   0.12654   0.00000  Uiso   1.00
H353   H     0.73545   0.36751   0.26589   0.00000  Uiso   1.00
H354   H     0.91002   0.44939   0.39108   0.00000  Uiso   1.00
H355   H     0.52265   0.43649   0.17111   0.00000  Uiso   1.00
H356   H     0.76777   0.20155   0.24305   0.00000  Uiso   1.00
H357   H     0.11275   0.56402   0.51785   0.00000  Uiso   1.00
H358   H     0.29594   0.53678   0.05404   0.00000  Uiso   1.00
H359   H     0.81282   0.04137   0.20573   0.00000  Uiso   1.00
O360   O     0.25926   0.69977   0.55893   0.00000  Uiso   1.00
O361   O     0.18764   0.66402   0.95043   0.00000  Uiso   1.00
O362   O     0.86578   0.01406   0.14945   0.00000  Uiso   1.00
N363   N     0.13533   0.67290   0.44013   0.00000  Uiso   1.00
N364   N     0.37167   0.64744   0.00650   0.00000  Uiso   1.00
N365   N     0.85488   0.18428   0.14830   0.00000  Uiso   1.00
N366   N     0.10259   0.58836   0.48274   0.00000  Uiso   1.00
N367   N     0.33893   0.56290   0.04911   0.00000  Uiso   1.00
N368   N     0.82214   0.09974   0.19091   0.00000  Uiso   1.00
