data_job_00793
_audit_creation_date              2018-12-19
_audit_creation_method            'Materials Studio'
_symmetry_space_group_name_H-M    'P1'
_symmetry_Int_Tables_number       1
_symmetry_cell_setting            triclinic
loop_
_symmetry_equiv_pos_as_xyz
  x,y,z
_cell_length_a                    19.2739
_cell_length_b                    8.6813
_cell_length_c                    30.1544
_cell_angle_alpha                 90.0000
_cell_angle_beta                  90.0000
_cell_angle_gamma                 90.0000
loop_
_atom_site_label
_atom_site_type_symbol
_atom_site_fract_x
_atom_site_fract_y
_atom_site_fract_z
_atom_site_U_iso_or_equiv
_atom_site_adp_type
_atom_site_occupancy
C1     C     0.07358   0.51242   0.65408   0.00000  Uiso   1.00
C2     C     0.09596   0.66991   0.67131   0.00000  Uiso   1.00
C3     C     0.12962   0.69780   0.71120   0.00000  Uiso   1.00
C4     C     0.14566   0.84998   0.72095   0.00000  Uiso   1.00
C5     C     0.18297   0.07629   0.75216   0.00000  Uiso   1.00
C6     C     0.99579   0.52412   0.64550   0.00000  Uiso   1.00
C7     C     0.94523   0.42941   0.66368   0.00000  Uiso   1.00
C8     C     0.87695   0.45886   0.65170   0.00000  Uiso   1.00
C9     C     0.75874   0.45876   0.64280   0.00000  Uiso   1.00
C10    C     0.10751   0.49446   0.60869   0.00000  Uiso   1.00
C11    C     0.15086   0.37480   0.59590   0.00000  Uiso   1.00
C12    C     0.17663   0.37926   0.55292   0.00000  Uiso   1.00
C13    C     0.23188   0.33312   0.48686   0.00000  Uiso   1.00
C14    C     0.04223   0.73309   0.60048   0.00000  Uiso   1.00
C15    C     0.07893   0.78977   0.64220   0.00000  Uiso   1.00
C16    C     0.09493   0.94195   0.65190   0.00000  Uiso   1.00
C17    C     0.12861   0.97006   0.69179   0.00000  Uiso   1.00
C18    C     0.97876   0.64398   0.61639   0.00000  Uiso   1.00
C19    C     0.91054   0.67356   0.60437   0.00000  Uiso   1.00
C20    C     0.85988   0.57894   0.62253   0.00000  Uiso   1.00
C21    C     0.09048   0.61433   0.57957   0.00000  Uiso   1.00
C22    C     0.11618   0.61896   0.53660   0.00000  Uiso   1.00
C23    C     0.15957   0.49934   0.52376   0.00000  Uiso   1.00
H24    H     0.08684   0.41910   0.67674   0.00000  Uiso   1.00
H25    H     0.14278   0.60501   0.73372   0.00000  Uiso   1.00
H26    H     0.95842   0.33666   0.68620   0.00000  Uiso   1.00
H27    H     0.16403   0.28207   0.61844   0.00000  Uiso   1.00
H28    H     0.19728   0.86399   0.78406   0.00000  Uiso   1.00
H29    H     0.80854   0.29812   0.68385   0.00000  Uiso   1.00
H30    H     0.24211   0.18300   0.54096   0.00000  Uiso   1.00
H31    H     0.02897   0.82641   0.57781   0.00000  Uiso   1.00
H32    H     0.08175   0.03468   0.62936   0.00000  Uiso   1.00
H33    H     0.89738   0.76632   0.58184   0.00000  Uiso   1.00
H34    H     0.10299   0.71173   0.51408   0.00000  Uiso   1.00
H35    H     0.14773   0.21272   0.69936   0.00000  Uiso   1.00
H36    H     0.75899   0.64685   0.59915   0.00000  Uiso   1.00
H37    H     0.19256   0.53173   0.45626   0.00000  Uiso   1.00
O38    O     0.20824   0.16801   0.77741   0.00000  Uiso   1.00
O39    O     0.69824   0.42560   0.64594   0.00000  Uiso   1.00
O40    O     0.26707   0.27457   0.45847   0.00000  Uiso   1.00
N41    N     0.17839   0.91748   0.75705   0.00000  Uiso   1.00
N42    N     0.81494   0.38844   0.66337   0.00000  Uiso   1.00
N43    N     0.22027   0.28079   0.52977   0.00000  Uiso   1.00
N44    N     0.15173   0.10513   0.71147   0.00000  Uiso   1.00
N45    N     0.78828   0.57609   0.61779   0.00000  Uiso   1.00
N46    N     0.19362   0.46844   0.48419   0.00000  Uiso   1.00
C47    C     0.42642   0.98758   0.15408   0.00000  Uiso   1.00
C48    C     0.40404   0.83009   0.17131   0.00000  Uiso   1.00
C49    C     0.37038   0.80220   0.21120   0.00000  Uiso   1.00
C50    C     0.35434   0.65002   0.22095   0.00000  Uiso   1.00
C51    C     0.31703   0.42371   0.25216   0.00000  Uiso   1.00
C52    C     0.50421   0.97588   0.14550   0.00000  Uiso   1.00
C53    C     0.55477   0.07059   0.16368   0.00000  Uiso   1.00
C54    C     0.62305   0.04114   0.15170   0.00000  Uiso   1.00
C55    C     0.74126   0.04124   0.14280   0.00000  Uiso   1.00
C56    C     0.39249   0.00554   0.10869   0.00000  Uiso   1.00
C57    C     0.34914   0.12520   0.09590   0.00000  Uiso   1.00
C58    C     0.32337   0.12074   0.05292   0.00000  Uiso   1.00
C59    C     0.26812   0.16688   0.98686   0.00000  Uiso   1.00
C60    C     0.45777   0.76691   0.10048   0.00000  Uiso   1.00
C61    C     0.42107   0.71023   0.14220   0.00000  Uiso   1.00
C62    C     0.40507   0.55805   0.15190   0.00000  Uiso   1.00
C63    C     0.37139   0.52994   0.19179   0.00000  Uiso   1.00
C64    C     0.52124   0.85602   0.11639   0.00000  Uiso   1.00
C65    C     0.58946   0.82644   0.10437   0.00000  Uiso   1.00
C66    C     0.64012   0.92106   0.12253   0.00000  Uiso   1.00
C67    C     0.40952   0.88567   0.07957   0.00000  Uiso   1.00
C68    C     0.38382   0.88104   0.03660   0.00000  Uiso   1.00
C69    C     0.34043   0.00066   0.02376   0.00000  Uiso   1.00
H70    H     0.41316   0.08090   0.17674   0.00000  Uiso   1.00
H71    H     0.35722   0.89499   0.23372   0.00000  Uiso   1.00
H72    H     0.54158   0.16334   0.18620   0.00000  Uiso   1.00
H73    H     0.33597   0.21793   0.11844   0.00000  Uiso   1.00
H74    H     0.30272   0.63601   0.28406   0.00000  Uiso   1.00
H75    H     0.69146   0.20188   0.18385   0.00000  Uiso   1.00
H76    H     0.25789   0.31700   0.04096   0.00000  Uiso   1.00
H77    H     0.47103   0.67359   0.07781   0.00000  Uiso   1.00
H78    H     0.41825   0.46532   0.12936   0.00000  Uiso   1.00
H79    H     0.60262   0.73368   0.08184   0.00000  Uiso   1.00
H80    H     0.39701   0.78827   0.01408   0.00000  Uiso   1.00
H81    H     0.35227   0.28728   0.19936   0.00000  Uiso   1.00
H82    H     0.74101   0.85315   0.09915   0.00000  Uiso   1.00
H83    H     0.30744   0.96827   0.95626   0.00000  Uiso   1.00
O84    O     0.29176   0.33199   0.27741   0.00000  Uiso   1.00
O85    O     0.80176   0.07440   0.14594   0.00000  Uiso   1.00
O86    O     0.23293   0.22543   0.95847   0.00000  Uiso   1.00
N87    N     0.32161   0.58252   0.25705   0.00000  Uiso   1.00
N88    N     0.68506   0.11156   0.16337   0.00000  Uiso   1.00
N89    N     0.27973   0.21921   0.02977   0.00000  Uiso   1.00
N90    N     0.34827   0.39487   0.21147   0.00000  Uiso   1.00
N91    N     0.71172   0.92391   0.11779   0.00000  Uiso   1.00
N92    N     0.30638   0.03156   0.98419   0.00000  Uiso   1.00
C93    C     0.92642   0.51242   0.84592   0.00000  Uiso   1.00
C94    C     0.90404   0.66991   0.82869   0.00000  Uiso   1.00
C95    C     0.87038   0.69780   0.78880   0.00000  Uiso   1.00
C96    C     0.85434   0.84998   0.77905   0.00000  Uiso   1.00
C97    C     0.81703   0.07629   0.74784   0.00000  Uiso   1.00
C98    C     0.00421   0.52412   0.85450   0.00000  Uiso   1.00
C99    C     0.05477   0.42941   0.83632   0.00000  Uiso   1.00
C100   C     0.12305   0.45886   0.84830   0.00000  Uiso   1.00
C101   C     0.24126   0.45876   0.85720   0.00000  Uiso   1.00
C102   C     0.89249   0.49446   0.89131   0.00000  Uiso   1.00
C103   C     0.84914   0.37480   0.90410   0.00000  Uiso   1.00
C104   C     0.82337   0.37926   0.94708   0.00000  Uiso   1.00
C105   C     0.76812   0.33312   0.01314   0.00000  Uiso   1.00
C106   C     0.95777   0.73309   0.89952   0.00000  Uiso   1.00
C107   C     0.92107   0.78977   0.85780   0.00000  Uiso   1.00
C108   C     0.90507   0.94195   0.84810   0.00000  Uiso   1.00
C109   C     0.87139   0.97006   0.80821   0.00000  Uiso   1.00
C110   C     0.02124   0.64398   0.88361   0.00000  Uiso   1.00
C111   C     0.08946   0.67356   0.89563   0.00000  Uiso   1.00
C112   C     0.14012   0.57894   0.87747   0.00000  Uiso   1.00
C113   C     0.90952   0.61433   0.92043   0.00000  Uiso   1.00
C114   C     0.88382   0.61896   0.96340   0.00000  Uiso   1.00
C115   C     0.84043   0.49934   0.97624   0.00000  Uiso   1.00
H116   H     0.91316   0.41910   0.82326   0.00000  Uiso   1.00
H117   H     0.85722   0.60501   0.76628   0.00000  Uiso   1.00
H118   H     0.04158   0.33666   0.81380   0.00000  Uiso   1.00
H119   H     0.83597   0.28207   0.88156   0.00000  Uiso   1.00
H120   H     0.80272   0.86399   0.71594   0.00000  Uiso   1.00
H121   H     0.19146   0.29812   0.81615   0.00000  Uiso   1.00
H122   H     0.75789   0.18300   0.95904   0.00000  Uiso   1.00
H123   H     0.97103   0.82641   0.92219   0.00000  Uiso   1.00
H124   H     0.91825   0.03468   0.87064   0.00000  Uiso   1.00
H125   H     0.10262   0.76632   0.91816   0.00000  Uiso   1.00
H126   H     0.89701   0.71173   0.98592   0.00000  Uiso   1.00
H127   H     0.85227   0.21272   0.80064   0.00000  Uiso   1.00
H128   H     0.24101   0.64685   0.90085   0.00000  Uiso   1.00
H129   H     0.80744   0.53173   0.04374   0.00000  Uiso   1.00
O130   O     0.79176   0.16801   0.72259   0.00000  Uiso   1.00
O131   O     0.30176   0.42560   0.85406   0.00000  Uiso   1.00
O132   O     0.73293   0.27457   0.04153   0.00000  Uiso   1.00
N133   N     0.82161   0.91748   0.74295   0.00000  Uiso   1.00
N134   N     0.18506   0.38844   0.83663   0.00000  Uiso   1.00
N135   N     0.77973   0.28079   0.97023   0.00000  Uiso   1.00
N136   N     0.84827   0.10513   0.78853   0.00000  Uiso   1.00
N137   N     0.21172   0.57609   0.88221   0.00000  Uiso   1.00
N138   N     0.80638   0.46844   0.01581   0.00000  Uiso   1.00
C139   C     0.57358   0.98758   0.34592   0.00000  Uiso   1.00
C140   C     0.59596   0.83009   0.32869   0.00000  Uiso   1.00
C141   C     0.62962   0.80220   0.28880   0.00000  Uiso   1.00
C142   C     0.64566   0.65002   0.27905   0.00000  Uiso   1.00
C143   C     0.68297   0.42371   0.24784   0.00000  Uiso   1.00
C144   C     0.49579   0.97588   0.35450   0.00000  Uiso   1.00
C145   C     0.44523   0.07059   0.33632   0.00000  Uiso   1.00
C146   C     0.37695   0.04114   0.34830   0.00000  Uiso   1.00
C147   C     0.25874   0.04124   0.35720   0.00000  Uiso   1.00
C148   C     0.60751   0.00554   0.39131   0.00000  Uiso   1.00
C149   C     0.65086   0.12520   0.40410   0.00000  Uiso   1.00
C150   C     0.67663   0.12074   0.44708   0.00000  Uiso   1.00
C151   C     0.73188   0.16688   0.51314   0.00000  Uiso   1.00
C152   C     0.54223   0.76691   0.39952   0.00000  Uiso   1.00
C153   C     0.57893   0.71023   0.35780   0.00000  Uiso   1.00
C154   C     0.59493   0.55805   0.34810   0.00000  Uiso   1.00
C155   C     0.62861   0.52994   0.30821   0.00000  Uiso   1.00
C156   C     0.47876   0.85602   0.38361   0.00000  Uiso   1.00
C157   C     0.41054   0.82644   0.39563   0.00000  Uiso   1.00
C158   C     0.35988   0.92106   0.37747   0.00000  Uiso   1.00
C159   C     0.59048   0.88567   0.42043   0.00000  Uiso   1.00
C160   C     0.61618   0.88104   0.46340   0.00000  Uiso   1.00
C161   C     0.65957   0.00066   0.47624   0.00000  Uiso   1.00
H162   H     0.58684   0.08090   0.32326   0.00000  Uiso   1.00
H163   H     0.64278   0.89499   0.26628   0.00000  Uiso   1.00
H164   H     0.45842   0.16334   0.31380   0.00000  Uiso   1.00
H165   H     0.66403   0.21793   0.38156   0.00000  Uiso   1.00
H166   H     0.69728   0.63601   0.21594   0.00000  Uiso   1.00
H167   H     0.30854   0.20188   0.31615   0.00000  Uiso   1.00
H168   H     0.74211   0.31700   0.45904   0.00000  Uiso   1.00
H169   H     0.52897   0.67359   0.42219   0.00000  Uiso   1.00
H170   H     0.58175   0.46532   0.37064   0.00000  Uiso   1.00
H171   H     0.39738   0.73368   0.41816   0.00000  Uiso   1.00
H172   H     0.60299   0.78827   0.48592   0.00000  Uiso   1.00
H173   H     0.64773   0.28728   0.30064   0.00000  Uiso   1.00
H174   H     0.25899   0.85315   0.40085   0.00000  Uiso   1.00
H175   H     0.69256   0.96827   0.54374   0.00000  Uiso   1.00
O176   O     0.70824   0.33199   0.22259   0.00000  Uiso   1.00
O177   O     0.19824   0.07440   0.35406   0.00000  Uiso   1.00
O178   O     0.76707   0.22543   0.54153   0.00000  Uiso   1.00
N179   N     0.67839   0.58252   0.24295   0.00000  Uiso   1.00
N180   N     0.31494   0.11156   0.33663   0.00000  Uiso   1.00
N181   N     0.72027   0.21921   0.47023   0.00000  Uiso   1.00
N182   N     0.65173   0.39487   0.28853   0.00000  Uiso   1.00
N183   N     0.28828   0.92391   0.38221   0.00000  Uiso   1.00
N184   N     0.69362   0.03156   0.51581   0.00000  Uiso   1.00
C185   C     0.92642   0.48758   0.34592   0.00000  Uiso   1.00
C186   C     0.90404   0.33009   0.32869   0.00000  Uiso   1.00
C187   C     0.87038   0.30220   0.28880   0.00000  Uiso   1.00
C188   C     0.85434   0.15002   0.27905   0.00000  Uiso   1.00
C189   C     0.81703   0.92371   0.24784   0.00000  Uiso   1.00
C190   C     0.00421   0.47588   0.35450   0.00000  Uiso   1.00
C191   C     0.05477   0.57059   0.33632   0.00000  Uiso   1.00
C192   C     0.12305   0.54114   0.34830   0.00000  Uiso   1.00
C193   C     0.24126   0.54124   0.35720   0.00000  Uiso   1.00
C194   C     0.89249   0.50554   0.39131   0.00000  Uiso   1.00
C195   C     0.84914   0.62520   0.40410   0.00000  Uiso   1.00
C196   C     0.82337   0.62074   0.44708   0.00000  Uiso   1.00
C197   C     0.76812   0.66688   0.51314   0.00000  Uiso   1.00
C198   C     0.95777   0.26691   0.39952   0.00000  Uiso   1.00
C199   C     0.92107   0.21023   0.35780   0.00000  Uiso   1.00
C200   C     0.90507   0.05805   0.34810   0.00000  Uiso   1.00
C201   C     0.87139   0.02994   0.30821   0.00000  Uiso   1.00
C202   C     0.02124   0.35602   0.38361   0.00000  Uiso   1.00
C203   C     0.08946   0.32644   0.39563   0.00000  Uiso   1.00
C204   C     0.14012   0.42106   0.37747   0.00000  Uiso   1.00
C205   C     0.90952   0.38567   0.42043   0.00000  Uiso   1.00
C206   C     0.88382   0.38104   0.46340   0.00000  Uiso   1.00
C207   C     0.84043   0.50066   0.47624   0.00000  Uiso   1.00
H208   H     0.91316   0.58090   0.32326   0.00000  Uiso   1.00
H209   H     0.85722   0.39499   0.26628   0.00000  Uiso   1.00
H210   H     0.04158   0.66334   0.31380   0.00000  Uiso   1.00
H211   H     0.83597   0.71793   0.38156   0.00000  Uiso   1.00
H212   H     0.80272   0.13601   0.21594   0.00000  Uiso   1.00
H213   H     0.19146   0.70188   0.31615   0.00000  Uiso   1.00
H214   H     0.75789   0.81700   0.45904   0.00000  Uiso   1.00
H215   H     0.97103   0.17359   0.42219   0.00000  Uiso   1.00
H216   H     0.91825   0.96532   0.37064   0.00000  Uiso   1.00
H217   H     0.10262   0.23368   0.41816   0.00000  Uiso   1.00
H218   H     0.89701   0.28827   0.48592   0.00000  Uiso   1.00
H219   H     0.85227   0.78728   0.30064   0.00000  Uiso   1.00
H220   H     0.24101   0.35315   0.40085   0.00000  Uiso   1.00
H221   H     0.80744   0.46827   0.54374   0.00000  Uiso   1.00
O222   O     0.79176   0.83199   0.22259   0.00000  Uiso   1.00
O223   O     0.30176   0.57440   0.35406   0.00000  Uiso   1.00
O224   O     0.73293   0.72543   0.54153   0.00000  Uiso   1.00
N225   N     0.82161   0.08252   0.24295   0.00000  Uiso   1.00
N226   N     0.18506   0.61156   0.33663   0.00000  Uiso   1.00
N227   N     0.77973   0.71921   0.47023   0.00000  Uiso   1.00
N228   N     0.84827   0.89487   0.28853   0.00000  Uiso   1.00
N229   N     0.21172   0.42391   0.38221   0.00000  Uiso   1.00
N230   N     0.80638   0.53156   0.51581   0.00000  Uiso   1.00
C231   C     0.57358   0.01242   0.84592   0.00000  Uiso   1.00
C232   C     0.59596   0.16991   0.82869   0.00000  Uiso   1.00
C233   C     0.62962   0.19780   0.78880   0.00000  Uiso   1.00
C234   C     0.64566   0.34998   0.77905   0.00000  Uiso   1.00
C235   C     0.68297   0.57629   0.74784   0.00000  Uiso   1.00
C236   C     0.49579   0.02412   0.85450   0.00000  Uiso   1.00
C237   C     0.44523   0.92941   0.83632   0.00000  Uiso   1.00
C238   C     0.37695   0.95886   0.84830   0.00000  Uiso   1.00
C239   C     0.25874   0.95876   0.85720   0.00000  Uiso   1.00
C240   C     0.60751   0.99446   0.89131   0.00000  Uiso   1.00
C241   C     0.65086   0.87480   0.90410   0.00000  Uiso   1.00
C242   C     0.67663   0.87926   0.94708   0.00000  Uiso   1.00
C243   C     0.73188   0.83312   0.01314   0.00000  Uiso   1.00
C244   C     0.54223   0.23309   0.89952   0.00000  Uiso   1.00
C245   C     0.57893   0.28977   0.85780   0.00000  Uiso   1.00
C246   C     0.59493   0.44195   0.84810   0.00000  Uiso   1.00
C247   C     0.62861   0.47006   0.80821   0.00000  Uiso   1.00
C248   C     0.47876   0.14398   0.88361   0.00000  Uiso   1.00
C249   C     0.41054   0.17356   0.89563   0.00000  Uiso   1.00
C250   C     0.35988   0.07894   0.87747   0.00000  Uiso   1.00
C251   C     0.59048   0.11433   0.92043   0.00000  Uiso   1.00
C252   C     0.61618   0.11896   0.96340   0.00000  Uiso   1.00
C253   C     0.65957   0.99934   0.97624   0.00000  Uiso   1.00
H254   H     0.58684   0.91910   0.82326   0.00000  Uiso   1.00
H255   H     0.64278   0.10501   0.76628   0.00000  Uiso   1.00
H256   H     0.45842   0.83666   0.81380   0.00000  Uiso   1.00
H257   H     0.66403   0.78207   0.88156   0.00000  Uiso   1.00
H258   H     0.69728   0.36399   0.71594   0.00000  Uiso   1.00
H259   H     0.30854   0.79812   0.81615   0.00000  Uiso   1.00
H260   H     0.74211   0.68300   0.95904   0.00000  Uiso   1.00
H261   H     0.52897   0.32641   0.92219   0.00000  Uiso   1.00
H262   H     0.58175   0.53468   0.87064   0.00000  Uiso   1.00
H263   H     0.39738   0.26632   0.91816   0.00000  Uiso   1.00
H264   H     0.60299   0.21173   0.98592   0.00000  Uiso   1.00
H265   H     0.64773   0.71272   0.80064   0.00000  Uiso   1.00
H266   H     0.25899   0.14685   0.90085   0.00000  Uiso   1.00
H267   H     0.69256   0.03173   0.04374   0.00000  Uiso   1.00
O268   O     0.70824   0.66801   0.72259   0.00000  Uiso   1.00
O269   O     0.19824   0.92560   0.85406   0.00000  Uiso   1.00
O270   O     0.76707   0.77457   0.04153   0.00000  Uiso   1.00
N271   N     0.67839   0.41748   0.74295   0.00000  Uiso   1.00
N272   N     0.31494   0.88844   0.83663   0.00000  Uiso   1.00
N273   N     0.72027   0.78079   0.97023   0.00000  Uiso   1.00
N274   N     0.65173   0.60513   0.78853   0.00000  Uiso   1.00
N275   N     0.28828   0.07609   0.88221   0.00000  Uiso   1.00
N276   N     0.69362   0.96844   0.01581   0.00000  Uiso   1.00
C277   C     0.07358   0.48758   0.15408   0.00000  Uiso   1.00
C278   C     0.09596   0.33009   0.17131   0.00000  Uiso   1.00
C279   C     0.12962   0.30220   0.21120   0.00000  Uiso   1.00
C280   C     0.14566   0.15002   0.22095   0.00000  Uiso   1.00
C281   C     0.18297   0.92371   0.25216   0.00000  Uiso   1.00
C282   C     0.99579   0.47588   0.14550   0.00000  Uiso   1.00
C283   C     0.94523   0.57059   0.16368   0.00000  Uiso   1.00
C284   C     0.87695   0.54114   0.15170   0.00000  Uiso   1.00
C285   C     0.75874   0.54124   0.14280   0.00000  Uiso   1.00
C286   C     0.10751   0.50554   0.10869   0.00000  Uiso   1.00
C287   C     0.15086   0.62520   0.09590   0.00000  Uiso   1.00
C288   C     0.17663   0.62074   0.05292   0.00000  Uiso   1.00
C289   C     0.23188   0.66688   0.98686   0.00000  Uiso   1.00
C290   C     0.04223   0.26691   0.10048   0.00000  Uiso   1.00
C291   C     0.07893   0.21023   0.14220   0.00000  Uiso   1.00
C292   C     0.09493   0.05805   0.15190   0.00000  Uiso   1.00
C293   C     0.12861   0.02994   0.19179   0.00000  Uiso   1.00
C294   C     0.97876   0.35602   0.11639   0.00000  Uiso   1.00
C295   C     0.91054   0.32644   0.10437   0.00000  Uiso   1.00
C296   C     0.85988   0.42106   0.12253   0.00000  Uiso   1.00
C297   C     0.09048   0.38567   0.07957   0.00000  Uiso   1.00
C298   C     0.11618   0.38104   0.03660   0.00000  Uiso   1.00
C299   C     0.15957   0.50066   0.02376   0.00000  Uiso   1.00
H300   H     0.08684   0.58090   0.17674   0.00000  Uiso   1.00
H301   H     0.14278   0.39499   0.23372   0.00000  Uiso   1.00
H302   H     0.95842   0.66334   0.18620   0.00000  Uiso   1.00
H303   H     0.16403   0.71793   0.11844   0.00000  Uiso   1.00
H304   H     0.19728   0.13601   0.28406   0.00000  Uiso   1.00
H305   H     0.80854   0.70188   0.18385   0.00000  Uiso   1.00
H306   H     0.24211   0.81700   0.04096   0.00000  Uiso   1.00
H307   H     0.02897   0.17359   0.07781   0.00000  Uiso   1.00
H308   H     0.08175   0.96532   0.12936   0.00000  Uiso   1.00
H309   H     0.89738   0.23368   0.08184   0.00000  Uiso   1.00
H310   H     0.10299   0.28827   0.01408   0.00000  Uiso   1.00
H311   H     0.14773   0.78728   0.19936   0.00000  Uiso   1.00
H312   H     0.75899   0.35315   0.09915   0.00000  Uiso   1.00
H313   H     0.19256   0.46827   0.95626   0.00000  Uiso   1.00
O314   O     0.20824   0.83199   0.27741   0.00000  Uiso   1.00
O315   O     0.69824   0.57440   0.14594   0.00000  Uiso   1.00
O316   O     0.26707   0.72543   0.95847   0.00000  Uiso   1.00
N317   N     0.17839   0.08252   0.25705   0.00000  Uiso   1.00
N318   N     0.81494   0.61156   0.16337   0.00000  Uiso   1.00
N319   N     0.22027   0.71921   0.02977   0.00000  Uiso   1.00
N320   N     0.15173   0.89487   0.21147   0.00000  Uiso   1.00
N321   N     0.78828   0.42391   0.11779   0.00000  Uiso   1.00
N322   N     0.19362   0.53156   0.98419   0.00000  Uiso   1.00
C323   C     0.42642   0.01242   0.65408   0.00000  Uiso   1.00
C324   C     0.40404   0.16991   0.67131   0.00000  Uiso   1.00
C325   C     0.37038   0.19780   0.71120   0.00000  Uiso   1.00
C326   C     0.35434   0.34998   0.72095   0.00000  Uiso   1.00
C327   C     0.31703   0.57629   0.75216   0.00000  Uiso   1.00
C328   C     0.50421   0.02412   0.64550   0.00000  Uiso   1.00
C329   C     0.55477   0.92941   0.66368   0.00000  Uiso   1.00
C330   C     0.62305   0.95886   0.65170   0.00000  Uiso   1.00
C331   C     0.74126   0.95876   0.64280   0.00000  Uiso   1.00
C332   C     0.39249   0.99446   0.60869   0.00000  Uiso   1.00
C333   C     0.34914   0.87480   0.59590   0.00000  Uiso   1.00
C334   C     0.32337   0.87926   0.55292   0.00000  Uiso   1.00
C335   C     0.26812   0.83312   0.48686   0.00000  Uiso   1.00
C336   C     0.45777   0.23309   0.60048   0.00000  Uiso   1.00
C337   C     0.42107   0.28977   0.64220   0.00000  Uiso   1.00
C338   C     0.40507   0.44195   0.65190   0.00000  Uiso   1.00
C339   C     0.37139   0.47006   0.69179   0.00000  Uiso   1.00
C340   C     0.52124   0.14398   0.61639   0.00000  Uiso   1.00
C341   C     0.58946   0.17356   0.60437   0.00000  Uiso   1.00
C342   C     0.64012   0.07894   0.62253   0.00000  Uiso   1.00
C343   C     0.40952   0.11433   0.57957   0.00000  Uiso   1.00
C344   C     0.38382   0.11896   0.53660   0.00000  Uiso   1.00
C345   C     0.34043   0.99934   0.52376   0.00000  Uiso   1.00
H346   H     0.41316   0.91910   0.67674   0.00000  Uiso   1.00
H347   H     0.35722   0.10501   0.73372   0.00000  Uiso   1.00
H348   H     0.54158   0.83666   0.68620   0.00000  Uiso   1.00
H349   H     0.33597   0.78207   0.61844   0.00000  Uiso   1.00
H350   H     0.30272   0.36399   0.78406   0.00000  Uiso   1.00
H351   H     0.69146   0.79812   0.68385   0.00000  Uiso   1.00
H352   H     0.25789   0.68300   0.54096   0.00000  Uiso   1.00
H353   H     0.47103   0.32641   0.57781   0.00000  Uiso   1.00
H354   H     0.41825   0.53468   0.62936   0.00000  Uiso   1.00
H355   H     0.60262   0.26632   0.58184   0.00000  Uiso   1.00
H356   H     0.39701   0.21173   0.51408   0.00000  Uiso   1.00
H357   H     0.35227   0.71272   0.69936   0.00000  Uiso   1.00
H358   H     0.74101   0.14685   0.59915   0.00000  Uiso   1.00
H359   H     0.30744   0.03173   0.45626   0.00000  Uiso   1.00
O360   O     0.29176   0.66801   0.77741   0.00000  Uiso   1.00
O361   O     0.80176   0.92560   0.64594   0.00000  Uiso   1.00
O362   O     0.23293   0.77457   0.45847   0.00000  Uiso   1.00
N363   N     0.32161   0.41748   0.75705   0.00000  Uiso   1.00
N364   N     0.68506   0.88844   0.66337   0.00000  Uiso   1.00
N365   N     0.27973   0.78079   0.52977   0.00000  Uiso   1.00
N366   N     0.34827   0.60513   0.71147   0.00000  Uiso   1.00
N367   N     0.71172   0.07609   0.61779   0.00000  Uiso   1.00
N368   N     0.30638   0.96844   0.48419   0.00000  Uiso   1.00
