data_job_05466
_audit_creation_date              2018-12-19
_audit_creation_method            'Materials Studio'
_symmetry_space_group_name_H-M    'P1'
_symmetry_Int_Tables_number       1
_symmetry_cell_setting            triclinic
loop_
_symmetry_equiv_pos_as_xyz
  x,y,z
_cell_length_a                    12.3129
_cell_length_b                    12.3129
_cell_length_c                    15.7960
_cell_angle_alpha                 90.0000
_cell_angle_beta                  90.0000
_cell_angle_gamma                 120.0000
loop_
_atom_site_label
_atom_site_type_symbol
_atom_site_fract_x
_atom_site_fract_y
_atom_site_fract_z
_atom_site_U_iso_or_equiv
_atom_site_adp_type
_atom_site_occupancy
C1     C     0.16625   0.93841   0.62240   0.00000  Uiso   1.00
C2     C     0.24940   0.07688   0.60085   0.00000  Uiso   1.00
C3     C     0.33153   0.12435   0.53289   0.00000  Uiso   1.00
C4     C     0.39926   0.25385   0.52410   0.00000  Uiso   1.00
C5     C     0.53055   0.45684   0.48197   0.00000  Uiso   1.00
C6     C     0.19925   0.92310   0.71300   0.00000  Uiso   1.00
C7     C     0.23920   0.84126   0.73933   0.00000  Uiso   1.00
C8     C     0.26470   0.84131   0.82495   0.00000  Uiso   1.00
C9     C     0.31804   0.80549   0.95695   0.00000  Uiso   1.00
C10    C     0.03244   0.91501   0.62548   0.00000  Uiso   1.00
C11    C     0.93212   0.82633   0.57823   0.00000  Uiso   1.00
C12    C     0.81717   0.81954   0.59018   0.00000  Uiso   1.00
C13    C     0.61151   0.77115   0.58628   0.00000  Uiso   1.00
C14    C     0.14046   0.08399   0.72765   0.00000  Uiso   1.00
C15    C     0.23539   0.15595   0.65803   0.00000  Uiso   1.00
C16    C     0.30300   0.28542   0.64934   0.00000  Uiso   1.00
C17    C     0.38523   0.33307   0.58137   0.00000  Uiso   1.00
C18    C     0.18524   0.00218   0.77017   0.00000  Uiso   1.00
C19    C     0.21067   0.00234   0.85578   0.00000  Uiso   1.00
C20    C     0.25067   0.92053   0.88223   0.00000  Uiso   1.00
C21    C     0.01843   0.99408   0.68265   0.00000  Uiso   1.00
C22    C     0.90360   0.98742   0.69468   0.00000  Uiso   1.00
C23    C     0.80313   0.89876   0.64746   0.00000  Uiso   1.00
H24    H     0.17716   0.87684   0.57789   0.00000  Uiso   1.00
H25    H     0.34236   0.06312   0.48866   0.00000  Uiso   1.00
H26    H     0.25002   0.78008   0.69507   0.00000  Uiso   1.00
H27    H     0.94300   0.76516   0.53399   0.00000  Uiso   1.00
H28    H     0.51937   0.30452   0.41496   0.00000  Uiso   1.00
H29    H     0.32464   0.70767   0.85019   0.00000  Uiso   1.00
H30    H     0.67722   0.67621   0.51053   0.00000  Uiso   1.00
H31    H     0.12955   0.14556   0.77217   0.00000  Uiso   1.00
H32    H     0.29215   0.34659   0.69359   0.00000  Uiso   1.00
H33    H     0.19982   0.06354   0.90000   0.00000  Uiso   1.00
H34    H     0.89279   0.04862   0.73893   0.00000  Uiso   1.00
H35    H     0.47862   0.53460   0.58129   0.00000  Uiso   1.00
H36    H     0.28389   0.93774   0.01653   0.00000  Uiso   1.00
H37    H     0.63647   0.90628   0.67687   0.00000  Uiso   1.00
O38    O     0.60684   0.54696   0.44295   0.00000  Uiso   1.00
O39    O     0.35135   0.76389   0.01396   0.00000  Uiso   1.00
O40    O     0.50194   0.72263   0.56833   0.00000  Uiso   1.00
N41    N     0.48745   0.33108   0.46488   0.00000  Uiso   1.00
N42    N     0.30541   0.77308   0.87179   0.00000  Uiso   1.00
N43    N     0.70011   0.74364   0.55426   0.00000  Uiso   1.00
N44    N     0.46552   0.45488   0.55438   0.00000  Uiso   1.00
N45    N     0.28348   0.89688   0.96130   0.00000  Uiso   1.00
N46    N     0.67819   0.86744   0.64376   0.00000  Uiso   1.00
C47    C     0.06159   0.22784   0.28906   0.00000  Uiso   1.00
C48    C     0.92312   0.17252   0.26752   0.00000  Uiso   1.00
C49    C     0.87565   0.20719   0.19955   0.00000  Uiso   1.00
C50    C     0.74615   0.14541   0.19077   0.00000  Uiso   1.00
C51    C     0.54316   0.07371   0.14864   0.00000  Uiso   1.00
C52    C     0.07690   0.27614   0.37967   0.00000  Uiso   1.00
C53    C     0.15874   0.39794   0.40599   0.00000  Uiso   1.00
C54    C     0.15869   0.42339   0.49162   0.00000  Uiso   1.00
C55    C     0.19451   0.51255   0.62361   0.00000  Uiso   1.00
C56    C     0.08499   0.11743   0.29214   0.00000  Uiso   1.00
C57    C     0.17367   0.10579   0.24490   0.00000  Uiso   1.00
C58    C     0.18046   0.99762   0.25685   0.00000  Uiso   1.00
C59    C     0.22885   0.84036   0.25295   0.00000  Uiso   1.00
C60    C     0.91601   0.05647   0.39432   0.00000  Uiso   1.00
C61    C     0.84405   0.07944   0.32469   0.00000  Uiso   1.00
C62    C     0.71458   0.01758   0.31601   0.00000  Uiso   1.00
C63    C     0.66693   0.05215   0.24804   0.00000  Uiso   1.00
C64    C     0.99782   0.18307   0.43684   0.00000  Uiso   1.00
C65    C     0.99766   0.20834   0.52245   0.00000  Uiso   1.00
C66    C     0.07947   0.33014   0.54890   0.00000  Uiso   1.00
C67    C     0.00592   0.02435   0.34931   0.00000  Uiso   1.00
C68    C     0.01258   0.91618   0.36135   0.00000  Uiso   1.00
C69    C     0.10124   0.90437   0.31412   0.00000  Uiso   1.00
H70    H     0.12316   0.30031   0.24456   0.00000  Uiso   1.00
H71    H     0.93688   0.27924   0.15533   0.00000  Uiso   1.00
H72    H     0.21992   0.46995   0.36174   0.00000  Uiso   1.00
H73    H     0.23484   0.17784   0.20066   0.00000  Uiso   1.00
H74    H     0.69548   0.21485   0.08163   0.00000  Uiso   1.00
H75    H     0.29233   0.61697   0.51686   0.00000  Uiso   1.00
H76    H     0.32379   0.00101   0.17720   0.00000  Uiso   1.00
H77    H     0.85444   0.98400   0.43883   0.00000  Uiso   1.00
H78    H     0.65341   0.94556   0.36026   0.00000  Uiso   1.00
H79    H     0.93646   0.13628   0.56667   0.00000  Uiso   1.00
H80    H     0.95138   0.84417   0.40559   0.00000  Uiso   1.00
H81    H     0.46540   0.94403   0.24796   0.00000  Uiso   1.00
H82    H     0.06226   0.34615   0.68319   0.00000  Uiso   1.00
H83    H     0.09372   0.73019   0.34353   0.00000  Uiso   1.00
O84    O     0.45304   0.05989   0.10962   0.00000  Uiso   1.00
O85    O     0.23611   0.58745   0.68062   0.00000  Uiso   1.00
O86    O     0.27737   0.77932   0.23500   0.00000  Uiso   1.00
N87    N     0.66892   0.15637   0.13155   0.00000  Uiso   1.00
N88    N     0.22692   0.53234   0.53846   0.00000  Uiso   1.00
N89    N     0.25636   0.95647   0.22093   0.00000  Uiso   1.00
N90    N     0.54512   0.01064   0.22105   0.00000  Uiso   1.00
N91    N     0.10312   0.38661   0.62796   0.00000  Uiso   1.00
N92    N     0.13256   0.81075   0.31043   0.00000  Uiso   1.00
C93    C     0.77216   0.83375   0.95573   0.00000  Uiso   1.00
C94    C     0.82748   0.75060   0.93418   0.00000  Uiso   1.00
C95    C     0.79281   0.66847   0.86622   0.00000  Uiso   1.00
C96    C     0.85459   0.60074   0.85743   0.00000  Uiso   1.00
C97    C     0.92629   0.46945   0.81531   0.00000  Uiso   1.00
C98    C     0.72386   0.80075   0.04633   0.00000  Uiso   1.00
C99    C     0.60206   0.76080   0.07266   0.00000  Uiso   1.00
C100   C     0.57661   0.73530   0.15829   0.00000  Uiso   1.00
C101   C     0.48745   0.68196   0.29028   0.00000  Uiso   1.00
C102   C     0.88257   0.96756   0.95881   0.00000  Uiso   1.00
C103   C     0.89421   0.06788   0.91156   0.00000  Uiso   1.00
C104   C     0.00238   0.18283   0.92352   0.00000  Uiso   1.00
C105   C     0.15964   0.38849   0.91962   0.00000  Uiso   1.00
C106   C     0.94353   0.85954   0.06099   0.00000  Uiso   1.00
C107   C     0.92056   0.76461   0.99136   0.00000  Uiso   1.00
C108   C     0.98242   0.69700   0.98267   0.00000  Uiso   1.00
C109   C     0.94785   0.61477   0.91471   0.00000  Uiso   1.00
C110   C     0.81693   0.81476   0.10350   0.00000  Uiso   1.00
C111   C     0.79166   0.78933   0.18911   0.00000  Uiso   1.00
C112   C     0.66986   0.74933   0.21556   0.00000  Uiso   1.00
C113   C     0.97565   0.98157   0.01598   0.00000  Uiso   1.00
C114   C     0.08382   0.09640   0.02801   0.00000  Uiso   1.00
C115   C     0.09563   0.19687   0.98079   0.00000  Uiso   1.00
H116   H     0.69969   0.82284   0.91122   0.00000  Uiso   1.00
H117   H     0.72076   0.65764   0.82199   0.00000  Uiso   1.00
H118   H     0.53005   0.74998   0.02840   0.00000  Uiso   1.00
H119   H     0.82216   0.05700   0.86733   0.00000  Uiso   1.00
H120   H     0.78515   0.48063   0.74829   0.00000  Uiso   1.00
H121   H     0.38303   0.67536   0.18352   0.00000  Uiso   1.00
H122   H     0.99899   0.32278   0.84387   0.00000  Uiso   1.00
H123   H     0.01600   0.87045   0.10550   0.00000  Uiso   1.00
H124   H     0.05444   0.70785   0.02693   0.00000  Uiso   1.00
H125   H     0.86372   0.80018   0.23334   0.00000  Uiso   1.00
H126   H     0.15583   0.10721   0.07226   0.00000  Uiso   1.00
H127   H     0.05597   0.52138   0.91463   0.00000  Uiso   1.00
H128   H     0.65385   0.71611   0.34986   0.00000  Uiso   1.00
H129   H     0.26981   0.36353   0.01020   0.00000  Uiso   1.00
O130   O     0.94011   0.39316   0.77628   0.00000  Uiso   1.00
O131   O     0.41255   0.64865   0.34729   0.00000  Uiso   1.00
O132   O     0.22068   0.49806   0.90166   0.00000  Uiso   1.00
N133   N     0.84363   0.51255   0.79821   0.00000  Uiso   1.00
N134   N     0.46766   0.69459   0.20513   0.00000  Uiso   1.00
N135   N     0.04353   0.29989   0.88759   0.00000  Uiso   1.00
N136   N     0.98936   0.53448   0.88772   0.00000  Uiso   1.00
N137   N     0.61339   0.71652   0.29463   0.00000  Uiso   1.00
N138   N     0.18925   0.32181   0.97709   0.00000  Uiso   1.00
