data_job_04600
_audit_creation_date              2018-12-19
_audit_creation_method            'Materials Studio'
_symmetry_space_group_name_H-M    'P1'
_symmetry_Int_Tables_number       1
_symmetry_cell_setting            triclinic
loop_
_symmetry_equiv_pos_as_xyz
  x,y,z
_cell_length_a                    19.7278
_cell_length_b                    18.6147
_cell_length_c                    12.5107
_cell_angle_alpha                 90.0000
_cell_angle_beta                  88.2838
_cell_angle_gamma                 90.0000
loop_
_atom_site_label
_atom_site_type_symbol
_atom_site_fract_x
_atom_site_fract_y
_atom_site_fract_z
_atom_site_U_iso_or_equiv
_atom_site_adp_type
_atom_site_occupancy
C1     C     0.31101   0.79490   0.21046   0.00000  Uiso   1.00
C2     C     0.24653   0.83941   0.22542   0.00000  Uiso   1.00
C3     C     0.24130   0.91297   0.20967   0.00000  Uiso   1.00
C4     C     0.17783   0.94367   0.22760   0.00000  Uiso   1.00
C5     C     0.08626   0.01909   0.24593   0.00000  Uiso   1.00
C6     C     0.32113   0.75680   0.31671   0.00000  Uiso   1.00
C7     C     0.37863   0.76090   0.37769   0.00000  Uiso   1.00
C8     C     0.37796   0.72204   0.47245   0.00000  Uiso   1.00
C9     C     0.40223   0.66917   0.63246   0.00000  Uiso   1.00
C10    C     0.29452   0.73621   0.13029   0.00000  Uiso   1.00
C11    C     0.32965   0.72298   0.03454   0.00000  Uiso   1.00
C12    C     0.30658   0.66678   0.97236   0.00000  Uiso   1.00
C13    C     0.28953   0.58193   0.84292   0.00000  Uiso   1.00
C14    C     0.20761   0.71860   0.27031   0.00000  Uiso   1.00
C15    C     0.19037   0.79796   0.25793   0.00000  Uiso   1.00
C16    C     0.12689   0.82855   0.27588   0.00000  Uiso   1.00
C17    C     0.12156   0.90215   0.26016   0.00000  Uiso   1.00
C18    C     0.26497   0.71535   0.34921   0.00000  Uiso   1.00
C19    C     0.26422   0.67648   0.44390   0.00000  Uiso   1.00
C20    C     0.32170   0.68053   0.50502   0.00000  Uiso   1.00
C21    C     0.23835   0.69476   0.16279   0.00000  Uiso   1.00
C22    C     0.21524   0.63857   0.10075   0.00000  Uiso   1.00
C23    C     0.25032   0.62526   0.00492   0.00000  Uiso   1.00
H24    H     0.35474   0.82716   0.18516   0.00000  Uiso   1.00
H25    H     0.28477   0.94503   0.18452   0.00000  Uiso   1.00
H26    H     0.42208   0.79297   0.35251   0.00000  Uiso   1.00
H27    H     0.37311   0.75506   0.00941   0.00000  Uiso   1.00
H28    H     0.18244   0.05743   0.19819   0.00000  Uiso   1.00
H29    H     0.47197   0.73679   0.55237   0.00000  Uiso   1.00
H30    H     0.36870   0.65685   0.82888   0.00000  Uiso   1.00
H31    H     0.16388   0.68633   0.29562   0.00000  Uiso   1.00
H32    H     0.08344   0.79647   0.30104   0.00000  Uiso   1.00
H33    H     0.22075   0.64441   0.46903   0.00000  Uiso   1.00
H34    H     0.17177   0.60650   0.12593   0.00000  Uiso   1.00
H35    H     0.01903   0.93685   0.29276   0.00000  Uiso   1.00
H36    H     0.30856   0.61621   0.64695   0.00000  Uiso   1.00
H37    H     0.20529   0.53627   0.92346   0.00000  Uiso   1.00
O38    O     0.05126   0.07214   0.24708   0.00000  Uiso   1.00
O39    O     0.43112   0.65146   0.71175   0.00000  Uiso   1.00
O40    O     0.29563   0.54659   0.76255   0.00000  Uiso   1.00
N41    N     0.15502   0.01393   0.21968   0.00000  Uiso   1.00
N42    N     0.42571   0.71416   0.55083   0.00000  Uiso   1.00
N43    N     0.32917   0.63941   0.87444   0.00000  Uiso   1.00
N44    N     0.06709   0.94905   0.27057   0.00000  Uiso   1.00
N45    N     0.33778   0.64928   0.60172   0.00000  Uiso   1.00
N46    N     0.24124   0.57453   0.92533   0.00000  Uiso   1.00
C47    C     0.17445   0.18869   0.43171   0.00000  Uiso   1.00
C48    C     0.23818   0.14375   0.44593   0.00000  Uiso   1.00
C49    C     0.24291   0.06981   0.43362   0.00000  Uiso   1.00
C50    C     0.30571   0.03875   0.45017   0.00000  Uiso   1.00
C51    C     0.39614   0.96266   0.46808   0.00000  Uiso   1.00
C52    C     0.16270   0.22929   0.53649   0.00000  Uiso   1.00
C53    C     0.10396   0.22728   0.60031   0.00000  Uiso   1.00
C54    C     0.10322   0.26825   0.69308   0.00000  Uiso   1.00
C55    C     0.07644   0.32500   0.85154   0.00000  Uiso   1.00
C56    C     0.19315   0.24533   0.34785   0.00000  Uiso   1.00
C57    C     0.16000   0.25682   0.25305   0.00000  Uiso   1.00
C58    C     0.18490   0.31130   0.18701   0.00000  Uiso   1.00
C59    C     0.20540   0.39295   0.05257   0.00000  Uiso   1.00
C60    C     0.27758   0.26501   0.48299   0.00000  Uiso   1.00
C61    C     0.29419   0.18521   0.47379   0.00000  Uiso   1.00
C62    C     0.35701   0.15425   0.49036   0.00000  Uiso   1.00
C63    C     0.36183   0.08028   0.47807   0.00000  Uiso   1.00
C64    C     0.21871   0.27075   0.56435   0.00000  Uiso   1.00
C65    C     0.21806   0.31173   0.65705   0.00000  Uiso   1.00
C66    C     0.15934   0.30978   0.72099   0.00000  Uiso   1.00
C67    C     0.24917   0.28679   0.37570   0.00000  Uiso   1.00
C68    C     0.27411   0.34126   0.30979   0.00000  Uiso   1.00
C69    C     0.24101   0.35283   0.21492   0.00000  Uiso   1.00
H70    H     0.13084   0.15641   0.41002   0.00000  Uiso   1.00
H71    H     0.19954   0.03774   0.41208   0.00000  Uiso   1.00
H72    H     0.06062   0.19520   0.57873   0.00000  Uiso   1.00
H73    H     0.11666   0.22473   0.23153   0.00000  Uiso   1.00
H74    H     0.30041   0.92446   0.42667   0.00000  Uiso   1.00
H75    H     0.00747   0.25648   0.77805   0.00000  Uiso   1.00
H76    H     0.12564   0.31875   0.04591   0.00000  Uiso   1.00
H77    H     0.32119   0.29729   0.50468   0.00000  Uiso   1.00
H78    H     0.40035   0.18635   0.51192   0.00000  Uiso   1.00
H79    H     0.26142   0.34381   0.67857   0.00000  Uiso   1.00
H80    H     0.31746   0.37333   0.33137   0.00000  Uiso   1.00
H81    H     0.46339   0.04507   0.50771   0.00000  Uiso   1.00
H82    H     0.17044   0.37710   0.85909   0.00000  Uiso   1.00
H83    H     0.28862   0.43936   0.12695   0.00000  Uiso   1.00
O84    O     0.43053   0.90924   0.47028   0.00000  Uiso   1.00
O85    O     0.04619   0.34485   0.93126   0.00000  Uiso   1.00
O86    O     0.20123   0.42654   0.97071   0.00000  Uiso   1.00
N87    N     0.32791   0.96807   0.44473   0.00000  Uiso   1.00
N88    N     0.05403   0.27848   0.77325   0.00000  Uiso   1.00
N89    N     0.16450   0.33671   0.08878   0.00000  Uiso   1.00
N90    N     0.41561   0.03297   0.48834   0.00000  Uiso   1.00
N91    N     0.14173   0.34338   0.81686   0.00000  Uiso   1.00
N92    N     0.25219   0.40161   0.13238   0.00000  Uiso   1.00
C93    C     0.57005   0.44187   0.07918   0.00000  Uiso   1.00
C94    C     0.61630   0.50646   0.05945   0.00000  Uiso   1.00
C95    C     0.68629   0.50688   0.06780   0.00000  Uiso   1.00
C96    C     0.71940   0.57135   0.04649   0.00000  Uiso   1.00
C97    C     0.79664   0.66222   0.02015   0.00000  Uiso   1.00
C98    C     0.53081   0.43194   0.97705   0.00000  Uiso   1.00
C99    C     0.52891   0.36970   0.91613   0.00000  Uiso   1.00
C100   C     0.49004   0.37145   0.82546   0.00000  Uiso   1.00
C101   C     0.43452   0.34662   0.67124   0.00000  Uiso   1.00
C102   C     0.51805   0.46517   0.16492   0.00000  Uiso   1.00
C103   C     0.50540   0.43086   0.26197   0.00000  Uiso   1.00
C104   C     0.45578   0.46058   0.32947   0.00000  Uiso   1.00
C105   C     0.38044   0.48734   0.46695   0.00000  Uiso   1.00
C106   C     0.50440   0.55563   0.02648   0.00000  Uiso   1.00
C107   C     0.58064   0.56825   0.03082   0.00000  Uiso   1.00
C108   C     0.61365   0.63274   0.00949   0.00000  Uiso   1.00
C109   C     0.68368   0.63325   0.01782   0.00000  Uiso   1.00
C110   C     0.49515   0.49373   0.94842   0.00000  Uiso   1.00
C111   C     0.45627   0.49557   0.85782   0.00000  Uiso   1.00
C112   C     0.45432   0.43335   0.79678   0.00000  Uiso   1.00
C113   C     0.48239   0.52696   0.13630   0.00000  Uiso   1.00
C114   C     0.43277   0.55673   0.20366   0.00000  Uiso   1.00
C115   C     0.42005   0.52248   0.30079   0.00000  Uiso   1.00
H116   H     0.59781   0.39377   0.10146   0.00000  Uiso   1.00
H117   H     0.71387   0.45904   0.08995   0.00000  Uiso   1.00
H118   H     0.55650   0.32189   0.93831   0.00000  Uiso   1.00
H119   H     0.53301   0.38305   0.28409   0.00000  Uiso   1.00
H120   H     0.82681   0.55866   0.06452   0.00000  Uiso   1.00
H121   H     0.49499   0.26946   0.74481   0.00000  Uiso   1.00
H122   H     0.44544   0.39842   0.47395   0.00000  Uiso   1.00
H123   H     0.47663   0.60374   0.00419   0.00000  Uiso   1.00
H124   H     0.58604   0.68055   0.98734   0.00000  Uiso   1.00
H125   H     0.42868   0.54339   0.83570   0.00000  Uiso   1.00
H126   H     0.40518   0.60455   0.18148   0.00000  Uiso   1.00
H127   H     0.72307   0.73844   0.98123   0.00000  Uiso   1.00
H128   H     0.39124   0.44924   0.66152   0.00000  Uiso   1.00
H129   H     0.34169   0.57819   0.39066   0.00000  Uiso   1.00
O130   O     0.84910   0.69528   0.01352   0.00000  Uiso   1.00
O131   O     0.41375   0.31586   0.59407   0.00000  Uiso   1.00
O132   O     0.34875   0.48504   0.55069   0.00000  Uiso   1.00
N133   N     0.78738   0.59043   0.04726   0.00000  Uiso   1.00
N134   N     0.47715   0.32005   0.74833   0.00000  Uiso   1.00
N135   N     0.43081   0.44060   0.43001   0.00000  Uiso   1.00
N136   N     0.73156   0.68717   0.00244   0.00000  Uiso   1.00
N137   N     0.42133   0.41679   0.70351   0.00000  Uiso   1.00
N138   N     0.37499   0.53734   0.38519   0.00000  Uiso   1.00
C139   C     0.92920   0.54235   0.29202   0.00000  Uiso   1.00
C140   C     0.88393   0.47709   0.27575   0.00000  Uiso   1.00
C141   C     0.81395   0.47545   0.29046   0.00000  Uiso   1.00
C142   C     0.78182   0.41054   0.27142   0.00000  Uiso   1.00
C143   C     0.70596   0.31850   0.25106   0.00000  Uiso   1.00
C144   C     0.96843   0.55343   0.18643   0.00000  Uiso   1.00
C145   C     0.96950   0.61599   0.12605   0.00000  Uiso   1.00
C146   C     0.00851   0.61534   0.03183   0.00000  Uiso   1.00
C147   C     0.06388   0.64184   0.87284   0.00000  Uiso   1.00
C148   C     0.98142   0.51951   0.37278   0.00000  Uiso   1.00
C149   C     0.99343   0.55355   0.46907   0.00000  Uiso   1.00
C150   C     0.04340   0.52435   0.53173   0.00000  Uiso   1.00
C151   C     0.11893   0.49819   0.66206   0.00000  Uiso   1.00
C152   C     0.99661   0.42996   0.23206   0.00000  Uiso   1.00
C153   C     0.92055   0.41605   0.24318   0.00000  Uiso   1.00
C154   C     0.88852   0.35111   0.22412   0.00000  Uiso   1.00
C155   C     0.81850   0.34938   0.23880   0.00000  Uiso   1.00
C156   C     0.00504   0.49239   0.15386   0.00000  Uiso   1.00
C157   C     0.04407   0.49165   0.05971   0.00000  Uiso   1.00
C158   C     0.04519   0.55419   0.99920   0.00000  Uiso   1.00
C159   C     0.01804   0.45846   0.34021   0.00000  Uiso   1.00
C160   C     0.06800   0.42921   0.40272   0.00000  Uiso   1.00
C161   C     0.08007   0.46320   0.49909   0.00000  Uiso   1.00
H162   H     0.90070   0.58987   0.31737   0.00000  Uiso   1.00
H163   H     0.78563   0.52271   0.31566   0.00000  Uiso   1.00
H164   H     0.94117   0.66322   0.15128   0.00000  Uiso   1.00
H165   H     0.96509   0.60079   0.49425   0.00000  Uiso   1.00
H166   H     0.67420   0.42133   0.29935   0.00000  Uiso   1.00
H167   H     0.00217   0.71762   0.95278   0.00000  Uiso   1.00
H168   H     0.05262   0.58598   0.67599   0.00000  Uiso   1.00
H169   H     0.02511   0.38244   0.20669   0.00000  Uiso   1.00
H170   H     0.91687   0.30389   0.19891   0.00000  Uiso   1.00
H171   H     0.07240   0.44440   0.03453   0.00000  Uiso   1.00
H172   H     0.09632   0.38197   0.37749   0.00000  Uiso   1.00
H173   H     0.78071   0.24373   0.20459   0.00000  Uiso   1.00
H174   H     0.10869   0.54002   0.85802   0.00000  Uiso   1.00
H175   H     0.15913   0.40837   0.58122   0.00000  Uiso   1.00
O176   O     0.65400   0.28460   0.24881   0.00000  Uiso   1.00
O177   O     0.08430   0.67333   0.79413   0.00000  Uiso   1.00
O178   O     0.15048   0.50062   0.74296   0.00000  Uiso   1.00
N179   N     0.71412   0.39031   0.27814   0.00000  Uiso   1.00
N180   N     0.02075   0.66731   0.95411   0.00000  Uiso   1.00
N181   N     0.06792   0.54425   0.63023   0.00000  Uiso   1.00
N182   N     0.77144   0.29474   0.22715   0.00000  Uiso   1.00
N183   N     0.07806   0.57175   0.90312   0.00000  Uiso   1.00
N184   N     0.12524   0.44869   0.57924   0.00000  Uiso   1.00
C185   C     0.68899   0.29490   0.78954   0.00000  Uiso   1.00
C186   C     0.75347   0.33941   0.77458   0.00000  Uiso   1.00
C187   C     0.75870   0.41297   0.79033   0.00000  Uiso   1.00
C188   C     0.82217   0.44367   0.77240   0.00000  Uiso   1.00
C189   C     0.91374   0.51909   0.75407   0.00000  Uiso   1.00
C190   C     0.67887   0.25680   0.68329   0.00000  Uiso   1.00
C191   C     0.62137   0.26090   0.62231   0.00000  Uiso   1.00
C192   C     0.62204   0.22204   0.52755   0.00000  Uiso   1.00
C193   C     0.59777   0.16917   0.36754   0.00000  Uiso   1.00
C194   C     0.70548   0.23621   0.86971   0.00000  Uiso   1.00
C195   C     0.67035   0.22298   0.96546   0.00000  Uiso   1.00
C196   C     0.69342   0.16678   0.02764   0.00000  Uiso   1.00
C197   C     0.71047   0.08193   0.15708   0.00000  Uiso   1.00
C198   C     0.79239   0.21860   0.72969   0.00000  Uiso   1.00
C199   C     0.80963   0.29796   0.74207   0.00000  Uiso   1.00
C200   C     0.87311   0.32855   0.72412   0.00000  Uiso   1.00
C201   C     0.87844   0.40215   0.73984   0.00000  Uiso   1.00
C202   C     0.73503   0.21535   0.65079   0.00000  Uiso   1.00
C203   C     0.73578   0.17648   0.55610   0.00000  Uiso   1.00
C204   C     0.67830   0.18053   0.49498   0.00000  Uiso   1.00
C205   C     0.76165   0.19476   0.83721   0.00000  Uiso   1.00
C206   C     0.78476   0.13857   0.89925   0.00000  Uiso   1.00
C207   C     0.74968   0.12526   0.99508   0.00000  Uiso   1.00
H208   H     0.64526   0.32716   0.81484   0.00000  Uiso   1.00
H209   H     0.71523   0.44503   0.81548   0.00000  Uiso   1.00
H210   H     0.57792   0.29297   0.64749   0.00000  Uiso   1.00
H211   H     0.62689   0.25506   0.99059   0.00000  Uiso   1.00
H212   H     0.81756   0.55743   0.80181   0.00000  Uiso   1.00
H213   H     0.52803   0.23679   0.44763   0.00000  Uiso   1.00
H214   H     0.63130   0.15685   0.17112   0.00000  Uiso   1.00
H215   H     0.83612   0.18633   0.70438   0.00000  Uiso   1.00
H216   H     0.91656   0.29647   0.69896   0.00000  Uiso   1.00
H217   H     0.77925   0.14441   0.53097   0.00000  Uiso   1.00
H218   H     0.82823   0.10650   0.87407   0.00000  Uiso   1.00
H219   H     0.98097   0.43685   0.70724   0.00000  Uiso   1.00
H220   H     0.69144   0.11621   0.35305   0.00000  Uiso   1.00
H221   H     0.79471   0.03627   0.07654   0.00000  Uiso   1.00
O222   O     0.94874   0.57214   0.75292   0.00000  Uiso   1.00
O223   O     0.56888   0.15146   0.28825   0.00000  Uiso   1.00
O224   O     0.70437   0.04659   0.23745   0.00000  Uiso   1.00
N225   N     0.84498   0.51393   0.78032   0.00000  Uiso   1.00
N226   N     0.57429   0.21416   0.44917   0.00000  Uiso   1.00
N227   N     0.67083   0.13941   0.12556   0.00000  Uiso   1.00
N228   N     0.93291   0.44905   0.72943   0.00000  Uiso   1.00
N229   N     0.66222   0.14928   0.39828   0.00000  Uiso   1.00
N230   N     0.75876   0.07453   0.07467   0.00000  Uiso   1.00
C231   C     0.82555   0.68869   0.56829   0.00000  Uiso   1.00
C232   C     0.76182   0.64375   0.55407   0.00000  Uiso   1.00
C233   C     0.75709   0.56981   0.56638   0.00000  Uiso   1.00
C234   C     0.69429   0.53875   0.54983   0.00000  Uiso   1.00
C235   C     0.60386   0.46266   0.53192   0.00000  Uiso   1.00
C236   C     0.83730   0.72929   0.46351   0.00000  Uiso   1.00
C237   C     0.89604   0.72728   0.39969   0.00000  Uiso   1.00
C238   C     0.89678   0.76825   0.30692   0.00000  Uiso   1.00
C239   C     0.92356   0.82500   0.14846   0.00000  Uiso   1.00
C240   C     0.80685   0.74533   0.65215   0.00000  Uiso   1.00
C241   C     0.84000   0.75682   0.74695   0.00000  Uiso   1.00
C242   C     0.81510   0.81130   0.81299   0.00000  Uiso   1.00
C243   C     0.79460   0.89295   0.94743   0.00000  Uiso   1.00
C244   C     0.72242   0.76501   0.51701   0.00000  Uiso   1.00
C245   C     0.70581   0.68521   0.52621   0.00000  Uiso   1.00
C246   C     0.64299   0.65425   0.50964   0.00000  Uiso   1.00
C247   C     0.63817   0.58028   0.52193   0.00000  Uiso   1.00
C248   C     0.78129   0.77075   0.43565   0.00000  Uiso   1.00
C249   C     0.78194   0.81173   0.34295   0.00000  Uiso   1.00
C250   C     0.84066   0.80978   0.27901   0.00000  Uiso   1.00
C251   C     0.75083   0.78679   0.62430   0.00000  Uiso   1.00
C252   C     0.72589   0.84126   0.69021   0.00000  Uiso   1.00
C253   C     0.75899   0.85283   0.78508   0.00000  Uiso   1.00
H254   H     0.86916   0.65641   0.58998   0.00000  Uiso   1.00
H255   H     0.80046   0.53774   0.58792   0.00000  Uiso   1.00
H256   H     0.93938   0.69520   0.42127   0.00000  Uiso   1.00
H257   H     0.88334   0.72473   0.76847   0.00000  Uiso   1.00
H258   H     0.69959   0.42446   0.57333   0.00000  Uiso   1.00
H259   H     0.99253   0.75648   0.22195   0.00000  Uiso   1.00
H260   H     0.87436   0.81875   0.95409   0.00000  Uiso   1.00
H261   H     0.67881   0.79729   0.49532   0.00000  Uiso   1.00
H262   H     0.59965   0.68635   0.48808   0.00000  Uiso   1.00
H263   H     0.73858   0.84381   0.32143   0.00000  Uiso   1.00
H264   H     0.68254   0.87333   0.66863   0.00000  Uiso   1.00
H265   H     0.53661   0.54507   0.49229   0.00000  Uiso   1.00
H266   H     0.82956   0.87710   0.14091   0.00000  Uiso   1.00
H267   H     0.71138   0.93936   0.87305   0.00000  Uiso   1.00
O268   O     0.56947   0.40924   0.52972   0.00000  Uiso   1.00
O269   O     0.95381   0.84485   0.06874   0.00000  Uiso   1.00
O270   O     0.79877   0.92654   0.02929   0.00000  Uiso   1.00
N271   N     0.67209   0.46807   0.55527   0.00000  Uiso   1.00
N272   N     0.94597   0.77848   0.22675   0.00000  Uiso   1.00
N273   N     0.83550   0.83671   0.91122   0.00000  Uiso   1.00
N274   N     0.58439   0.53297   0.51166   0.00000  Uiso   1.00
N275   N     0.85827   0.84338   0.18314   0.00000  Uiso   1.00
N276   N     0.74781   0.90161   0.86762   0.00000  Uiso   1.00
C277   C     0.42995   0.94187   0.92082   0.00000  Uiso   1.00
C278   C     0.38370   0.00646   0.94055   0.00000  Uiso   1.00
C279   C     0.31371   0.00688   0.93220   0.00000  Uiso   1.00
C280   C     0.28060   0.07135   0.95351   0.00000  Uiso   1.00
C281   C     0.20336   0.16222   0.97985   0.00000  Uiso   1.00
C282   C     0.46919   0.93194   0.02295   0.00000  Uiso   1.00
C283   C     0.47109   0.86970   0.08387   0.00000  Uiso   1.00
C284   C     0.50996   0.87145   0.17454   0.00000  Uiso   1.00
C285   C     0.56548   0.84662   0.32876   0.00000  Uiso   1.00
C286   C     0.48195   0.96517   0.83508   0.00000  Uiso   1.00
C287   C     0.49460   0.93086   0.73803   0.00000  Uiso   1.00
C288   C     0.54422   0.96058   0.67053   0.00000  Uiso   1.00
C289   C     0.61956   0.98734   0.53305   0.00000  Uiso   1.00
C290   C     0.49560   0.05563   0.97352   0.00000  Uiso   1.00
C291   C     0.41936   0.06825   0.96918   0.00000  Uiso   1.00
C292   C     0.38635   0.13274   0.99051   0.00000  Uiso   1.00
C293   C     0.31632   0.13325   0.98218   0.00000  Uiso   1.00
C294   C     0.50485   0.99373   0.05158   0.00000  Uiso   1.00
C295   C     0.54373   0.99557   0.14218   0.00000  Uiso   1.00
C296   C     0.54568   0.93335   0.20322   0.00000  Uiso   1.00
C297   C     0.51761   0.02696   0.86370   0.00000  Uiso   1.00
C298   C     0.56723   0.05673   0.79634   0.00000  Uiso   1.00
C299   C     0.57995   0.02248   0.69921   0.00000  Uiso   1.00
H300   H     0.40219   0.89377   0.89854   0.00000  Uiso   1.00
H301   H     0.28613   0.95904   0.91005   0.00000  Uiso   1.00
H302   H     0.44350   0.82189   0.06169   0.00000  Uiso   1.00
H303   H     0.46699   0.88305   0.71591   0.00000  Uiso   1.00
H304   H     0.17319   0.05866   0.93548   0.00000  Uiso   1.00
H305   H     0.50501   0.76946   0.25519   0.00000  Uiso   1.00
H306   H     0.55456   0.89842   0.52605   0.00000  Uiso   1.00
H307   H     0.52337   0.10374   0.99581   0.00000  Uiso   1.00
H308   H     0.41396   0.18055   0.01266   0.00000  Uiso   1.00
H309   H     0.57132   0.04339   0.16430   0.00000  Uiso   1.00
H310   H     0.59482   0.10455   0.81852   0.00000  Uiso   1.00
H311   H     0.27693   0.23844   0.01877   0.00000  Uiso   1.00
H312   H     0.60876   0.94924   0.33848   0.00000  Uiso   1.00
H313   H     0.65831   0.07819   0.60934   0.00000  Uiso   1.00
O314   O     0.15090   0.19528   0.98648   0.00000  Uiso   1.00
O315   O     0.58625   0.81586   0.40593   0.00000  Uiso   1.00
O316   O     0.65125   0.98504   0.44931   0.00000  Uiso   1.00
N317   N     0.21262   0.09043   0.95274   0.00000  Uiso   1.00
N318   N     0.52285   0.82005   0.25167   0.00000  Uiso   1.00
N319   N     0.56919   0.94060   0.56999   0.00000  Uiso   1.00
N320   N     0.26844   0.18717   0.99756   0.00000  Uiso   1.00
N321   N     0.57867   0.91679   0.29649   0.00000  Uiso   1.00
N322   N     0.62501   0.03734   0.61481   0.00000  Uiso   1.00
C323   C     0.07080   0.04235   0.70798   0.00000  Uiso   1.00
C324   C     0.11607   0.97709   0.72425   0.00000  Uiso   1.00
C325   C     0.18605   0.97545   0.70954   0.00000  Uiso   1.00
C326   C     0.21818   0.91054   0.72858   0.00000  Uiso   1.00
C327   C     0.29404   0.81850   0.74894   0.00000  Uiso   1.00
C328   C     0.03157   0.05343   0.81357   0.00000  Uiso   1.00
C329   C     0.03050   0.11599   0.87395   0.00000  Uiso   1.00
C330   C     0.99149   0.11534   0.96817   0.00000  Uiso   1.00
C331   C     0.93612   0.14184   0.12716   0.00000  Uiso   1.00
C332   C     0.01858   0.01951   0.62722   0.00000  Uiso   1.00
C333   C     0.00657   0.05355   0.53093   0.00000  Uiso   1.00
C334   C     0.95660   0.02435   0.46827   0.00000  Uiso   1.00
C335   C     0.88107   0.99819   0.33794   0.00000  Uiso   1.00
C336   C     0.00339   0.92996   0.76794   0.00000  Uiso   1.00
C337   C     0.07945   0.91605   0.75682   0.00000  Uiso   1.00
C338   C     0.11148   0.85111   0.77588   0.00000  Uiso   1.00
C339   C     0.18150   0.84938   0.76120   0.00000  Uiso   1.00
C340   C     0.99496   0.99239   0.84614   0.00000  Uiso   1.00
C341   C     0.95593   0.99165   0.94029   0.00000  Uiso   1.00
C342   C     0.95481   0.05419   0.00080   0.00000  Uiso   1.00
C343   C     0.98196   0.95846   0.65979   0.00000  Uiso   1.00
C344   C     0.93200   0.92921   0.59728   0.00000  Uiso   1.00
C345   C     0.91993   0.96320   0.50091   0.00000  Uiso   1.00
H346   H     0.09930   0.08987   0.68263   0.00000  Uiso   1.00
H347   H     0.21437   0.02271   0.68434   0.00000  Uiso   1.00
H348   H     0.05883   0.16322   0.84872   0.00000  Uiso   1.00
H349   H     0.03491   0.10079   0.50575   0.00000  Uiso   1.00
H350   H     0.32580   0.92133   0.70065   0.00000  Uiso   1.00
H351   H     0.99783   0.21762   0.04722   0.00000  Uiso   1.00
H352   H     0.94738   0.08598   0.32401   0.00000  Uiso   1.00
H353   H     0.97489   0.88244   0.79331   0.00000  Uiso   1.00
H354   H     0.08313   0.80389   0.80109   0.00000  Uiso   1.00
H355   H     0.92760   0.94440   0.96547   0.00000  Uiso   1.00
H356   H     0.90368   0.88197   0.62251   0.00000  Uiso   1.00
H357   H     0.21929   0.74373   0.79541   0.00000  Uiso   1.00
H358   H     0.89131   0.04002   0.14198   0.00000  Uiso   1.00
H359   H     0.84087   0.90837   0.41878   0.00000  Uiso   1.00
O360   O     0.34600   0.78460   0.75119   0.00000  Uiso   1.00
O361   O     0.91570   0.17333   0.20587   0.00000  Uiso   1.00
O362   O     0.84952   0.00062   0.25704   0.00000  Uiso   1.00
N363   N     0.28588   0.89031   0.72186   0.00000  Uiso   1.00
N364   N     0.97925   0.16731   0.04589   0.00000  Uiso   1.00
N365   N     0.93208   0.04425   0.36977   0.00000  Uiso   1.00
N366   N     0.22856   0.79474   0.77285   0.00000  Uiso   1.00
N367   N     0.92194   0.07175   0.09688   0.00000  Uiso   1.00
N368   N     0.87476   0.94869   0.42076   0.00000  Uiso   1.00
