data_job_03245
_audit_creation_date              2018-12-19
_audit_creation_method            'Materials Studio'
_symmetry_space_group_name_H-M    'P1'
_symmetry_Int_Tables_number       1
_symmetry_cell_setting            triclinic
loop_
_symmetry_equiv_pos_as_xyz
  x,y,z
_cell_length_a                    10.4178
_cell_length_b                    20.1205
_cell_length_c                    18.2064
_cell_angle_alpha                 90.0000
_cell_angle_beta                  141.9998
_cell_angle_gamma                 90.0000
loop_
_atom_site_label
_atom_site_type_symbol
_atom_site_fract_x
_atom_site_fract_y
_atom_site_fract_z
_atom_site_U_iso_or_equiv
_atom_site_adp_type
_atom_site_occupancy
C1     C     0.05551   0.83358   0.60727   0.00000  Uiso   1.00
C2     C     0.18979   0.82744   0.59903   0.00000  Uiso   1.00
C3     C     0.38582   0.85528   0.67767   0.00000  Uiso   1.00
C4     C     0.48327   0.84393   0.65468   0.00000  Uiso   1.00
C5     C     0.70623   0.84018   0.65678   0.00000  Uiso   1.00
C6     C     0.84829   0.86290   0.48860   0.00000  Uiso   1.00
C7     C     0.75718   0.92055   0.47440   0.00000  Uiso   1.00
C8     C     0.56714   0.93905   0.35845   0.00000  Uiso   1.00
C9     C     0.25985   0.99032   0.18912   0.00000  Uiso   1.00
C10    C     0.00815   0.76269   0.61035   0.00000  Uiso   1.00
C11    C     0.05140   0.73607   0.69851   0.00000  Uiso   1.00
C12    C     0.99590   0.67019   0.68505   0.00000  Uiso   1.00
C13    C     0.93682   0.56586   0.70475   0.00000  Uiso   1.00
C14    C     0.87999   0.76394   0.42660   0.00000  Uiso   1.00
C15    C     0.09445   0.78962   0.50089   0.00000  Uiso   1.00
C16    C     0.19163   0.77822   0.47778   0.00000  Uiso   1.00
C17    C     0.38777   0.80603   0.55638   0.00000  Uiso   1.00
C18    C     0.75295   0.82508   0.39047   0.00000  Uiso   1.00
C19    C     0.56299   0.84349   0.27451   0.00000  Uiso   1.00
C20    C     0.47163   0.90115   0.26014   0.00000  Uiso   1.00
C21    C     0.91282   0.72485   0.51222   0.00000  Uiso   1.00
C22    C     0.85722   0.65901   0.49862   0.00000  Uiso   1.00
C23    C     0.90039   0.63229   0.58674   0.00000  Uiso   1.00
H24    H     0.12972   0.86304   0.68366   0.00000  Uiso   1.00
H25    H     0.45953   0.88456   0.75360   0.00000  Uiso   1.00
H26    H     0.83099   0.94981   0.55036   0.00000  Uiso   1.00
H27    H     0.12517   0.76535   0.77443   0.00000  Uiso   1.00
H28    H     0.78312   0.89175   0.78783   0.00000  Uiso   1.00
H29    H     0.45776   0.02932   0.35930   0.00000  Uiso   1.00
H30    H     0.07811   0.64037   0.83180   0.00000  Uiso   1.00
H31    H     0.80576   0.73449   0.35020   0.00000  Uiso   1.00
H32    H     0.11781   0.74895   0.40184   0.00000  Uiso   1.00
H33    H     0.48926   0.81420   0.19860   0.00000  Uiso   1.00
H34    H     0.78345   0.62975   0.42267   0.00000  Uiso   1.00
H35    H     0.50576   0.78169   0.50233   0.00000  Uiso   1.00
H36    H     0.18040   0.91926   0.07379   0.00000  Uiso   1.00
H37    H     0.80075   0.53031   0.54629   0.00000  Uiso   1.00
O38    O     0.85553   0.84857   0.68504   0.00000  Uiso   1.00
O39    O     0.11670   0.02906   0.12283   0.00000  Uiso   1.00
O40    O     0.93059   0.51876   0.74274   0.00000  Uiso   1.00
N41    N     0.67504   0.86385   0.71356   0.00000  Uiso   1.00
N42    N     0.43592   0.99248   0.31291   0.00000  Uiso   1.00
N43    N     0.01584   0.62885   0.75464   0.00000  Uiso   1.00
N44    N     0.52580   0.80462   0.55994   0.00000  Uiso   1.00
N45    N     0.28668   0.93326   0.15928   0.00000  Uiso   1.00
N46    N     0.86660   0.56962   0.60102   0.00000  Uiso   1.00
C47    C     0.94449   0.33358   0.89273   0.00000  Uiso   1.00
C48    C     0.81021   0.32744   0.90097   0.00000  Uiso   1.00
C49    C     0.61418   0.35528   0.82233   0.00000  Uiso   1.00
C50    C     0.51673   0.34393   0.84532   0.00000  Uiso   1.00
C51    C     0.29377   0.34018   0.84322   0.00000  Uiso   1.00
C52    C     0.15171   0.36290   0.01140   0.00000  Uiso   1.00
C53    C     0.24282   0.42055   0.02560   0.00000  Uiso   1.00
C54    C     0.43286   0.43905   0.14155   0.00000  Uiso   1.00
C55    C     0.74015   0.49032   0.31088   0.00000  Uiso   1.00
C56    C     0.99185   0.26269   0.88965   0.00000  Uiso   1.00
C57    C     0.94860   0.23607   0.80149   0.00000  Uiso   1.00
C58    C     0.00410   0.17019   0.81495   0.00000  Uiso   1.00
C59    C     0.06318   0.06586   0.79525   0.00000  Uiso   1.00
C60    C     0.12001   0.26394   0.07340   0.00000  Uiso   1.00
C61    C     0.90555   0.28962   0.99911   0.00000  Uiso   1.00
C62    C     0.80837   0.27822   0.02222   0.00000  Uiso   1.00
C63    C     0.61223   0.30603   0.94362   0.00000  Uiso   1.00
C64    C     0.24705   0.32508   0.10953   0.00000  Uiso   1.00
C65    C     0.43701   0.34349   0.22549   0.00000  Uiso   1.00
C66    C     0.52837   0.40115   0.23986   0.00000  Uiso   1.00
C67    C     0.08718   0.22485   0.98778   0.00000  Uiso   1.00
C68    C     0.14278   0.15901   0.00138   0.00000  Uiso   1.00
C69    C     0.09961   0.13229   0.91326   0.00000  Uiso   1.00
H70    H     0.87028   0.36304   0.81634   0.00000  Uiso   1.00
H71    H     0.54047   0.38456   0.74640   0.00000  Uiso   1.00
H72    H     0.16901   0.44981   0.94964   0.00000  Uiso   1.00
H73    H     0.87483   0.26535   0.72557   0.00000  Uiso   1.00
H74    H     0.21688   0.39175   0.71217   0.00000  Uiso   1.00
H75    H     0.54224   0.52932   0.14070   0.00000  Uiso   1.00
H76    H     0.92189   0.14037   0.66820   0.00000  Uiso   1.00
H77    H     0.19424   0.23449   0.14980   0.00000  Uiso   1.00
H78    H     0.88219   0.24895   0.09816   0.00000  Uiso   1.00
H79    H     0.51074   0.31420   0.30140   0.00000  Uiso   1.00
H80    H     0.21655   0.12975   0.07733   0.00000  Uiso   1.00
H81    H     0.49424   0.28169   0.99767   0.00000  Uiso   1.00
H82    H     0.81960   0.41926   0.42621   0.00000  Uiso   1.00
H83    H     0.19925   0.03031   0.95371   0.00000  Uiso   1.00
O84    O     0.14447   0.34857   0.81496   0.00000  Uiso   1.00
O85    O     0.88330   0.52906   0.37717   0.00000  Uiso   1.00
O86    O     0.06941   0.01876   0.75726   0.00000  Uiso   1.00
N87    N     0.32496   0.36385   0.78644   0.00000  Uiso   1.00
N88    N     0.56408   0.49248   0.18709   0.00000  Uiso   1.00
N89    N     0.98416   0.12885   0.74536   0.00000  Uiso   1.00
N90    N     0.47420   0.30462   0.94006   0.00000  Uiso   1.00
N91    N     0.71332   0.43326   0.34072   0.00000  Uiso   1.00
N92    N     0.13340   0.06962   0.89898   0.00000  Uiso   1.00
C93    C     0.94449   0.16642   0.39273   0.00000  Uiso   1.00
C94    C     0.81021   0.17256   0.40097   0.00000  Uiso   1.00
C95    C     0.61418   0.14472   0.32233   0.00000  Uiso   1.00
C96    C     0.51673   0.15607   0.34532   0.00000  Uiso   1.00
C97    C     0.29377   0.15982   0.34322   0.00000  Uiso   1.00
C98    C     0.15171   0.13710   0.51140   0.00000  Uiso   1.00
C99    C     0.24282   0.07945   0.52560   0.00000  Uiso   1.00
C100   C     0.43286   0.06095   0.64155   0.00000  Uiso   1.00
C101   C     0.74015   0.00968   0.81088   0.00000  Uiso   1.00
C102   C     0.99185   0.23731   0.38965   0.00000  Uiso   1.00
C103   C     0.94860   0.26393   0.30149   0.00000  Uiso   1.00
C104   C     0.00410   0.32981   0.31495   0.00000  Uiso   1.00
C105   C     0.06318   0.43414   0.29525   0.00000  Uiso   1.00
C106   C     0.12001   0.23606   0.57340   0.00000  Uiso   1.00
C107   C     0.90555   0.21038   0.49911   0.00000  Uiso   1.00
C108   C     0.80837   0.22178   0.52222   0.00000  Uiso   1.00
C109   C     0.61223   0.19397   0.44362   0.00000  Uiso   1.00
C110   C     0.24705   0.17492   0.60953   0.00000  Uiso   1.00
C111   C     0.43701   0.15651   0.72549   0.00000  Uiso   1.00
C112   C     0.52837   0.09885   0.73986   0.00000  Uiso   1.00
C113   C     0.08718   0.27515   0.48778   0.00000  Uiso   1.00
C114   C     0.14278   0.34099   0.50138   0.00000  Uiso   1.00
C115   C     0.09961   0.36771   0.41326   0.00000  Uiso   1.00
H116   H     0.87028   0.13696   0.31634   0.00000  Uiso   1.00
H117   H     0.54047   0.11544   0.24640   0.00000  Uiso   1.00
H118   H     0.16901   0.05019   0.44964   0.00000  Uiso   1.00
H119   H     0.87483   0.23465   0.22557   0.00000  Uiso   1.00
H120   H     0.21688   0.10825   0.21217   0.00000  Uiso   1.00
H121   H     0.54224   0.97068   0.64070   0.00000  Uiso   1.00
H122   H     0.92189   0.35963   0.16820   0.00000  Uiso   1.00
H123   H     0.19424   0.26551   0.64980   0.00000  Uiso   1.00
H124   H     0.88219   0.25105   0.59816   0.00000  Uiso   1.00
H125   H     0.51074   0.18580   0.80140   0.00000  Uiso   1.00
H126   H     0.21655   0.37025   0.57733   0.00000  Uiso   1.00
H127   H     0.49424   0.21831   0.49767   0.00000  Uiso   1.00
H128   H     0.81960   0.08074   0.92621   0.00000  Uiso   1.00
H129   H     0.19925   0.46969   0.45371   0.00000  Uiso   1.00
O130   O     0.14447   0.15143   0.31496   0.00000  Uiso   1.00
O131   O     0.88330   0.97094   0.87717   0.00000  Uiso   1.00
O132   O     0.06941   0.48124   0.25726   0.00000  Uiso   1.00
N133   N     0.32496   0.13615   0.28644   0.00000  Uiso   1.00
N134   N     0.56408   0.00752   0.68709   0.00000  Uiso   1.00
N135   N     0.98416   0.37115   0.24536   0.00000  Uiso   1.00
N136   N     0.47420   0.19538   0.44006   0.00000  Uiso   1.00
N137   N     0.71332   0.06674   0.84072   0.00000  Uiso   1.00
N138   N     0.13340   0.43038   0.39898   0.00000  Uiso   1.00
C139   C     0.05551   0.66642   0.10727   0.00000  Uiso   1.00
C140   C     0.18979   0.67256   0.09903   0.00000  Uiso   1.00
C141   C     0.38582   0.64472   0.17767   0.00000  Uiso   1.00
C142   C     0.48327   0.65607   0.15468   0.00000  Uiso   1.00
C143   C     0.70623   0.65982   0.15678   0.00000  Uiso   1.00
C144   C     0.84829   0.63710   0.98860   0.00000  Uiso   1.00
C145   C     0.75718   0.57945   0.97440   0.00000  Uiso   1.00
C146   C     0.56714   0.56095   0.85845   0.00000  Uiso   1.00
C147   C     0.25985   0.50968   0.68912   0.00000  Uiso   1.00
C148   C     0.00815   0.73731   0.11035   0.00000  Uiso   1.00
C149   C     0.05140   0.76393   0.19851   0.00000  Uiso   1.00
C150   C     0.99590   0.82981   0.18505   0.00000  Uiso   1.00
C151   C     0.93682   0.93414   0.20475   0.00000  Uiso   1.00
C152   C     0.87999   0.73606   0.92660   0.00000  Uiso   1.00
C153   C     0.09445   0.71038   0.00089   0.00000  Uiso   1.00
C154   C     0.19163   0.72178   0.97778   0.00000  Uiso   1.00
C155   C     0.38777   0.69397   0.05638   0.00000  Uiso   1.00
C156   C     0.75295   0.67492   0.89047   0.00000  Uiso   1.00
C157   C     0.56299   0.65651   0.77451   0.00000  Uiso   1.00
C158   C     0.47163   0.59885   0.76014   0.00000  Uiso   1.00
C159   C     0.91282   0.77515   0.01222   0.00000  Uiso   1.00
C160   C     0.85722   0.84099   0.99862   0.00000  Uiso   1.00
C161   C     0.90039   0.86771   0.08674   0.00000  Uiso   1.00
H162   H     0.12972   0.63696   0.18366   0.00000  Uiso   1.00
H163   H     0.45953   0.61544   0.25360   0.00000  Uiso   1.00
H164   H     0.83099   0.55019   0.05036   0.00000  Uiso   1.00
H165   H     0.12517   0.73465   0.27443   0.00000  Uiso   1.00
H166   H     0.78312   0.60825   0.28783   0.00000  Uiso   1.00
H167   H     0.45776   0.47068   0.85930   0.00000  Uiso   1.00
H168   H     0.07811   0.85963   0.33180   0.00000  Uiso   1.00
H169   H     0.80576   0.76551   0.85020   0.00000  Uiso   1.00
H170   H     0.11781   0.75105   0.90184   0.00000  Uiso   1.00
H171   H     0.48926   0.68580   0.69860   0.00000  Uiso   1.00
H172   H     0.78345   0.87025   0.92267   0.00000  Uiso   1.00
H173   H     0.50576   0.71831   0.00233   0.00000  Uiso   1.00
H174   H     0.18040   0.58074   0.57379   0.00000  Uiso   1.00
H175   H     0.80075   0.96969   0.04629   0.00000  Uiso   1.00
O176   O     0.85553   0.65143   0.18504   0.00000  Uiso   1.00
O177   O     0.11670   0.47094   0.62283   0.00000  Uiso   1.00
O178   O     0.93059   0.98124   0.24274   0.00000  Uiso   1.00
N179   N     0.67504   0.63615   0.21356   0.00000  Uiso   1.00
N180   N     0.43592   0.50752   0.81291   0.00000  Uiso   1.00
N181   N     0.01584   0.87115   0.25464   0.00000  Uiso   1.00
N182   N     0.52580   0.69538   0.05994   0.00000  Uiso   1.00
N183   N     0.28668   0.56674   0.65928   0.00000  Uiso   1.00
N184   N     0.86660   0.93038   0.10102   0.00000  Uiso   1.00
