data_job_06666
_audit_creation_date              2018-12-19
_audit_creation_method            'Materials Studio'
_symmetry_space_group_name_H-M    'P1'
_symmetry_Int_Tables_number       1
_symmetry_cell_setting            triclinic
loop_
_symmetry_equiv_pos_as_xyz
  x,y,z
_cell_length_a                    19.4110
_cell_length_b                    24.5814
_cell_length_c                    20.8484
_cell_angle_alpha                 67.6780
_cell_angle_beta                  77.7890
_cell_angle_gamma                 69.5980
loop_
_atom_site_label
_atom_site_type_symbol
_atom_site_fract_x
_atom_site_fract_y
_atom_site_fract_z
_atom_site_U_iso_or_equiv
_atom_site_adp_type
_atom_site_occupancy
C1     C     0.83640   0.28573   0.34381   0.00000  Uiso   1.00
C2     C     0.89204   0.22239   0.35174   0.00000  Uiso   1.00
C3     C     0.87518   0.16899   0.36243   0.00000  Uiso   1.00
C4     C     0.93394   0.11569   0.36837   0.00000  Uiso   1.00
C5     C     0.00922   0.01731   0.38143   0.00000  Uiso   1.00
C6     C     0.84951   0.30603   0.39967   0.00000  Uiso   1.00
C7     C     0.79690   0.32297   0.45064   0.00000  Uiso   1.00
C8     C     0.81986   0.34009   0.49692   0.00000  Uiso   1.00
C9     C     0.82911   0.37161   0.58434   0.00000  Uiso   1.00
C10    C     0.85972   0.32897   0.27423   0.00000  Uiso   1.00
C11    C     0.81569   0.36521   0.21973   0.00000  Uiso   1.00
C12    C     0.84724   0.40165   0.16040   0.00000  Uiso   1.00
C13    C     0.87234   0.46878   0.05307   0.00000  Uiso   1.00
C14    C     0.97073   0.28602   0.33536   0.00000  Uiso   1.00
C15    C     0.96500   0.22255   0.34716   0.00000  Uiso   1.00
C16    C     0.02380   0.16932   0.35308   0.00000  Uiso   1.00
C17    C     0.00704   0.11585   0.36377   0.00000  Uiso   1.00
C18    C     0.92247   0.30619   0.39508   0.00000  Uiso   1.00
C19    C     0.94552   0.32329   0.44129   0.00000  Uiso   1.00
C20    C     0.89296   0.34025   0.49232   0.00000  Uiso   1.00
C21    C     0.93268   0.32913   0.26964   0.00000  Uiso   1.00
C22    C     0.96431   0.36552   0.21038   0.00000  Uiso   1.00
C23    C     0.92034   0.40181   0.15581   0.00000  Uiso   1.00
H24    H     0.77960   0.28561   0.34738   0.00000  Uiso   1.00
H25    H     0.81871   0.16889   0.36598   0.00000  Uiso   1.00
H26    H     0.74044   0.32285   0.45417   0.00000  Uiso   1.00
H27    H     0.75923   0.36507   0.22330   0.00000  Uiso   1.00
H28    H     0.89424   0.03955   0.38461   0.00000  Uiso   1.00
H29    H     0.72920   0.36420   0.57054   0.00000  Uiso   1.00
H30    H     0.76882   0.45324   0.08371   0.00000  Uiso   1.00
H31    H     0.02754   0.28615   0.33179   0.00000  Uiso   1.00
H32    H     0.08026   0.16945   0.34953   0.00000  Uiso   1.00
H33    H     0.00198   0.32341   0.43772   0.00000  Uiso   1.00
H34    H     0.02077   0.36564   0.20685   0.00000  Uiso   1.00
H35    H     0.10653   0.04000   0.37126   0.00000  Uiso   1.00
H36    H     0.94148   0.36466   0.55719   0.00000  Uiso   1.00
H37    H     0.98110   0.45370   0.07036   0.00000  Uiso   1.00
O38    O     0.03059   0.96300   0.38991   0.00000  Uiso   1.00
O39    O     0.81405   0.38894   0.63384   0.00000  Uiso   1.00
O40    O     0.86603   0.50575   0.99513   0.00000  Uiso   1.00
N41    N     0.93697   0.05567   0.37902   0.00000  Uiso   1.00
N42    N     0.78267   0.35920   0.55286   0.00000  Uiso   1.00
N43    N     0.81970   0.44245   0.09772   0.00000  Uiso   1.00
N44    N     0.05120   0.05592   0.37183   0.00000  Uiso   1.00
N45    N     0.89689   0.35944   0.54568   0.00000  Uiso   1.00
N46    N     0.93393   0.44270   0.09054   0.00000  Uiso   1.00
C47    C     0.54064   0.83762   0.25170   0.00000  Uiso   1.00
C48    C     0.53910   0.90436   0.21163   0.00000  Uiso   1.00
C49    C     0.55860   0.92838   0.14087   0.00000  Uiso   1.00
C50    C     0.55341   0.99058   0.11409   0.00000  Uiso   1.00
C51    C     0.55467   0.08861   0.04541   0.00000  Uiso   1.00
C52    C     0.58992   0.81517   0.31029   0.00000  Uiso   1.00
C53    C     0.65214   0.76420   0.32249   0.00000  Uiso   1.00
C54    C     0.68972   0.75132   0.37876   0.00000  Uiso   1.00
C55    C     0.76985   0.71085   0.46328   0.00000  Uiso   1.00
C56    C     0.46285   0.83976   0.28681   0.00000  Uiso   1.00
C57    C     0.41823   0.80945   0.27929   0.00000  Uiso   1.00
C58    C     0.34884   0.81725   0.31582   0.00000  Uiso   1.00
C59    C     0.23168   0.81496   0.36389   0.00000  Uiso   1.00
C60    C     0.49676   0.90537   0.32995   0.00000  Uiso   1.00
C61    C     0.51526   0.94116   0.25413   0.00000  Uiso   1.00
C62    C     0.51004   0.00334   0.22745   0.00000  Uiso   1.00
C63    C     0.52953   0.02745   0.15666   0.00000  Uiso   1.00
C64    C     0.56608   0.85197   0.35279   0.00000  Uiso   1.00
C65    C     0.60358   0.83916   0.40906   0.00000  Uiso   1.00
C66    C     0.66584   0.78818   0.42134   0.00000  Uiso   1.00
C67    C     0.43901   0.87656   0.32932   0.00000  Uiso   1.00
C68    C     0.36968   0.88441   0.36586   0.00000  Uiso   1.00
C69    C     0.32496   0.85412   0.35840   0.00000  Uiso   1.00
H70    H     0.55921   0.80897   0.21862   0.00000  Uiso   1.00
H71    H     0.57705   0.89989   0.10800   0.00000  Uiso   1.00
H72    H     0.67057   0.73573   0.28959   0.00000  Uiso   1.00
H73    H     0.43670   0.78097   0.24640   0.00000  Uiso   1.00
H74    H     0.58634   0.01691   0.00411   0.00000  Uiso   1.00
H75    H     0.78352   0.67076   0.38702   0.00000  Uiso   1.00
H76    H     0.29036   0.76616   0.29594   0.00000  Uiso   1.00
H77    H     0.47820   0.93403   0.36304   0.00000  Uiso   1.00
H78    H     0.49159   0.03181   0.26035   0.00000  Uiso   1.00
H79    H     0.58512   0.86765   0.44194   0.00000  Uiso   1.00
H80    H     0.35125   0.91289   0.39875   0.00000  Uiso   1.00
H81    H     0.51699   0.12398   0.12777   0.00000  Uiso   1.00
H82    H     0.71416   0.77782   0.51068   0.00000  Uiso   1.00
H83    H     0.22101   0.87323   0.41960   0.00000  Uiso   1.00
O84    O     0.56196   0.13251   0.99578   0.00000  Uiso   1.00
O85    O     0.82064   0.67836   0.49815   0.00000  Uiso   1.00
O86    O     0.17363   0.80354   0.37865   0.00000  Uiso   1.00
N87    N     0.56817   0.02869   0.04730   0.00000  Uiso   1.00
N88    N     0.75252   0.70506   0.40529   0.00000  Uiso   1.00
N89    N     0.29147   0.79425   0.32016   0.00000  Uiso   1.00
N90    N     0.53085   0.08631   0.11384   0.00000  Uiso   1.00
N91    N     0.71520   0.76268   0.47183   0.00000  Uiso   1.00
N92    N     0.25415   0.85186   0.38670   0.00000  Uiso   1.00
C93    C     0.36193   0.40859   0.77615   0.00000  Uiso   1.00
C94    C     0.31632   0.41382   0.84391   0.00000  Uiso   1.00
C95    C     0.23989   0.43000   0.85484   0.00000  Uiso   1.00
C96    C     0.20863   0.43221   0.92051   0.00000  Uiso   1.00
C97    C     0.13117   0.44241   0.01768   0.00000  Uiso   1.00
C98    C     0.40952   0.45149   0.75665   0.00000  Uiso   1.00
C99    C     0.41145   0.49934   0.69422   0.00000  Uiso   1.00
C100   C     0.45865   0.53325   0.68644   0.00000  Uiso   1.00
C101   C     0.52592   0.60192   0.64814   0.00000  Uiso   1.00
C102   C     0.41506   0.34343   0.79448   0.00000  Uiso   1.00
C103   C     0.42166   0.30042   0.76384   0.00000  Uiso   1.00
C104   C     0.47354   0.24336   0.78789   0.00000  Uiso   1.00
C105   C     0.54940   0.14423   0.80831   0.00000  Uiso   1.00
C106   C     0.44235   0.38373   0.87333   0.00000  Uiso   1.00
C107   C     0.36001   0.40032   0.89669   0.00000  Uiso   1.00
C108   C     0.32886   0.40249   0.96237   0.00000  Uiso   1.00
C109   C     0.25239   0.41867   0.97340   0.00000  Uiso   1.00
C110   C     0.45320   0.43799   0.80944   0.00000  Uiso   1.00
C111   C     0.50042   0.47183   0.80175   0.00000  Uiso   1.00
C112   C     0.50241   0.51973   0.73933   0.00000  Uiso   1.00
C113   C     0.45874   0.32992   0.84727   0.00000  Uiso   1.00
C114   C     0.51062   0.27291   0.87137   0.00000  Uiso   1.00
C115   C     0.51730   0.22983   0.84077   0.00000  Uiso   1.00
H116   H     0.32793   0.41911   0.73505   0.00000  Uiso   1.00
H117   H     0.20610   0.44046   0.81397   0.00000  Uiso   1.00
H118   H     0.37764   0.50978   0.65338   0.00000  Uiso   1.00
H119   H     0.38785   0.31089   0.72299   0.00000  Uiso   1.00
H120   H     0.09030   0.45819   0.92475   0.00000  Uiso   1.00
H121   H     0.45202   0.60435   0.58612   0.00000  Uiso   1.00
H122   H     0.47354   0.18495   0.73290   0.00000  Uiso   1.00
H123   H     0.47636   0.37321   0.91443   0.00000  Uiso   1.00
H124   H     0.36267   0.39204   0.00321   0.00000  Uiso   1.00
H125   H     0.53421   0.46137   0.84261   0.00000  Uiso   1.00
H126   H     0.54442   0.26248   0.91222   0.00000  Uiso   1.00
H127   H     0.21738   0.41890   0.07834   0.00000  Uiso   1.00
H128   H     0.57910   0.56506   0.73970   0.00000  Uiso   1.00
H129   H     0.60062   0.14566   0.88649   0.00000  Uiso   1.00
O130   O     0.07638   0.45178   0.05670   0.00000  Uiso   1.00
O131   O     0.55095   0.64352   0.61242   0.00000  Uiso   1.00
O132   O     0.57917   0.09329   0.80500   0.00000  Uiso   1.00
N133   N     0.13581   0.44635   0.94872   0.00000  Uiso   1.00
N134   N     0.47399   0.58300   0.63212   0.00000  Uiso   1.00
N135   N     0.49412   0.19091   0.76934   0.00000  Uiso   1.00
N136   N     0.20419   0.42520   0.03136   0.00000  Uiso   1.00
N137   N     0.54237   0.56186   0.71477   0.00000  Uiso   1.00
N138   N     0.56250   0.16976   0.85198   0.00000  Uiso   1.00
C139   C     0.62667   0.91910   0.52510   0.00000  Uiso   1.00
C140   C     0.70060   0.92349   0.48388   0.00000  Uiso   1.00
C141   C     0.71531   0.93772   0.41226   0.00000  Uiso   1.00
C142   C     0.78645   0.93946   0.38449   0.00000  Uiso   1.00
C143   C     0.89296   0.94814   0.31404   0.00000  Uiso   1.00
C144   C     0.60596   0.96377   0.56543   0.00000  Uiso   1.00
C145   C     0.54109   0.01187   0.56239   0.00000  Uiso   1.00
C146   C     0.53255   0.04750   0.60327   0.00000  Uiso   1.00
C147   C     0.49211   0.11870   0.65947   0.00000  Uiso   1.00
C148   C     0.64208   0.85479   0.57946   0.00000  Uiso   1.00
C149   C     0.60758   0.81127   0.58822   0.00000  Uiso   1.00
C150   C     0.62945   0.75516   0.64092   0.00000  Uiso   1.00
C151   C     0.64509   0.65716   0.71890   0.00000  Uiso   1.00
C152   C     0.72683   0.89685   0.60314   0.00000  Uiso   1.00
C153   C     0.75500   0.91141   0.52627   0.00000  Uiso   1.00
C154   C     0.82613   0.91312   0.49860   0.00000  Uiso   1.00
C155   C     0.84095   0.92735   0.42695   0.00000  Uiso   1.00
C156   C     0.66036   0.95169   0.60782   0.00000  Uiso   1.00
C157   C     0.65191   0.98726   0.64873   0.00000  Uiso   1.00
C158   C     0.58705   0.03540   0.64574   0.00000  Uiso   1.00
C159   C     0.69649   0.84271   0.62184   0.00000  Uiso   1.00
C160   C     0.71841   0.78666   0.67455   0.00000  Uiso   1.00
C161   C     0.68395   0.74306   0.68339   0.00000  Uiso   1.00
H162   H     0.58431   0.92850   0.49210   0.00000  Uiso   1.00
H163   H     0.67319   0.94708   0.37947   0.00000  Uiso   1.00
H164   H     0.49900   0.02120   0.52958   0.00000  Uiso   1.00
H165   H     0.56548   0.82063   0.55541   0.00000  Uiso   1.00
H166   H     0.79572   0.96236   0.27330   0.00000  Uiso   1.00
H167   H     0.42841   0.11865   0.58983   0.00000  Uiso   1.00
H168   H     0.56860   0.69571   0.64428   0.00000  Uiso   1.00
H169   H     0.76919   0.88745   0.63614   0.00000  Uiso   1.00
H170   H     0.86822   0.90377   0.53142   0.00000  Uiso   1.00
H171   H     0.69402   0.97790   0.68152   0.00000  Uiso   1.00
H172   H     0.76051   0.77733   0.70735   0.00000  Uiso   1.00
H173   H     0.95402   0.92721   0.39662   0.00000  Uiso   1.00
H174   H     0.58670   0.08350   0.71315   0.00000  Uiso   1.00
H175   H     0.72690   0.66056   0.76760   0.00000  Uiso   1.00
O176   O     0.93667   0.95628   0.26347   0.00000  Uiso   1.00
O177   O     0.45477   0.16132   0.67875   0.00000  Uiso   1.00
O178   O     0.63870   0.60643   0.75019   0.00000  Uiso   1.00
N179   N     0.81939   0.95184   0.31670   0.00000  Uiso   1.00
N180   N     0.47598   0.09796   0.61262   0.00000  Uiso   1.00
N181   N     0.60703   0.70256   0.66355   0.00000  Uiso   1.00
N182   N     0.90457   0.93292   0.38306   0.00000  Uiso   1.00
N183   N     0.56116   0.07905   0.67898   0.00000  Uiso   1.00
N184   N     0.69221   0.68364   0.72990   0.00000  Uiso   1.00
C185   C     0.19402   0.79788   0.07251   0.00000  Uiso   1.00
C186   C     0.19571   0.74452   0.14094   0.00000  Uiso   1.00
C187   C     0.20051   0.68491   0.14792   0.00000  Uiso   1.00
C188   C     0.20132   0.64275   0.21502   0.00000  Uiso   1.00
C189   C     0.20457   0.55732   0.31246   0.00000  Uiso   1.00
C190   C     0.25783   0.82153   0.06996   0.00000  Uiso   1.00
C191   C     0.31485   0.82666   0.01725   0.00000  Uiso   1.00
C192   C     0.36794   0.84933   0.02458   0.00000  Uiso   1.00
C193   C     0.46760   0.88349   0.01179   0.00000  Uiso   1.00
C194   C     0.12365   0.84894   0.07976   0.00000  Uiso   1.00
C195   C     0.06786   0.87713   0.03529   0.00000  Uiso   1.00
C196   C     0.00799   0.92289   0.05087   0.00000  Uiso   1.00
C197   C     0.89932   0.99961   0.05331   0.00000  Uiso   1.00
C198   C     0.18691   0.82903   0.17924   0.00000  Uiso   1.00
C199   C     0.19185   0.76144   0.19892   0.00000  Uiso   1.00
C200   C     0.19265   0.71936   0.26602   0.00000  Uiso   1.00
C201   C     0.19745   0.65969   0.27310   0.00000  Uiso   1.00
C202   C     0.25397   0.83844   0.12793   0.00000  Uiso   1.00
C203   C     0.30699   0.86112   0.13534   0.00000  Uiso   1.00
C204   C     0.36408   0.86628   0.08266   0.00000  Uiso   1.00
C205   C     0.11979   0.86585   0.13774   0.00000  Uiso   1.00
C206   C     0.06000   0.91158   0.15339   0.00000  Uiso   1.00
C207   C     0.00413   0.93984   0.10895   0.00000  Uiso   1.00
H208   H     0.19703   0.78472   0.02737   0.00000  Uiso   1.00
H209   H     0.20351   0.67183   0.10304   0.00000  Uiso   1.00
H210   H     0.31782   0.81357   0.97238   0.00000  Uiso   1.00
H211   H     0.07087   0.86403   0.99043   0.00000  Uiso   1.00
H212   H     0.20901   0.55414   0.21251   0.00000  Uiso   1.00
H213   H     0.45004   0.85302   0.93700   0.00000  Uiso   1.00
H214   H     0.92929   0.95942   0.97505   0.00000  Uiso   1.00
H215   H     0.18391   0.84220   0.22438   0.00000  Uiso   1.00
H216   H     0.18966   0.73247   0.31087   0.00000  Uiso   1.00
H217   H     0.30398   0.87420   0.18021   0.00000  Uiso   1.00
H218   H     0.05703   0.92466   0.19826   0.00000  Uiso   1.00
H219   H     0.19778   0.60335   0.38119   0.00000  Uiso   1.00
H220   H     0.43880   0.90223   0.10567   0.00000  Uiso   1.00
H221   H     0.91806   0.00863   0.14373   0.00000  Uiso   1.00
O222   O     0.20744   0.50552   0.35019   0.00000  Uiso   1.00
O223   O     0.52365   0.89765   0.98872   0.00000  Uiso   1.00
O224   O     0.84045   0.03725   0.03865   0.00000  Uiso   1.00
N225   N     0.20556   0.58078   0.24034   0.00000  Uiso   1.00
N226   N     0.43091   0.86021   0.98276   0.00000  Uiso   1.00
N227   N     0.94407   0.95970   0.01832   0.00000  Uiso   1.00
N228   N     0.19952   0.60726   0.33111   0.00000  Uiso   1.00
N229   N     0.42487   0.88669   0.07352   0.00000  Uiso   1.00
N230   N     0.93803   0.98618   0.10909   0.00000  Uiso   1.00
C231   C     0.05294   0.34923   0.71110   0.00000  Uiso   1.00
C232   C     0.02356   0.41262   0.71936   0.00000  Uiso   1.00
C233   C     0.94982   0.44369   0.73135   0.00000  Uiso   1.00
C234   C     0.93427   0.50122   0.73737   0.00000  Uiso   1.00
C235   C     0.88009   0.59575   0.75111   0.00000  Uiso   1.00
C236   C     0.10760   0.30963   0.76588   0.00000  Uiso   1.00
C237   C     0.10453   0.25411   0.81697   0.00000  Uiso   1.00
C238   C     0.15973   0.22494   0.86215   0.00000  Uiso   1.00
C239   C     0.23605   0.15957   0.94808   0.00000  Uiso   1.00
C240   C     0.09861   0.35758   0.64079   0.00000  Uiso   1.00
C241   C     0.08800   0.34236   0.58671   0.00000  Uiso   1.00
C242   C     0.13565   0.35355   0.52657   0.00000  Uiso   1.00
C243   C     0.19802   0.36262   0.41828   0.00000  Uiso   1.00
C244   C     0.15645   0.39613   0.70049   0.00000  Uiso   1.00
C245   C     0.07978   0.43809   0.71360   0.00000  Uiso   1.00
C246   C     0.06434   0.49558   0.71960   0.00000  Uiso   1.00
C247   C     0.99059   0.52674   0.73159   0.00000  Uiso   1.00
C248   C     0.16382   0.33510   0.76012   0.00000  Uiso   1.00
C249   C     0.21904   0.30600   0.80523   0.00000  Uiso   1.00
C250   C     0.21605   0.25046   0.85637   0.00000  Uiso   1.00
C251   C     0.15483   0.38305   0.63502   0.00000  Uiso   1.00
C252   C     0.20251   0.39426   0.57496   0.00000  Uiso   1.00
C253   C     0.19197   0.37906   0.52080   0.00000  Uiso   1.00
H254   H     0.00918   0.32939   0.71559   0.00000  Uiso   1.00
H255   H     0.90633   0.42396   0.73581   0.00000  Uiso   1.00
H256   H     0.06102   0.23441   0.82142   0.00000  Uiso   1.00
H257   H     0.04449   0.32265   0.59119   0.00000  Uiso   1.00
H258   H     0.81710   0.54003   0.75571   0.00000  Uiso   1.00
H259   H     0.14328   0.14034   0.93620   0.00000  Uiso   1.00
H260   H     0.10843   0.32641   0.45072   0.00000  Uiso   1.00
H261   H     0.20022   0.41596   0.69600   0.00000  Uiso   1.00
H262   H     0.10785   0.51528   0.71514   0.00000  Uiso   1.00
H263   H     0.26254   0.32573   0.80075   0.00000  Uiso   1.00
H264   H     0.24601   0.41397   0.57052   0.00000  Uiso   1.00
H265   H     0.98066   0.61415   0.73893   0.00000  Uiso   1.00
H266   H     0.30684   0.21445   0.91942   0.00000  Uiso   1.00
H267   H     0.27199   0.40053   0.43394   0.00000  Uiso   1.00
O268   O     0.83468   0.64085   0.76029   0.00000  Uiso   1.00
O269   O     0.26261   0.11647   0.99708   0.00000  Uiso   1.00
O270   O     0.21689   0.36059   0.36014   0.00000  Uiso   1.00
N271   N     0.86827   0.54385   0.74912   0.00000  Uiso   1.00
N272   N     0.17322   0.17017   0.91788   0.00000  Uiso   1.00
N273   N     0.14065   0.34411   0.46400   0.00000  Uiso   1.00
N274   N     0.95628   0.58373   0.74009   0.00000  Uiso   1.00
N275   N     0.26123   0.21005   0.90885   0.00000  Uiso   1.00
N276   N     0.22866   0.38399   0.45497   0.00000  Uiso   1.00
C277   C     0.36192   0.76207   0.60200   0.00000  Uiso   1.00
C278   C     0.28668   0.80904   0.58486   0.00000  Uiso   1.00
C279   C     0.26720   0.87082   0.57794   0.00000  Uiso   1.00
C280   C     0.19565   0.90619   0.56210   0.00000  Uiso   1.00
C281   C     0.08648   0.98303   0.53677   0.00000  Uiso   1.00
C282   C     0.38830   0.73490   0.54325   0.00000  Uiso   1.00
C283   C     0.45425   0.73433   0.50135   0.00000  Uiso   1.00
C284   C     0.46825   0.70729   0.45049   0.00000  Uiso   1.00
C285   C     0.51686   0.66898   0.36060   0.00000  Uiso   1.00
C286   C     0.34746   0.71003   0.66703   0.00000  Uiso   1.00
C287   C     0.37909   0.68853   0.72919   0.00000  Uiso   1.00
C288   C     0.35872   0.64054   0.78254   0.00000  Uiso   1.00
C289   C     0.34391   0.56361   0.88482   0.00000  Uiso   1.00
C290   C     0.26951   0.71504   0.58619   0.00000  Uiso   1.00
C291   C     0.23649   0.78350   0.57628   0.00000  Uiso   1.00
C292   C     0.16496   0.81879   0.56045   0.00000  Uiso   1.00
C293   C     0.14537   0.88060   0.55350   0.00000  Uiso   1.00
C294   C     0.33811   0.70936   0.53467   0.00000  Uiso   1.00
C295   C     0.35202   0.68230   0.48386   0.00000  Uiso   1.00
C296   C     0.41797   0.68170   0.44189   0.00000  Uiso   1.00
C297   C     0.29726   0.68449   0.65844   0.00000  Uiso   1.00
C298   C     0.27685   0.63651   0.71170   0.00000  Uiso   1.00
C299   C     0.30844   0.61494   0.77393   0.00000  Uiso   1.00
H300   H     0.40100   0.78195   0.60868   0.00000  Uiso   1.00
H301   H     0.30606   0.89057   0.58458   0.00000  Uiso   1.00
H302   H     0.49309   0.75410   0.50801   0.00000  Uiso   1.00
H303   H     0.41793   0.70831   0.73582   0.00000  Uiso   1.00
H304   H     0.17867   0.99973   0.55405   0.00000  Uiso   1.00
H305   H     0.57305   0.71196   0.39262   0.00000  Uiso   1.00
H306   H     0.41456   0.61540   0.87299   0.00000  Uiso   1.00
H307   H     0.23044   0.69515   0.57950   0.00000  Uiso   1.00
H308   H     0.12613   0.79901   0.55380   0.00000  Uiso   1.00
H309   H     0.31317   0.66254   0.47724   0.00000  Uiso   1.00
H310   H     0.23800   0.61675   0.70504   0.00000  Uiso   1.00
H311   H     0.03264   0.92542   0.52907   0.00000  Uiso   1.00
H312   H     0.42702   0.63764   0.36764   0.00000  Uiso   1.00
H313   H     0.26853   0.54109   0.84800   0.00000  Uiso   1.00
O314   O     0.04012   0.03247   0.52516   0.00000  Uiso   1.00
O315   O     0.55754   0.65491   0.31338   0.00000  Uiso   1.00
O316   O     0.34960   0.52823   0.94361   0.00000  Uiso   1.00
N317   N     0.15861   0.96799   0.55171   0.00000  Uiso   1.00
N318   N     0.52732   0.69895   0.40078   0.00000  Uiso   1.00
N319   N     0.37917   0.60866   0.84987   0.00000  Uiso   1.00
N320   N     0.08003   0.92800   0.53827   0.00000  Uiso   1.00
N321   N     0.44875   0.65896   0.38734   0.00000  Uiso   1.00
N322   N     0.30059   0.56867   0.83643   0.00000  Uiso   1.00
C323   C     0.79081   0.17211   0.77915   0.00000  Uiso   1.00
C324   C     0.77498   0.11159   0.82420   0.00000  Uiso   1.00
C325   C     0.77229   0.08733   0.89631   0.00000  Uiso   1.00
C326   C     0.75695   0.03139   0.92783   0.00000  Uiso   1.00
C327   C     0.73418   0.94207   0.00375   0.00000  Uiso   1.00
C328   C     0.72529   0.21024   0.73578   0.00000  Uiso   1.00
C329   C     0.68083   0.26894   0.73353   0.00000  Uiso   1.00
C330   C     0.62368   0.29605   0.69060   0.00000  Uiso   1.00
C331   C     0.52380   0.35991   0.62920   0.00000  Uiso   1.00
C332   C     0.85677   0.15599   0.72795   0.00000  Uiso   1.00
C333   C     0.92287   0.16908   0.71911   0.00000  Uiso   1.00
C334   C     0.97640   0.15052   0.66958   0.00000  Uiso   1.00
C335   C     0.08068   0.13015   0.59603   0.00000  Uiso   1.00
C336   C     0.76836   0.11590   0.70689   0.00000  Uiso   1.00
C337   C     0.76278   0.08106   0.78495   0.00000  Uiso   1.00
C338   C     0.74744   0.02514   0.81636   0.00000  Uiso   1.00
C339   C     0.74473   0.00080   0.88851   0.00000  Uiso   1.00
C340   C     0.71309   0.17972   0.69653   0.00000  Uiso   1.00
C341   C     0.65599   0.20675   0.65358   0.00000  Uiso   1.00
C342   C     0.61146   0.26546   0.65128   0.00000  Uiso   1.00
C343   C     0.84458   0.12546   0.68870   0.00000  Uiso   1.00
C344   C     0.89802   0.10688   0.63917   0.00000  Uiso   1.00
C345   C     0.96418   0.11994   0.63026   0.00000  Uiso   1.00
H346   H     0.80030   0.19588   0.80971   0.00000  Uiso   1.00
H347   H     0.78172   0.11097   0.92667   0.00000  Uiso   1.00
H348   H     0.69029   0.29255   0.76391   0.00000  Uiso   1.00
H349   H     0.93228   0.19270   0.74950   0.00000  Uiso   1.00
H350   H     0.75572   0.00338   0.03904   0.00000  Uiso   1.00
H351   H     0.56294   0.38626   0.69583   0.00000  Uiso   1.00
H352   H     0.07323   0.17571   0.66543   0.00000  Uiso   1.00
H353   H     0.75886   0.09213   0.67633   0.00000  Uiso   1.00
H354   H     0.73801   0.00152   0.78598   0.00000  Uiso   1.00
H355   H     0.64657   0.18311   0.62321   0.00000  Uiso   1.00
H356   H     0.88856   0.08326   0.60880   0.00000  Uiso   1.00
H357   H     0.72023   0.91455   0.92485   0.00000  Uiso   1.00
H358   H     0.52746   0.29743   0.58163   0.00000  Uiso   1.00
H359   H     0.03775   0.08688   0.55124   0.00000  Uiso   1.00
O360   O     0.72498   0.90124   0.05648   0.00000  Uiso   1.00
O361   O     0.47208   0.40357   0.60619   0.00000  Uiso   1.00
O362   O     0.14156   0.12733   0.56632   0.00000  Uiso   1.00
N363   N     0.75024   0.99490   0.99711   0.00000  Uiso   1.00
N364   N     0.57000   0.35287   0.67624   0.00000  Uiso   1.00
N365   N     0.04707   0.15604   0.64781   0.00000  Uiso   1.00
N366   N     0.73115   0.94710   0.93567   0.00000  Uiso   1.00
N367   N     0.55091   0.30507   0.61479   0.00000  Uiso   1.00
N368   N     0.02798   0.10824   0.58637   0.00000  Uiso   1.00
C369   C     0.91674   0.60119   0.34940   0.00000  Uiso   1.00
C370   C     0.96590   0.56709   0.30065   0.00000  Uiso   1.00
C371   C     0.03958   0.53300   0.30704   0.00000  Uiso   1.00
C372   C     0.07491   0.50529   0.25713   0.00000  Uiso   1.00
C373   C     0.15688   0.45137   0.18972   0.00000  Uiso   1.00
C374   C     0.85049   0.57625   0.37539   0.00000  Uiso   1.00
C375   C     0.82714   0.54988   0.44462   0.00000  Uiso   1.00
C376   C     0.76530   0.52990   0.45762   0.00000  Uiso   1.00
C377   C     0.66806   0.49024   0.50625   0.00000  Uiso   1.00
C378   C     0.88701   0.66806   0.30363   0.00000  Uiso   1.00
C379   C     0.89434   0.71887   0.31253   0.00000  Uiso   1.00
C380   C     0.86323   0.77618   0.26513   0.00000  Uiso   1.00
C381   C     0.82270   0.87907   0.20234   0.00000  Uiso   1.00
C382   C     0.84843   0.61262   0.24941   0.00000  Uiso   1.00
C383   C     0.92880   0.57329   0.24634   0.00000  Uiso   1.00
C384   C     0.96402   0.54564   0.19640   0.00000  Uiso   1.00
C385   C     0.03774   0.51151   0.20271   0.00000  Uiso   1.00
C386   C     0.81339   0.58246   0.32108   0.00000  Uiso   1.00
C387   C     0.75157   0.56252   0.33399   0.00000  Uiso   1.00
C388   C     0.72813   0.53611   0.40321   0.00000  Uiso   1.00
C389   C     0.84991   0.67426   0.24932   0.00000  Uiso   1.00
C390   C     0.81878   0.73151   0.20190   0.00000  Uiso   1.00
C391   C     0.82607   0.78240   0.21072   0.00000  Uiso   1.00
H392   H     0.94561   0.59636   0.39169   0.00000  Uiso   1.00
H393   H     0.06827   0.52820   0.34908   0.00000  Uiso   1.00
H394   H     0.85585   0.54508   0.48664   0.00000  Uiso   1.00
H395   H     0.92305   0.71405   0.35457   0.00000  Uiso   1.00
H396   H     0.18790   0.45535   0.27791   0.00000  Uiso   1.00
H397   H     0.73998   0.49097   0.56795   0.00000  Uiso   1.00
H398   H     0.88168   0.84727   0.28946   0.00000  Uiso   1.00
H399   H     0.81955   0.61745   0.20712   0.00000  Uiso   1.00
H400   H     0.93529   0.55045   0.15438   0.00000  Uiso   1.00
H401   H     0.72287   0.56733   0.29194   0.00000  Uiso   1.00
H402   H     0.79007   0.73630   0.15987   0.00000  Uiso   1.00
H403   H     0.07996   0.47341   0.11988   0.00000  Uiso   1.00
H404   H     0.63204   0.50903   0.40993   0.00000  Uiso   1.00
H405   H     0.77375   0.86532   0.13144   0.00000  Uiso   1.00
O406   O     0.21234   0.41991   0.16754   0.00000  Uiso   1.00
O407   O     0.62469   0.46665   0.54807   0.00000  Uiso   1.00
O408   O     0.81060   0.93410   0.18270   0.00000  Uiso   1.00
N409   N     0.14661   0.46881   0.24794   0.00000  Uiso   1.00
N410   N     0.72785   0.50210   0.51912   0.00000  Uiso   1.00
N411   N     0.86031   0.83521   0.25877   0.00000  Uiso   1.00
N412   N     0.08853   0.47852   0.16291   0.00000  Uiso   1.00
N413   N     0.66977   0.51182   0.43409   0.00000  Uiso   1.00
N414   N     0.80223   0.84493   0.17374   0.00000  Uiso   1.00
C415   C     0.00716   0.13817   0.06775   0.00000  Uiso   1.00
C416   C     0.92972   0.13354   0.09724   0.00000  Uiso   1.00
C417   C     0.90612   0.11161   0.16732   0.00000  Uiso   1.00
C418   C     0.83315   0.11108   0.18366   0.00000  Uiso   1.00
C419   C     0.72017   0.10072   0.23736   0.00000  Uiso   1.00
C420   C     0.03414   0.10166   0.01762   0.00000  Uiso   1.00
C421   C     0.09833   0.05293   0.02075   0.00000  Uiso   1.00
C422   C     0.11327   0.02557   0.97006   0.00000  Uiso   1.00
C423   C     0.16242   0.96573   0.90010   0.00000  Uiso   1.00
C424   C     0.99757   0.20539   0.02287   0.00000  Uiso   1.00
C425   C     0.03104   0.24388   0.03040   0.00000  Uiso   1.00
C426   C     0.01520   0.30385   0.98412   0.00000  Uiso   1.00
C427   C     0.00757   0.40508   0.92232   0.00000  Uiso   1.00
C428   C     0.91955   0.17623   0.97215   0.00000  Uiso   1.00
C429   C     0.88214   0.15421   0.04532   0.00000  Uiso   1.00
C430   C     0.80919   0.15372   0.06156   0.00000  Uiso   1.00
C431   C     0.78548   0.13179   0.13165   0.00000  Uiso   1.00
C432   C     0.98656   0.12233   0.96570   0.00000  Uiso   1.00
C433   C     0.00140   0.09504   0.91498   0.00000  Uiso   1.00
C434   C     0.06560   0.04628   0.91804   0.00000  Uiso   1.00
C435   C     0.94999   0.22606   0.97095   0.00000  Uiso   1.00
C436   C     0.93410   0.28599   0.92464   0.00000  Uiso   1.00
C437   C     0.96753   0.32456   0.93210   0.00000  Uiso   1.00
H438   H     0.04421   0.12207   0.10817   0.00000  Uiso   1.00
H439   H     0.94297   0.09561   0.20749   0.00000  Uiso   1.00
H440   H     0.13515   0.03694   0.06093   0.00000  Uiso   1.00
H441   H     0.06786   0.22786   0.07059   0.00000  Uiso   1.00
H442   H     0.80974   0.07537   0.29470   0.00000  Uiso   1.00
H443   H     0.21499   0.95168   0.98567   0.00000  Uiso   1.00
H444   H     0.07309   0.35427   0.00602   0.00000  Uiso   1.00
H445   H     0.88250   0.19233   0.93172   0.00000  Uiso   1.00
H446   H     0.77238   0.16972   0.02136   0.00000  Uiso   1.00
H447   H     0.96457   0.11105   0.87481   0.00000  Uiso   1.00
H448   H     0.89727   0.30197   0.88446   0.00000  Uiso   1.00
H449   H     0.67128   0.13551   0.14364   0.00000  Uiso   1.00
H450   H     0.07654   0.01182   0.83460   0.00000  Uiso   1.00
H451   H     0.93463   0.41442   0.85496   0.00000  Uiso   1.00
O452   O     0.67099   0.08928   0.28132   0.00000  Uiso   1.00
O453   O     0.20267   0.92701   0.87587   0.00000  Uiso   1.00
O454   O     0.01650   0.45521   0.90258   0.00000  Uiso   1.00
N455   N     0.79226   0.09264   0.24685   0.00000  Uiso   1.00
N456   N     0.17114   0.97699   0.95793   0.00000  Uiso   1.00
N457   N     0.03849   0.35337   0.97694   0.00000  Uiso   1.00
N458   N     0.71776   0.12500   0.16556   0.00000  Uiso   1.00
N459   N     0.09664   0.00935   0.87664   0.00000  Uiso   1.00
N460   N     0.96399   0.38574   0.89566   0.00000  Uiso   1.00
C461   C     0.44786   0.28576   0.47211   0.00000  Uiso   1.00
C462   C     0.42331   0.33064   0.40114   0.00000  Uiso   1.00
C463   C     0.41887   0.39266   0.37515   0.00000  Uiso   1.00
C464   C     0.39514   0.42589   0.30909   0.00000  Uiso   1.00
C465   C     0.35981   0.49982   0.20478   0.00000  Uiso   1.00
C466   C     0.38478   0.25834   0.50868   0.00000  Uiso   1.00
C467   C     0.34795   0.25956   0.57312   0.00000  Uiso   1.00
C468   C     0.29179   0.23193   0.59759   0.00000  Uiso   1.00
C469   C     0.19668   0.19356   0.66025   0.00000  Uiso   1.00
C470   C     0.51204   0.23317   0.45779   0.00000  Uiso   1.00
C471   C     0.58221   0.21322   0.47945   0.00000  Uiso   1.00
C472   C     0.63320   0.16438   0.46109   0.00000  Uiso   1.00
C473   C     0.73568   0.08695   0.44475   0.00000  Uiso   1.00
C474   C     0.41363   0.23449   0.40100   0.00000  Uiso   1.00
C475   C     0.40471   0.30279   0.36252   0.00000  Uiso   1.00
C476   C     0.38099   0.33594   0.29648   0.00000  Uiso   1.00
C477   C     0.37652   0.39800   0.27039   0.00000  Uiso   1.00
C478   C     0.36618   0.23049   0.47006   0.00000  Uiso   1.00
C479   C     0.31008   0.20284   0.49444   0.00000  Uiso   1.00
C480   C     0.27317   0.20403   0.55889   0.00000  Uiso   1.00
C481   C     0.49345   0.20532   0.41917   0.00000  Uiso   1.00
C482   C     0.54434   0.15650   0.40077   0.00000  Uiso   1.00
C483   C     0.61458   0.13648   0.42240   0.00000  Uiso   1.00
H484   H     0.46234   0.30744   0.50219   0.00000  Uiso   1.00
H485   H     0.43325   0.41420   0.40506   0.00000  Uiso   1.00
H486   H     0.36235   0.28111   0.60300   0.00000  Uiso   1.00
H487   H     0.59658   0.23478   0.50934   0.00000  Uiso   1.00
H488   H     0.39279   0.52028   0.28036   0.00000  Uiso   1.00
H489   H     0.24330   0.23965   0.69772   0.00000  Uiso   1.00
H490   H     0.73722   0.14195   0.50024   0.00000  Uiso   1.00
H491   H     0.39916   0.21281   0.37093   0.00000  Uiso   1.00
H492   H     0.36661   0.31437   0.26660   0.00000  Uiso   1.00
H493   H     0.29571   0.18129   0.46454   0.00000  Uiso   1.00
H494   H     0.52993   0.13496   0.37089   0.00000  Uiso   1.00
H495   H     0.33869   0.43926   0.16798   0.00000  Uiso   1.00
H496   H     0.18921   0.15863   0.58535   0.00000  Uiso   1.00
H497   H     0.68312   0.06093   0.38786   0.00000  Uiso   1.00
O498   O     0.34544   0.54829   0.15791   0.00000  Uiso   1.00
O499   O     0.14934   0.18011   0.70549   0.00000  Uiso   1.00
O500   O     0.79734   0.05193   0.44639   0.00000  Uiso   1.00
N501   N     0.38454   0.48727   0.26822   0.00000  Uiso   1.00
N502   N     0.24477   0.22491   0.65843   0.00000  Uiso   1.00
N503   N     0.70653   0.13356   0.47382   0.00000  Uiso   1.00
N504   N     0.35543   0.44367   0.20775   0.00000  Uiso   1.00
N505   N     0.21566   0.18131   0.59796   0.00000  Uiso   1.00
N506   N     0.67743   0.08996   0.41335   0.00000  Uiso   1.00
C507   C     0.59281   0.69376   0.96353   0.00000  Uiso   1.00
C508   C     0.62243   0.63703   0.94088   0.00000  Uiso   1.00
C509   C     0.69625   0.60420   0.93307   0.00000  Uiso   1.00
C510   C     0.71202   0.55365   0.91187   0.00000  Uiso   1.00
C511   C     0.76655   0.46816   0.87862   0.00000  Uiso   1.00
C512   C     0.54672   0.74430   0.90610   0.00000  Uiso   1.00
C513   C     0.55688   0.80167   0.86907   0.00000  Uiso   1.00
C514   C     0.50891   0.84142   0.81861   0.00000  Uiso   1.00
C515   C     0.44587   0.92250   0.73141   0.00000  Uiso   1.00
C516   C     0.53851   0.67846   0.02734   0.00000  Uiso   1.00
C517   C     0.54175   0.68048   0.09223   0.00000  Uiso   1.00
C518   C     0.48685   0.66482   0.14383   0.00000  Uiso   1.00
C519   C     0.41105   0.64366   0.24486   0.00000  Uiso   1.00
C520   C     0.48954   0.66237   0.93978   0.00000  Uiso   1.00
C521   C     0.56634   0.61997   0.92798   0.00000  Uiso   1.00
C522   C     0.58200   0.56946   0.90679   0.00000  Uiso   1.00
C523   C     0.65583   0.53656   0.89895   0.00000  Uiso   1.00
C524   C     0.49063   0.72725   0.89320   0.00000  Uiso   1.00
C525   C     0.44263   0.76693   0.84279   0.00000  Uiso   1.00
C526   C     0.45272   0.82434   0.80569   0.00000  Uiso   1.00
C527   C     0.48242   0.66140   0.01444   0.00000  Uiso   1.00
C528   C     0.42750   0.64574   0.06595   0.00000  Uiso   1.00
C529   C     0.43065   0.64773   0.13091   0.00000  Uiso   1.00
H530   H     0.63648   0.70705   0.97357   0.00000  Uiso   1.00
H531   H     0.73965   0.61741   0.94305   0.00000  Uiso   1.00
H532   H     0.60029   0.81485   0.87907   0.00000  Uiso   1.00
H533   H     0.58516   0.69368   0.10219   0.00000  Uiso   1.00
H534   H     0.82929   0.51053   0.90349   0.00000  Uiso   1.00
H535   H     0.53544   0.92685   0.76860   0.00000  Uiso   1.00
H536   H     0.50353   0.67134   0.23910   0.00000  Uiso   1.00
H537   H     0.44587   0.64909   0.92974   0.00000  Uiso   1.00
H538   H     0.53858   0.55627   0.89681   0.00000  Uiso   1.00
H539   H     0.39923   0.75372   0.83283   0.00000  Uiso   1.00
H540   H     0.38410   0.63254   0.05595   0.00000  Uiso   1.00
H541   H     0.66610   0.46091   0.86596   0.00000  Uiso   1.00
H542   H     0.37225   0.87724   0.73107   0.00000  Uiso   1.00
H543   H     0.34034   0.62172   0.20157   0.00000  Uiso   1.00
O544   O     0.81213   0.42572   0.86384   0.00000  Uiso   1.00
O545   O     0.42660   0.97192   0.68687   0.00000  Uiso   1.00
O546   O     0.38474   0.63669   0.30416   0.00000  Uiso   1.00
N547   N     0.77816   0.51158   0.89919   0.00000  Uiso   1.00
N548   N     0.50344   0.90082   0.77307   0.00000  Uiso   1.00
N549   N     0.47359   0.66195   0.21294   0.00000  Uiso   1.00
N550   N     0.69035   0.48488   0.87900   0.00000  Uiso   1.00
N551   N     0.41563   0.87412   0.75287   0.00000  Uiso   1.00
N552   N     0.38578   0.63525   0.19275   0.00000  Uiso   1.00
