data_job_05648
_audit_creation_date              2018-12-19
_audit_creation_method            'Materials Studio'
_symmetry_space_group_name_H-M    'P1'
_symmetry_Int_Tables_number       1
_symmetry_cell_setting            triclinic
loop_
_symmetry_equiv_pos_as_xyz
  x,y,z
_cell_length_a                    9.8661
_cell_length_b                    39.2699
_cell_length_c                    7.7082
_cell_angle_alpha                 90.0000
_cell_angle_beta                  90.0000
_cell_angle_gamma                 90.0000
loop_
_atom_site_label
_atom_site_type_symbol
_atom_site_fract_x
_atom_site_fract_y
_atom_site_fract_z
_atom_site_U_iso_or_equiv
_atom_site_adp_type
_atom_site_occupancy
C1     C     0.94828   0.60403   0.56036   0.00000  Uiso   1.00
C2     C     0.03409   0.63345   0.62829   0.00000  Uiso   1.00
C3     C     0.05845   0.66387   0.54216   0.00000  Uiso   1.00
C4     C     0.13967   0.68757   0.62618   0.00000  Uiso   1.00
C5     C     0.26463   0.73424   0.70664   0.00000  Uiso   1.00
C6     C     0.04005   0.57279   0.56249   0.00000  Uiso   1.00
C7     C     0.06940   0.55221   0.42103   0.00000  Uiso   1.00
C8     C     0.15563   0.52484   0.44967   0.00000  Uiso   1.00
C9     C     0.28976   0.47731   0.42799   0.00000  Uiso   1.00
C10    C     0.83988   0.59763   0.69754   0.00000  Uiso   1.00
C11    C     0.70092   0.59791   0.66962   0.00000  Uiso   1.00
C12    C     0.61861   0.59144   0.81197   0.00000  Uiso   1.00
C13    C     0.44194   0.58248   0.99996   0.00000  Uiso   1.00
C14    C     0.04921   0.59202   0.86277   0.00000  Uiso   1.00
C15    C     0.08891   0.62692   0.79255   0.00000  Uiso   1.00
C16    C     0.17011   0.65058   0.87673   0.00000  Uiso   1.00
C17    C     0.19459   0.68104   0.79074   0.00000  Uiso   1.00
C18    C     0.09487   0.56626   0.72674   0.00000  Uiso   1.00
C19    C     0.18106   0.53892   0.75560   0.00000  Uiso   1.00
C20    C     0.21055   0.51830   0.61422   0.00000  Uiso   1.00
C21    C     0.89469   0.59110   0.86179   0.00000  Uiso   1.00
C22    C     0.81258   0.58462   0.00420   0.00000  Uiso   1.00
C23    C     0.67353   0.58491   0.97651   0.00000  Uiso   1.00
H24    H     0.90561   0.60911   0.43248   0.00000  Uiso   1.00
H25    H     0.01602   0.66891   0.41504   0.00000  Uiso   1.00
H26    H     0.02696   0.55726   0.29394   0.00000  Uiso   1.00
H27    H     0.65854   0.60297   0.54250   0.00000  Uiso   1.00
H28    H     0.16265   0.73233   0.46810   0.00000  Uiso   1.00
H29    H     0.18567   0.49690   0.21277   0.00000  Uiso   1.00
H30    H     0.40878   0.59327   0.73690   0.00000  Uiso   1.00
H31    H     0.09189   0.58694   0.99065   0.00000  Uiso   1.00
H32    H     0.21252   0.64552   0.00384   0.00000  Uiso   1.00
H33    H     0.22346   0.53387   0.88273   0.00000  Uiso   1.00
H34    H     0.85504   0.57958   0.13129   0.00000  Uiso   1.00
H35    H     0.32214   0.71335   0.94599   0.00000  Uiso   1.00
H36    H     0.34516   0.47792   0.69066   0.00000  Uiso   1.00
H37    H     0.56827   0.57429   0.21479   0.00000  Uiso   1.00
O38    O     0.31843   0.76177   0.70563   0.00000  Uiso   1.00
O39    O     0.34861   0.45290   0.37064   0.00000  Uiso   1.00
O40    O     0.32935   0.57934   0.05829   0.00000  Uiso   1.00
N41    N     0.18361   0.71983   0.57878   0.00000  Uiso   1.00
N42    N     0.20515   0.49972   0.34005   0.00000  Uiso   1.00
N43    N     0.47882   0.58981   0.83006   0.00000  Uiso   1.00
N44    N     0.26943   0.70961   0.83593   0.00000  Uiso   1.00
N45    N     0.29097   0.48950   0.59720   0.00000  Uiso   1.00
N46    N     0.56464   0.57959   0.08721   0.00000  Uiso   1.00
C47    C     0.05172   0.39597   0.56036   0.00000  Uiso   1.00
C48    C     0.96591   0.36655   0.62829   0.00000  Uiso   1.00
C49    C     0.94155   0.33613   0.54216   0.00000  Uiso   1.00
C50    C     0.86033   0.31243   0.62618   0.00000  Uiso   1.00
C51    C     0.73537   0.26576   0.70664   0.00000  Uiso   1.00
C52    C     0.95995   0.42721   0.56249   0.00000  Uiso   1.00
C53    C     0.93060   0.44779   0.42103   0.00000  Uiso   1.00
C54    C     0.84437   0.47516   0.44967   0.00000  Uiso   1.00
C55    C     0.71024   0.52269   0.42799   0.00000  Uiso   1.00
C56    C     0.16012   0.40237   0.69754   0.00000  Uiso   1.00
C57    C     0.29908   0.40209   0.66962   0.00000  Uiso   1.00
C58    C     0.38139   0.40856   0.81197   0.00000  Uiso   1.00
C59    C     0.55806   0.41752   0.99996   0.00000  Uiso   1.00
C60    C     0.95079   0.40798   0.86277   0.00000  Uiso   1.00
C61    C     0.91109   0.37308   0.79255   0.00000  Uiso   1.00
C62    C     0.82989   0.34942   0.87673   0.00000  Uiso   1.00
C63    C     0.80541   0.31896   0.79074   0.00000  Uiso   1.00
C64    C     0.90513   0.43374   0.72674   0.00000  Uiso   1.00
C65    C     0.81894   0.46108   0.75560   0.00000  Uiso   1.00
C66    C     0.78945   0.48170   0.61422   0.00000  Uiso   1.00
C67    C     0.10531   0.40890   0.86179   0.00000  Uiso   1.00
C68    C     0.18742   0.41538   0.00420   0.00000  Uiso   1.00
C69    C     0.32647   0.41509   0.97651   0.00000  Uiso   1.00
H70    H     0.09439   0.39089   0.43248   0.00000  Uiso   1.00
H71    H     0.98398   0.33109   0.41504   0.00000  Uiso   1.00
H72    H     0.97304   0.44274   0.29394   0.00000  Uiso   1.00
H73    H     0.34146   0.39703   0.54250   0.00000  Uiso   1.00
H74    H     0.83735   0.26767   0.46810   0.00000  Uiso   1.00
H75    H     0.81433   0.50310   0.21277   0.00000  Uiso   1.00
H76    H     0.59122   0.40673   0.73690   0.00000  Uiso   1.00
H77    H     0.90811   0.41306   0.99065   0.00000  Uiso   1.00
H78    H     0.78748   0.35448   0.00384   0.00000  Uiso   1.00
H79    H     0.77654   0.46613   0.88273   0.00000  Uiso   1.00
H80    H     0.14496   0.42042   0.13129   0.00000  Uiso   1.00
H81    H     0.67786   0.28665   0.94599   0.00000  Uiso   1.00
H82    H     0.65484   0.52208   0.69066   0.00000  Uiso   1.00
H83    H     0.43173   0.42571   0.21479   0.00000  Uiso   1.00
O84    O     0.68157   0.23823   0.70563   0.00000  Uiso   1.00
O85    O     0.65139   0.54710   0.37064   0.00000  Uiso   1.00
O86    O     0.67065   0.42066   0.05829   0.00000  Uiso   1.00
N87    N     0.81639   0.28017   0.57878   0.00000  Uiso   1.00
N88    N     0.79485   0.50028   0.34005   0.00000  Uiso   1.00
N89    N     0.52118   0.41019   0.83006   0.00000  Uiso   1.00
N90    N     0.73057   0.29039   0.83593   0.00000  Uiso   1.00
N91    N     0.70903   0.51050   0.59720   0.00000  Uiso   1.00
N92    N     0.43536   0.42041   0.08721   0.00000  Uiso   1.00
C93    C     0.94828   0.89597   0.06036   0.00000  Uiso   1.00
C94    C     0.03409   0.86655   0.12829   0.00000  Uiso   1.00
C95    C     0.05845   0.83613   0.04216   0.00000  Uiso   1.00
C96    C     0.13967   0.81243   0.12618   0.00000  Uiso   1.00
C97    C     0.26463   0.76576   0.20664   0.00000  Uiso   1.00
C98    C     0.04005   0.92721   0.06249   0.00000  Uiso   1.00
C99    C     0.06940   0.94779   0.92103   0.00000  Uiso   1.00
C100   C     0.15563   0.97516   0.94967   0.00000  Uiso   1.00
C101   C     0.28976   0.02269   0.92799   0.00000  Uiso   1.00
C102   C     0.83988   0.90237   0.19754   0.00000  Uiso   1.00
C103   C     0.70092   0.90209   0.16962   0.00000  Uiso   1.00
C104   C     0.61861   0.90856   0.31197   0.00000  Uiso   1.00
C105   C     0.44194   0.91752   0.49996   0.00000  Uiso   1.00
C106   C     0.04921   0.90798   0.36277   0.00000  Uiso   1.00
C107   C     0.08891   0.87308   0.29255   0.00000  Uiso   1.00
C108   C     0.17011   0.84942   0.37673   0.00000  Uiso   1.00
C109   C     0.19459   0.81896   0.29074   0.00000  Uiso   1.00
C110   C     0.09487   0.93374   0.22674   0.00000  Uiso   1.00
C111   C     0.18106   0.96108   0.25560   0.00000  Uiso   1.00
C112   C     0.21055   0.98170   0.11422   0.00000  Uiso   1.00
C113   C     0.89469   0.90890   0.36179   0.00000  Uiso   1.00
C114   C     0.81258   0.91538   0.50420   0.00000  Uiso   1.00
C115   C     0.67353   0.91509   0.47651   0.00000  Uiso   1.00
H116   H     0.90561   0.89089   0.93248   0.00000  Uiso   1.00
H117   H     0.01602   0.83109   0.91504   0.00000  Uiso   1.00
H118   H     0.02696   0.94274   0.79394   0.00000  Uiso   1.00
H119   H     0.65854   0.89703   0.04250   0.00000  Uiso   1.00
H120   H     0.16265   0.76767   0.96810   0.00000  Uiso   1.00
H121   H     0.18567   0.00310   0.71277   0.00000  Uiso   1.00
H122   H     0.40878   0.90673   0.23690   0.00000  Uiso   1.00
H123   H     0.09189   0.91306   0.49065   0.00000  Uiso   1.00
H124   H     0.21252   0.85448   0.50384   0.00000  Uiso   1.00
H125   H     0.22346   0.96613   0.38273   0.00000  Uiso   1.00
H126   H     0.85504   0.92042   0.63129   0.00000  Uiso   1.00
H127   H     0.32214   0.78665   0.44599   0.00000  Uiso   1.00
H128   H     0.34516   0.02208   0.19066   0.00000  Uiso   1.00
H129   H     0.56827   0.92571   0.71479   0.00000  Uiso   1.00
O130   O     0.31843   0.73823   0.20563   0.00000  Uiso   1.00
O131   O     0.34861   0.04710   0.87064   0.00000  Uiso   1.00
O132   O     0.32935   0.92066   0.55829   0.00000  Uiso   1.00
N133   N     0.18361   0.78017   0.07878   0.00000  Uiso   1.00
N134   N     0.20515   0.00028   0.84005   0.00000  Uiso   1.00
N135   N     0.47882   0.91019   0.33006   0.00000  Uiso   1.00
N136   N     0.26943   0.79039   0.33593   0.00000  Uiso   1.00
N137   N     0.29097   0.01050   0.09720   0.00000  Uiso   1.00
N138   N     0.56464   0.92041   0.58721   0.00000  Uiso   1.00
C139   C     0.05172   0.10403   0.06036   0.00000  Uiso   1.00
C140   C     0.96591   0.13345   0.12829   0.00000  Uiso   1.00
C141   C     0.94155   0.16387   0.04216   0.00000  Uiso   1.00
C142   C     0.86033   0.18757   0.12618   0.00000  Uiso   1.00
C143   C     0.73537   0.23424   0.20664   0.00000  Uiso   1.00
C144   C     0.95995   0.07279   0.06249   0.00000  Uiso   1.00
C145   C     0.93060   0.05221   0.92103   0.00000  Uiso   1.00
C146   C     0.84437   0.02484   0.94967   0.00000  Uiso   1.00
C147   C     0.71024   0.97731   0.92799   0.00000  Uiso   1.00
C148   C     0.16012   0.09763   0.19754   0.00000  Uiso   1.00
C149   C     0.29908   0.09791   0.16962   0.00000  Uiso   1.00
C150   C     0.38139   0.09144   0.31197   0.00000  Uiso   1.00
C151   C     0.55806   0.08248   0.49996   0.00000  Uiso   1.00
C152   C     0.95079   0.09202   0.36277   0.00000  Uiso   1.00
C153   C     0.91109   0.12692   0.29255   0.00000  Uiso   1.00
C154   C     0.82989   0.15058   0.37673   0.00000  Uiso   1.00
C155   C     0.80541   0.18104   0.29074   0.00000  Uiso   1.00
C156   C     0.90513   0.06626   0.22674   0.00000  Uiso   1.00
C157   C     0.81894   0.03892   0.25560   0.00000  Uiso   1.00
C158   C     0.78945   0.01830   0.11422   0.00000  Uiso   1.00
C159   C     0.10531   0.09110   0.36179   0.00000  Uiso   1.00
C160   C     0.18742   0.08462   0.50420   0.00000  Uiso   1.00
C161   C     0.32647   0.08491   0.47651   0.00000  Uiso   1.00
H162   H     0.09439   0.10911   0.93248   0.00000  Uiso   1.00
H163   H     0.98398   0.16891   0.91504   0.00000  Uiso   1.00
H164   H     0.97304   0.05726   0.79394   0.00000  Uiso   1.00
H165   H     0.34146   0.10297   0.04250   0.00000  Uiso   1.00
H166   H     0.83735   0.23233   0.96810   0.00000  Uiso   1.00
H167   H     0.81433   0.99690   0.71277   0.00000  Uiso   1.00
H168   H     0.59122   0.09327   0.23690   0.00000  Uiso   1.00
H169   H     0.90811   0.08694   0.49065   0.00000  Uiso   1.00
H170   H     0.78748   0.14552   0.50384   0.00000  Uiso   1.00
H171   H     0.77654   0.03387   0.38273   0.00000  Uiso   1.00
H172   H     0.14496   0.07958   0.63129   0.00000  Uiso   1.00
H173   H     0.67786   0.21335   0.44599   0.00000  Uiso   1.00
H174   H     0.65484   0.97792   0.19066   0.00000  Uiso   1.00
H175   H     0.43173   0.07429   0.71479   0.00000  Uiso   1.00
O176   O     0.68157   0.26177   0.20563   0.00000  Uiso   1.00
O177   O     0.65139   0.95290   0.87064   0.00000  Uiso   1.00
O178   O     0.67065   0.07934   0.55829   0.00000  Uiso   1.00
N179   N     0.81639   0.21983   0.07878   0.00000  Uiso   1.00
N180   N     0.79485   0.99972   0.84005   0.00000  Uiso   1.00
N181   N     0.52118   0.08981   0.33006   0.00000  Uiso   1.00
N182   N     0.73057   0.20961   0.33593   0.00000  Uiso   1.00
N183   N     0.70903   0.98950   0.09720   0.00000  Uiso   1.00
N184   N     0.43536   0.07959   0.58721   0.00000  Uiso   1.00
