data_job_01269
_audit_creation_date              2018-12-19
_audit_creation_method            'Materials Studio'
_symmetry_space_group_name_H-M    'P1'
_symmetry_Int_Tables_number       1
_symmetry_cell_setting            triclinic
loop_
_symmetry_equiv_pos_as_xyz
  x,y,z
_cell_length_a                    14.3935
_cell_length_b                    17.7955
_cell_length_c                    9.7904
_cell_angle_alpha                 90.0000
_cell_angle_beta                  72.6036
_cell_angle_gamma                 90.0000
loop_
_atom_site_label
_atom_site_type_symbol
_atom_site_fract_x
_atom_site_fract_y
_atom_site_fract_z
_atom_site_U_iso_or_equiv
_atom_site_adp_type
_atom_site_occupancy
C1     C     0.71620   0.61487   0.33724   0.00000  Uiso   1.00
C2     C     0.81870   0.63861   0.25074   0.00000  Uiso   1.00
C3     C     0.84195   0.69877   0.15643   0.00000  Uiso   1.00
C4     C     0.94005   0.71121   0.08763   0.00000  Uiso   1.00
C5     C     0.08824   0.75507   0.94950   0.00000  Uiso   1.00
C6     C     0.70600   0.53290   0.29864   0.00000  Uiso   1.00
C7     C     0.63448   0.50418   0.24462   0.00000  Uiso   1.00
C8     C     0.63770   0.42763   0.21616   0.00000  Uiso   1.00
C9     C     0.61087   0.30735   0.15250   0.00000  Uiso   1.00
C10    C     0.71494   0.61493   0.49354   0.00000  Uiso   1.00
C11    C     0.65092   0.65516   0.60340   0.00000  Uiso   1.00
C12    C     0.66165   0.64766   0.73905   0.00000  Uiso   1.00
C13    C     0.64869   0.65475   0.97799   0.00000  Uiso   1.00
C14    C     0.84907   0.52999   0.38278   0.00000  Uiso   1.00
C15    C     0.89087   0.59251   0.27548   0.00000  Uiso   1.00
C16    C     0.98896   0.60486   0.20681   0.00000  Uiso   1.00
C17    C     0.01235   0.66503   0.11241   0.00000  Uiso   1.00
C18    C     0.77817   0.48680   0.32337   0.00000  Uiso   1.00
C19    C     0.78149   0.41027   0.29500   0.00000  Uiso   1.00
C20    C     0.71000   0.38144   0.24094   0.00000  Uiso   1.00
C21    C     0.78711   0.56883   0.51827   0.00000  Uiso   1.00
C22    C     0.79793   0.56126   0.65378   0.00000  Uiso   1.00
C23    C     0.73394   0.60148   0.76382   0.00000  Uiso   1.00
H24    H     0.66001   0.65076   0.31799   0.00000  Uiso   1.00
H25    H     0.78608   0.73443   0.13731   0.00000  Uiso   1.00
H26    H     0.57864   0.53987   0.22551   0.00000  Uiso   1.00
H27    H     0.59508   0.69084   0.58422   0.00000  Uiso   1.00
H28    H     0.95768   0.80685   0.94786   0.00000  Uiso   1.00
H29    H     0.52026   0.39660   0.13387   0.00000  Uiso   1.00
H30    H     0.55492   0.71494   0.89031   0.00000  Uiso   1.00
H31    H     0.90525   0.49409   0.40203   0.00000  Uiso   1.00
H32    H     0.04479   0.56917   0.22597   0.00000  Uiso   1.00
H33    H     0.83734   0.37461   0.31416   0.00000  Uiso   1.00
H34    H     0.85379   0.52557   0.67288   0.00000  Uiso   1.00
H35    H     0.16766   0.67272   0.01982   0.00000  Uiso   1.00
H36    H     0.73023   0.26247   0.20583   0.00000  Uiso   1.00
H37    H     0.76490   0.58080   0.96226   0.00000  Uiso   1.00
O38    O     0.15003   0.79198   0.86647   0.00000  Uiso   1.00
O39    O     0.57614   0.25375   0.11053   0.00000  Uiso   1.00
O40    O     0.62162   0.67141   0.10295   0.00000  Uiso   1.00
N41    N     0.98795   0.76499   0.98898   0.00000  Uiso   1.00
N42    N     0.57900   0.38143   0.16287   0.00000  Uiso   1.00
N43    N     0.61139   0.67903   0.87008   0.00000  Uiso   1.00
N44    N     0.10094   0.69281   0.02770   0.00000  Uiso   1.00
N45    N     0.69198   0.30926   0.20159   0.00000  Uiso   1.00
N46    N     0.72437   0.60686   0.90880   0.00000  Uiso   1.00
C47    C     0.28380   0.11487   0.16276   0.00000  Uiso   1.00
C48    C     0.18130   0.13861   0.24926   0.00000  Uiso   1.00
C49    C     0.15805   0.19877   0.34357   0.00000  Uiso   1.00
C50    C     0.05995   0.21121   0.41237   0.00000  Uiso   1.00
C51    C     0.91176   0.25507   0.55050   0.00000  Uiso   1.00
C52    C     0.29400   0.03290   0.20136   0.00000  Uiso   1.00
C53    C     0.36552   0.00418   0.25538   0.00000  Uiso   1.00
C54    C     0.36230   0.92763   0.28384   0.00000  Uiso   1.00
C55    C     0.38913   0.80735   0.34750   0.00000  Uiso   1.00
C56    C     0.28506   0.11493   0.00646   0.00000  Uiso   1.00
C57    C     0.34908   0.15516   0.89660   0.00000  Uiso   1.00
C58    C     0.33835   0.14766   0.76095   0.00000  Uiso   1.00
C59    C     0.35131   0.15475   0.52201   0.00000  Uiso   1.00
C60    C     0.15093   0.02999   0.11722   0.00000  Uiso   1.00
C61    C     0.10913   0.09251   0.22452   0.00000  Uiso   1.00
C62    C     0.01104   0.10486   0.29319   0.00000  Uiso   1.00
C63    C     0.98765   0.16503   0.38759   0.00000  Uiso   1.00
C64    C     0.22183   0.98680   0.17663   0.00000  Uiso   1.00
C65    C     0.21851   0.91027   0.20500   0.00000  Uiso   1.00
C66    C     0.29000   0.88144   0.25906   0.00000  Uiso   1.00
C67    C     0.21289   0.06883   0.98173   0.00000  Uiso   1.00
C68    C     0.20207   0.06126   0.84622   0.00000  Uiso   1.00
C69    C     0.26606   0.10148   0.73618   0.00000  Uiso   1.00
H70    H     0.33999   0.15076   0.18201   0.00000  Uiso   1.00
H71    H     0.21392   0.23443   0.36269   0.00000  Uiso   1.00
H72    H     0.42136   0.03987   0.27449   0.00000  Uiso   1.00
H73    H     0.40492   0.19084   0.91578   0.00000  Uiso   1.00
H74    H     0.04232   0.30685   0.55214   0.00000  Uiso   1.00
H75    H     0.47974   0.89660   0.36613   0.00000  Uiso   1.00
H76    H     0.44508   0.21494   0.60969   0.00000  Uiso   1.00
H77    H     0.09475   0.99409   0.09797   0.00000  Uiso   1.00
H78    H     0.95521   0.06917   0.27403   0.00000  Uiso   1.00
H79    H     0.16266   0.87461   0.18584   0.00000  Uiso   1.00
H80    H     0.14621   0.02557   0.82712   0.00000  Uiso   1.00
H81    H     0.83234   0.17272   0.48018   0.00000  Uiso   1.00
H82    H     0.26977   0.76247   0.29417   0.00000  Uiso   1.00
H83    H     0.23510   0.08080   0.53774   0.00000  Uiso   1.00
O84    O     0.84997   0.29198   0.63353   0.00000  Uiso   1.00
O85    O     0.42386   0.75375   0.38947   0.00000  Uiso   1.00
O86    O     0.37838   0.17141   0.39705   0.00000  Uiso   1.00
N87    N     0.01205   0.26499   0.51102   0.00000  Uiso   1.00
N88    N     0.42100   0.88143   0.33713   0.00000  Uiso   1.00
N89    N     0.38861   0.17903   0.62992   0.00000  Uiso   1.00
N90    N     0.89906   0.19281   0.47230   0.00000  Uiso   1.00
N91    N     0.30802   0.80926   0.29841   0.00000  Uiso   1.00
N92    N     0.27563   0.10686   0.59120   0.00000  Uiso   1.00
C93    C     0.28380   0.38513   0.66276   0.00000  Uiso   1.00
C94    C     0.18130   0.36139   0.74926   0.00000  Uiso   1.00
C95    C     0.15805   0.30123   0.84357   0.00000  Uiso   1.00
C96    C     0.05995   0.28879   0.91237   0.00000  Uiso   1.00
C97    C     0.91176   0.24493   0.05050   0.00000  Uiso   1.00
C98    C     0.29400   0.46710   0.70136   0.00000  Uiso   1.00
C99    C     0.36552   0.49582   0.75538   0.00000  Uiso   1.00
C100   C     0.36230   0.57237   0.78384   0.00000  Uiso   1.00
C101   C     0.38913   0.69265   0.84750   0.00000  Uiso   1.00
C102   C     0.28506   0.38507   0.50646   0.00000  Uiso   1.00
C103   C     0.34908   0.34484   0.39660   0.00000  Uiso   1.00
C104   C     0.33835   0.35234   0.26095   0.00000  Uiso   1.00
C105   C     0.35131   0.34525   0.02201   0.00000  Uiso   1.00
C106   C     0.15093   0.47001   0.61722   0.00000  Uiso   1.00
C107   C     0.10913   0.40749   0.72452   0.00000  Uiso   1.00
C108   C     0.01104   0.39514   0.79319   0.00000  Uiso   1.00
C109   C     0.98765   0.33497   0.88759   0.00000  Uiso   1.00
C110   C     0.22183   0.51320   0.67663   0.00000  Uiso   1.00
C111   C     0.21851   0.58973   0.70500   0.00000  Uiso   1.00
C112   C     0.29000   0.61856   0.75906   0.00000  Uiso   1.00
C113   C     0.21289   0.43117   0.48173   0.00000  Uiso   1.00
C114   C     0.20207   0.43874   0.34622   0.00000  Uiso   1.00
C115   C     0.26606   0.39852   0.23618   0.00000  Uiso   1.00
H116   H     0.33999   0.34924   0.68201   0.00000  Uiso   1.00
H117   H     0.21392   0.26557   0.86269   0.00000  Uiso   1.00
H118   H     0.42136   0.46013   0.77449   0.00000  Uiso   1.00
H119   H     0.40492   0.30916   0.41578   0.00000  Uiso   1.00
H120   H     0.04232   0.19315   0.05214   0.00000  Uiso   1.00
H121   H     0.47974   0.60340   0.86613   0.00000  Uiso   1.00
H122   H     0.44508   0.28506   0.10969   0.00000  Uiso   1.00
H123   H     0.09475   0.50591   0.59797   0.00000  Uiso   1.00
H124   H     0.95521   0.43083   0.77403   0.00000  Uiso   1.00
H125   H     0.16266   0.62539   0.68584   0.00000  Uiso   1.00
H126   H     0.14621   0.47443   0.32712   0.00000  Uiso   1.00
H127   H     0.83234   0.32728   0.98018   0.00000  Uiso   1.00
H128   H     0.26977   0.73753   0.79417   0.00000  Uiso   1.00
H129   H     0.23510   0.41920   0.03774   0.00000  Uiso   1.00
O130   O     0.84997   0.20802   0.13353   0.00000  Uiso   1.00
O131   O     0.42386   0.74625   0.88947   0.00000  Uiso   1.00
O132   O     0.37838   0.32859   0.89705   0.00000  Uiso   1.00
N133   N     0.01205   0.23501   0.01102   0.00000  Uiso   1.00
N134   N     0.42100   0.61857   0.83713   0.00000  Uiso   1.00
N135   N     0.38861   0.32097   0.12992   0.00000  Uiso   1.00
N136   N     0.89906   0.30719   0.97230   0.00000  Uiso   1.00
N137   N     0.30802   0.69074   0.79841   0.00000  Uiso   1.00
N138   N     0.27563   0.39314   0.09120   0.00000  Uiso   1.00
C139   C     0.71620   0.88513   0.83724   0.00000  Uiso   1.00
C140   C     0.81870   0.86139   0.75074   0.00000  Uiso   1.00
C141   C     0.84195   0.80123   0.65643   0.00000  Uiso   1.00
C142   C     0.94005   0.78879   0.58763   0.00000  Uiso   1.00
C143   C     0.08824   0.74493   0.44950   0.00000  Uiso   1.00
C144   C     0.70600   0.96710   0.79864   0.00000  Uiso   1.00
C145   C     0.63448   0.99582   0.74462   0.00000  Uiso   1.00
C146   C     0.63770   0.07237   0.71616   0.00000  Uiso   1.00
C147   C     0.61087   0.19265   0.65250   0.00000  Uiso   1.00
C148   C     0.71494   0.88507   0.99354   0.00000  Uiso   1.00
C149   C     0.65092   0.84484   0.10340   0.00000  Uiso   1.00
C150   C     0.66165   0.85234   0.23905   0.00000  Uiso   1.00
C151   C     0.64869   0.84525   0.47799   0.00000  Uiso   1.00
C152   C     0.84907   0.97001   0.88278   0.00000  Uiso   1.00
C153   C     0.89087   0.90749   0.77548   0.00000  Uiso   1.00
C154   C     0.98896   0.89514   0.70681   0.00000  Uiso   1.00
C155   C     0.01235   0.83497   0.61241   0.00000  Uiso   1.00
C156   C     0.77817   0.01320   0.82337   0.00000  Uiso   1.00
C157   C     0.78149   0.08973   0.79500   0.00000  Uiso   1.00
C158   C     0.71000   0.11856   0.74094   0.00000  Uiso   1.00
C159   C     0.78711   0.93117   0.01827   0.00000  Uiso   1.00
C160   C     0.79793   0.93874   0.15378   0.00000  Uiso   1.00
C161   C     0.73394   0.89852   0.26382   0.00000  Uiso   1.00
H162   H     0.66001   0.84924   0.81799   0.00000  Uiso   1.00
H163   H     0.78608   0.76557   0.63731   0.00000  Uiso   1.00
H164   H     0.57864   0.96013   0.72551   0.00000  Uiso   1.00
H165   H     0.59508   0.80916   0.08422   0.00000  Uiso   1.00
H166   H     0.95768   0.69315   0.44786   0.00000  Uiso   1.00
H167   H     0.52026   0.10340   0.63387   0.00000  Uiso   1.00
H168   H     0.55492   0.78506   0.39031   0.00000  Uiso   1.00
H169   H     0.90525   0.00591   0.90203   0.00000  Uiso   1.00
H170   H     0.04479   0.93083   0.72597   0.00000  Uiso   1.00
H171   H     0.83734   0.12539   0.81416   0.00000  Uiso   1.00
H172   H     0.85379   0.97443   0.17288   0.00000  Uiso   1.00
H173   H     0.16766   0.82728   0.51982   0.00000  Uiso   1.00
H174   H     0.73023   0.23753   0.70583   0.00000  Uiso   1.00
H175   H     0.76490   0.91920   0.46226   0.00000  Uiso   1.00
O176   O     0.15003   0.70802   0.36647   0.00000  Uiso   1.00
O177   O     0.57614   0.24625   0.61053   0.00000  Uiso   1.00
O178   O     0.62162   0.82859   0.60295   0.00000  Uiso   1.00
N179   N     0.98795   0.73501   0.48898   0.00000  Uiso   1.00
N180   N     0.57900   0.11857   0.66287   0.00000  Uiso   1.00
N181   N     0.61139   0.82097   0.37008   0.00000  Uiso   1.00
N182   N     0.10094   0.80719   0.52770   0.00000  Uiso   1.00
N183   N     0.69198   0.19074   0.70159   0.00000  Uiso   1.00
N184   N     0.72437   0.89314   0.40880   0.00000  Uiso   1.00
