data_job_06658
_audit_creation_date              2018-12-19
_audit_creation_method            'Materials Studio'
_symmetry_space_group_name_H-M    'P1'
_symmetry_Int_Tables_number       1
_symmetry_cell_setting            triclinic
loop_
_symmetry_equiv_pos_as_xyz
  x,y,z
_cell_length_a                    18.2658
_cell_length_b                    19.6006
_cell_length_c                    23.9845
_cell_angle_alpha                 102.9697
_cell_angle_beta                  85.0095
_cell_angle_gamma                 71.7591
loop_
_atom_site_label
_atom_site_type_symbol
_atom_site_fract_x
_atom_site_fract_y
_atom_site_fract_z
_atom_site_U_iso_or_equiv
_atom_site_adp_type
_atom_site_occupancy
C1     C     0.97925   0.85860   0.51526   0.00000  Uiso   1.00
C2     C     0.00578   0.77907   0.47657   0.00000  Uiso   1.00
C3     C     0.98452   0.72122   0.48873   0.00000  Uiso   1.00
C4     C     0.01504   0.65257   0.44779   0.00000  Uiso   1.00
C5     C     0.04867   0.53064   0.39553   0.00000  Uiso   1.00
C6     C     0.05377   0.87487   0.52659   0.00000  Uiso   1.00
C7     C     0.07285   0.89758   0.58080   0.00000  Uiso   1.00
C8     C     0.14375   0.90958   0.58196   0.00000  Uiso   1.00
C9     C     0.25185   0.93644   0.60736   0.00000  Uiso   1.00
C10    C     0.94125   0.90881   0.47798   0.00000  Uiso   1.00
C11    C     0.86573   0.96008   0.49131   0.00000  Uiso   1.00
C12    C     0.84192   0.00067   0.45155   0.00000  Uiso   1.00
C13    C     0.77532   0.08023   0.40146   0.00000  Uiso   1.00
C14    C     0.07125   0.83956   0.42094   0.00000  Uiso   1.00
C15    C     0.05576   0.76873   0.42535   0.00000  Uiso   1.00
C16    C     0.08631   0.70014   0.38438   0.00000  Uiso   1.00
C17    C     0.06510   0.64220   0.39647   0.00000  Uiso   1.00
C18    C     0.10374   0.86453   0.47536   0.00000  Uiso   1.00
C19    C     0.17463   0.87650   0.47645   0.00000  Uiso   1.00
C20    C     0.19382   0.89922   0.53064   0.00000  Uiso   1.00
C21    C     0.99122   0.89847   0.42674   0.00000  Uiso   1.00
C22    C     0.96752   0.93900   0.38696   0.00000  Uiso   1.00
C23    C     0.89198   0.99031   0.40023   0.00000  Uiso   1.00
H24    H     0.94035   0.86666   0.55514   0.00000  Uiso   1.00
H25    H     0.94586   0.72925   0.52838   0.00000  Uiso   1.00
H26    H     0.03416   0.90559   0.62044   0.00000  Uiso   1.00
H27    H     0.82708   0.96807   0.53096   0.00000  Uiso   1.00
H28    H     0.97402   0.57233   0.47613   0.00000  Uiso   1.00
H29    H     0.16020   0.94418   0.67023   0.00000  Uiso   1.00
H30    H     0.72353   0.07593   0.48156   0.00000  Uiso   1.00
H31    H     0.11016   0.83150   0.38105   0.00000  Uiso   1.00
H32    H     0.12498   0.69215   0.34474   0.00000  Uiso   1.00
H33    H     0.21329   0.86850   0.43679   0.00000  Uiso   1.00
H34    H     0.00621   0.93098   0.34732   0.00000  Uiso   1.00
H35    H     0.11941   0.54222   0.32708   0.00000  Uiso   1.00
H36    H     0.30559   0.91408   0.52118   0.00000  Uiso   1.00
H37    H     0.86892   0.04583   0.33251   0.00000  Uiso   1.00
O38    O     0.05342   0.46624   0.38087   0.00000  Uiso   1.00
O39    O     0.29768   0.95410   0.63552   0.00000  Uiso   1.00
O40    O     0.72478   0.12696   0.38798   0.00000  Uiso   1.00
N41    N     0.00619   0.58437   0.44603   0.00000  Uiso   1.00
N42    N     0.18027   0.93201   0.62750   0.00000  Uiso   1.00
N43    N     0.77202   0.05521   0.45112   0.00000  Uiso   1.00
N44    N     0.08442   0.56817   0.36583   0.00000  Uiso   1.00
N45    N     0.25850   0.91581   0.54730   0.00000  Uiso   1.00
N46    N     0.85025   0.03901   0.37091   0.00000  Uiso   1.00
C47    C     0.61033   0.43648   0.66498   0.00000  Uiso   1.00
C48    C     0.65308   0.48351   0.64329   0.00000  Uiso   1.00
C49    C     0.71733   0.45708   0.59909   0.00000  Uiso   1.00
C50    C     0.74801   0.50904   0.58570   0.00000  Uiso   1.00
C51    C     0.81935   0.57056   0.54751   0.00000  Uiso   1.00
C52    C     0.61202   0.45053   0.72994   0.00000  Uiso   1.00
C53    C     0.64174   0.39636   0.75860   0.00000  Uiso   1.00
C54    C     0.63786   0.42056   0.81816   0.00000  Uiso   1.00
C55    C     0.64540   0.43086   0.91450   0.00000  Uiso   1.00
C56    C     0.52495   0.47085   0.65929   0.00000  Uiso   1.00
C57    C     0.48146   0.43377   0.62855   0.00000  Uiso   1.00
C58    C     0.40426   0.47507   0.62863   0.00000  Uiso   1.00
C59    C     0.27662   0.51693   0.61527   0.00000  Uiso   1.00
C60    C     0.55058   0.57577   0.71980   0.00000  Uiso   1.00
C61    C     0.62062   0.55917   0.67307   0.00000  Uiso   1.00
C62    C     0.65121   0.61119   0.65974   0.00000  Uiso   1.00
C63    C     0.71550   0.58484   0.61553   0.00000  Uiso   1.00
C64    C     0.57957   0.52619   0.75972   0.00000  Uiso   1.00
C65    C     0.57563   0.55047   0.81925   0.00000  Uiso   1.00
C66    C     0.60534   0.49635   0.84799   0.00000  Uiso   1.00
C67    C     0.49249   0.54651   0.68906   0.00000  Uiso   1.00
C68    C     0.41535   0.58788   0.68920   0.00000  Uiso   1.00
C69    C     0.37175   0.55087   0.65846   0.00000  Uiso   1.00
H70    H     0.63560   0.37758   0.64181   0.00000  Uiso   1.00
H71    H     0.74243   0.39852   0.57606   0.00000  Uiso   1.00
H72    H     0.66685   0.33781   0.73555   0.00000  Uiso   1.00
H73    H     0.50659   0.37522   0.60551   0.00000  Uiso   1.00
H74    H     0.84658   0.45511   0.51632   0.00000  Uiso   1.00
H75    H     0.68718   0.32709   0.85260   0.00000  Uiso   1.00
H76    H     0.34925   0.40597   0.57840   0.00000  Uiso   1.00
H77    H     0.52531   0.63468   0.74299   0.00000  Uiso   1.00
H78    H     0.62609   0.66974   0.68279   0.00000  Uiso   1.00
H79    H     0.55051   0.60902   0.84228   0.00000  Uiso   1.00
H80    H     0.39025   0.64643   0.71224   0.00000  Uiso   1.00
H81    H     0.75215   0.67523   0.60295   0.00000  Uiso   1.00
H82    H     0.59275   0.54722   0.93924   0.00000  Uiso   1.00
H83    H     0.25483   0.62609   0.66503   0.00000  Uiso   1.00
O84    O     0.86767   0.58359   0.51822   0.00000  Uiso   1.00
O85    O     0.65853   0.41564   0.95942   0.00000  Uiso   1.00
O86    O     0.21518   0.51912   0.59967   0.00000  Uiso   1.00
N87    N     0.81051   0.50211   0.54496   0.00000  Uiso   1.00
N88    N     0.66150   0.38242   0.85937   0.00000  Uiso   1.00
N89    N     0.34556   0.45616   0.60302   0.00000  Uiso   1.00
N90    N     0.75970   0.62055   0.59157   0.00000  Uiso   1.00
N91    N     0.61069   0.50087   0.90598   0.00000  Uiso   1.00
N92    N     0.29475   0.57460   0.64964   0.00000  Uiso   1.00
C93    C     0.43176   0.04581   0.95127   0.00000  Uiso   1.00
C94    C     0.39240   0.06168   0.01379   0.00000  Uiso   1.00
C95    C     0.37656   0.12725   0.05697   0.00000  Uiso   1.00
C96    C     0.34020   0.13081   0.11137   0.00000  Uiso   1.00
C97    C     0.28213   0.16455   0.20682   0.00000  Uiso   1.00
C98    C     0.50267   0.97501   0.94048   0.00000  Uiso   1.00
C99    C     0.57954   0.96772   0.92201   0.00000  Uiso   1.00
C100   C     0.63601   0.89832   0.91468   0.00000  Uiso   1.00
C101   C     0.74912   0.79750   0.89627   0.00000  Uiso   1.00
C102   C     0.37527   0.02516   0.91312   0.00000  Uiso   1.00
C103   C     0.34504   0.06002   0.87164   0.00000  Uiso   1.00
C104   C     0.29425   0.03283   0.84128   0.00000  Uiso   1.00
C105   C     0.20955   0.00987   0.78039   0.00000  Uiso   1.00
C106   C     0.39534   0.93553   0.97109   0.00000  Uiso   1.00
C107   C     0.37262   0.00177   0.02455   0.00000  Uiso   1.00
C108   C     0.33627   0.00524   0.07890   0.00000  Uiso   1.00
C109   C     0.32038   0.07080   0.12215   0.00000  Uiso   1.00
C110   C     0.48289   0.91511   0.95124   0.00000  Uiso   1.00
C111   C     0.53925   0.84571   0.94394   0.00000  Uiso   1.00
C112   C     0.61619   0.83831   0.92547   0.00000  Uiso   1.00
C113   C     0.35548   0.96526   0.92389   0.00000  Uiso   1.00
C114   C     0.30474   0.93801   0.89357   0.00000  Uiso   1.00
C115   C     0.27443   0.97282   0.85206   0.00000  Uiso   1.00
H116   H     0.44717   0.09244   0.94289   0.00000  Uiso   1.00
H117   H     0.39189   0.17359   0.04862   0.00000  Uiso   1.00
H118   H     0.59483   0.01409   0.91368   0.00000  Uiso   1.00
H119   H     0.36036   0.10638   0.86332   0.00000  Uiso   1.00
H120   H     0.32190   0.23714   0.17061   0.00000  Uiso   1.00
H121   H     0.74982   0.90080   0.88605   0.00000  Uiso   1.00
H122   H     0.25539   0.09541   0.77986   0.00000  Uiso   1.00
H123   H     0.37994   0.88889   0.97947   0.00000  Uiso   1.00
H124   H     0.32097   0.95887   0.08722   0.00000  Uiso   1.00
H125   H     0.52392   0.79936   0.95227   0.00000  Uiso   1.00
H126   H     0.28944   0.89165   0.90192   0.00000  Uiso   1.00
H127   H     0.26435   0.06286   0.20193   0.00000  Uiso   1.00
H128   H     0.69227   0.72652   0.91737   0.00000  Uiso   1.00
H129   H     0.19783   0.92113   0.81119   0.00000  Uiso   1.00
O130   O     0.25557   0.19970   0.25650   0.00000  Uiso   1.00
O131   O     0.81698   0.75843   0.88315   0.00000  Uiso   1.00
O132   O     0.16829   0.01376   0.74384   0.00000  Uiso   1.00
N133   N     0.31644   0.18652   0.16319   0.00000  Uiso   1.00
N134   N     0.71652   0.87207   0.89715   0.00000  Uiso   1.00
N135   N     0.25428   0.05400   0.79787   0.00000  Uiso   1.00
N136   N     0.28546   0.09274   0.18005   0.00000  Uiso   1.00
N137   N     0.68554   0.77829   0.91401   0.00000  Uiso   1.00
N138   N     0.22331   0.96022   0.81472   0.00000  Uiso   1.00
C139   C     0.96291   0.21378   0.39714   0.00000  Uiso   1.00
C140   C     0.93390   0.22815   0.46170   0.00000  Uiso   1.00
C141   C     0.89568   0.18800   0.48602   0.00000  Uiso   1.00
C142   C     0.87387   0.20988   0.54598   0.00000  Uiso   1.00
C143   C     0.82645   0.22306   0.64099   0.00000  Uiso   1.00
C144   C     0.05012   0.20186   0.39114   0.00000  Uiso   1.00
C145   C     0.10962   0.13962   0.35612   0.00000  Uiso   1.00
C146   C     0.18565   0.13938   0.35668   0.00000  Uiso   1.00
C147   C     0.31867   0.11178   0.34211   0.00000  Uiso   1.00
C148   C     0.92472   0.28687   0.38194   0.00000  Uiso   1.00
C149   C     0.87880   0.29611   0.33918   0.00000  Uiso   1.00
C150   C     0.84926   0.36744   0.33199   0.00000  Uiso   1.00
C151   C     0.78758   0.47182   0.30314   0.00000  Uiso   1.00
C152   C     0.99212   0.32403   0.46039   0.00000  Uiso   1.00
C153   C     0.94977   0.28803   0.49605   0.00000  Uiso   1.00
C154   C     0.92801   0.30998   0.55600   0.00000  Uiso   1.00
C155   C     0.88976   0.26988   0.58040   0.00000  Uiso   1.00
C156   C     0.06600   0.26175   0.42549   0.00000  Uiso   1.00
C157   C     0.14195   0.26160   0.42610   0.00000  Uiso   1.00
C158   C     0.20155   0.19938   0.39110   0.00000  Uiso   1.00
C159   C     0.94059   0.34676   0.41630   0.00000  Uiso   1.00
C160   C     0.91113   0.41809   0.40916   0.00000  Uiso   1.00
C161   C     0.86516   0.42743   0.36641   0.00000  Uiso   1.00
H162   H     0.95056   0.16715   0.37040   0.00000  Uiso   1.00
H163   H     0.88342   0.14165   0.45942   0.00000  Uiso   1.00
H164   H     0.09732   0.09329   0.32954   0.00000  Uiso   1.00
H165   H     0.86653   0.24975   0.31260   0.00000  Uiso   1.00
H166   H     0.81600   0.13978   0.57326   0.00000  Uiso   1.00
H167   H     0.26704   0.03781   0.29939   0.00000  Uiso   1.00
H168   H     0.78038   0.36773   0.26368   0.00000  Uiso   1.00
H169   H     0.00448   0.37066   0.48714   0.00000  Uiso   1.00
H170   H     0.94030   0.35633   0.58257   0.00000  Uiso   1.00
H171   H     0.15421   0.30796   0.45269   0.00000  Uiso   1.00
H172   H     0.92342   0.46442   0.43576   0.00000  Uiso   1.00
H173   H     0.86217   0.31401   0.67322   0.00000  Uiso   1.00
H174   H     0.31321   0.21204   0.39934   0.00000  Uiso   1.00
H175   H     0.82655   0.54197   0.36364   0.00000  Uiso   1.00
O176   O     0.79592   0.21378   0.68391   0.00000  Uiso   1.00
O177   O     0.38766   0.08000   0.32459   0.00000  Uiso   1.00
O178   O     0.74916   0.51286   0.27775   0.00000  Uiso   1.00
N179   N     0.83566   0.18276   0.58369   0.00000  Uiso   1.00
N180   N     0.25736   0.08742   0.32764   0.00000  Uiso   1.00
N181   N     0.80239   0.39587   0.29425   0.00000  Uiso   1.00
N182   N     0.86051   0.27651   0.63748   0.00000  Uiso   1.00
N183   N     0.28220   0.18117   0.38143   0.00000  Uiso   1.00
N184   N     0.82723   0.48962   0.34803   0.00000  Uiso   1.00
C185   C     0.63979   0.89683   0.73059   0.00000  Uiso   1.00
C186   C     0.67374   0.95958   0.73942   0.00000  Uiso   1.00
C187   C     0.65188   0.02098   0.78731   0.00000  Uiso   1.00
C188   C     0.68991   0.07218   0.78716   0.00000  Uiso   1.00
C189   C     0.73385   0.17111   0.80794   0.00000  Uiso   1.00
C190   C     0.70908   0.82492   0.72069   0.00000  Uiso   1.00
C191   C     0.71694   0.77310   0.75283   0.00000  Uiso   1.00
C192   C     0.78473   0.71094   0.73690   0.00000  Uiso   1.00
C193   C     0.88352   0.60078   0.72857   0.00000  Uiso   1.00
C194   C     0.60949   0.89348   0.67313   0.00000  Uiso   1.00
C195   C     0.53360   0.89927   0.66527   0.00000  Uiso   1.00
C196   C     0.51754   0.89482   0.60930   0.00000  Uiso   1.00
C197   C     0.46169   0.89110   0.52713   0.00000  Uiso   1.00
C198   C     0.74620   0.87859   0.64516   0.00000  Uiso   1.00
C199   C     0.73154   0.94967   0.69302   0.00000  Uiso   1.00
C200   C     0.76961   0.00080   0.69279   0.00000  Uiso   1.00
C201   C     0.74781   0.06226   0.74067   0.00000  Uiso   1.00
C202   C     0.76688   0.81502   0.67429   0.00000  Uiso   1.00
C203   C     0.83467   0.75292   0.65831   0.00000  Uiso   1.00
C204   C     0.84263   0.70101   0.69041   0.00000  Uiso   1.00
C205   C     0.66728   0.88357   0.62672   0.00000  Uiso   1.00
C206   C     0.65134   0.87910   0.57075   0.00000  Uiso   1.00
C207   C     0.57544   0.88489   0.56281   0.00000  Uiso   1.00
H208   H     0.59480   0.90454   0.76672   0.00000  Uiso   1.00
H209   H     0.60715   0.02862   0.82322   0.00000  Uiso   1.00
H210   H     0.67220   0.78077   0.78873   0.00000  Uiso   1.00
H211   H     0.48889   0.90694   0.70119   0.00000  Uiso   1.00
H212   H     0.64636   0.16180   0.86540   0.00000  Uiso   1.00
H213   H     0.78350   0.63920   0.79267   0.00000  Uiso   1.00
H214   H     0.39696   0.90524   0.60808   0.00000  Uiso   1.00
H215   H     0.79120   0.87088   0.60903   0.00000  Uiso   1.00
H216   H     0.81434   0.99312   0.65688   0.00000  Uiso   1.00
H217   H     0.87938   0.74527   0.62239   0.00000  Uiso   1.00
H218   H     0.69608   0.87143   0.53485   0.00000  Uiso   1.00
H219   H     0.81452   0.13299   0.73039   0.00000  Uiso   1.00
H220   H     0.95166   0.61038   0.65766   0.00000  Uiso   1.00
H221   H     0.56512   0.87642   0.47307   0.00000  Uiso   1.00
O222   O     0.74213   0.22840   0.83222   0.00000  Uiso   1.00
O223   O     0.92205   0.54276   0.73680   0.00000  Uiso   1.00
O224   O     0.41492   0.89180   0.49462   0.00000  Uiso   1.00
N225   N     0.68275   0.13825   0.82705   0.00000  Uiso   1.00
N226   N     0.81098   0.64965   0.75906   0.00000  Uiso   1.00
N227   N     0.44960   0.89836   0.58648   0.00000  Uiso   1.00
N228   N     0.77324   0.12275   0.75441   0.00000  Uiso   1.00
N229   N     0.90146   0.63415   0.68642   0.00000  Uiso   1.00
N230   N     0.54008   0.88285   0.51384   0.00000  Uiso   1.00
C231   C     0.29417   0.57441   0.18874   0.00000  Uiso   1.00
C232   C     0.31768   0.53185   0.12470   0.00000  Uiso   1.00
C233   C     0.38339   0.52649   0.08791   0.00000  Uiso   1.00
C234   C     0.39457   0.48494   0.03080   0.00000  Uiso   1.00
C235   C     0.43910   0.42412   0.93435   0.00000  Uiso   1.00
C236   C     0.28677   0.51797   0.22151   0.00000  Uiso   1.00
C237   C     0.32650   0.50096   0.26612   0.00000  Uiso   1.00
C238   C     0.31165   0.44772   0.29051   0.00000  Uiso   1.00
C239   C     0.30817   0.36540   0.34438   0.00000  Uiso   1.00
C240   C     0.21159   0.62937   0.19535   0.00000  Uiso   1.00
C241   C     0.18810   0.70603   0.21798   0.00000  Uiso   1.00
C242   C     0.10995   0.74659   0.22035   0.00000  Uiso   1.00
C243   C     0.98974   0.83724   0.23360   0.00000  Uiso   1.00
C244   C     0.19716   0.51014   0.15275   0.00000  Uiso   1.00
C245   C     0.26498   0.49693   0.10515   0.00000  Uiso   1.00
C246   C     0.27607   0.45538   0.04808   0.00000  Uiso   1.00
C247   C     0.34179   0.44997   0.01121   0.00000  Uiso   1.00
C248   C     0.23408   0.48305   0.20196   0.00000  Uiso   1.00
C249   C     0.21917   0.42984   0.22629   0.00000  Uiso   1.00
C250   C     0.25887   0.41275   0.27092   0.00000  Uiso   1.00
C251   C     0.15890   0.59446   0.17580   0.00000  Uiso   1.00
C252   C     0.08078   0.63491   0.17815   0.00000  Uiso   1.00
C253   C     0.05717   0.71161   0.20077   0.00000  Uiso   1.00
H254   H     0.33519   0.60159   0.20397   0.00000  Uiso   1.00
H255   H     0.42416   0.55351   0.10306   0.00000  Uiso   1.00
H256   H     0.36726   0.52799   0.28124   0.00000  Uiso   1.00
H257   H     0.22889   0.73302   0.23310   0.00000  Uiso   1.00
H258   H     0.49957   0.48479   0.98257   0.00000  Uiso   1.00
H259   H     0.37959   0.43099   0.35829   0.00000  Uiso   1.00
H260   H     0.08780   0.86335   0.25678   0.00000  Uiso   1.00
H261   H     0.15614   0.48295   0.13753   0.00000  Uiso   1.00
H262   H     0.23528   0.42837   0.03297   0.00000  Uiso   1.00
H263   H     0.17839   0.40284   0.21115   0.00000  Uiso   1.00
H264   H     0.04002   0.60787   0.16301   0.00000  Uiso   1.00
H265   H     0.34628   0.38321   0.92568   0.00000  Uiso   1.00
H266   H     0.22629   0.32941   0.30141   0.00000  Uiso   1.00
H267   H     0.93450   0.76177   0.19989   0.00000  Uiso   1.00
O268   O     0.47823   0.40021   0.88655   0.00000  Uiso   1.00
O269   O     0.32081   0.32964   0.37949   0.00000  Uiso   1.00
O270   O     0.93799   0.89688   0.24630   0.00000  Uiso   1.00
N271   N     0.45262   0.46839   0.98352   0.00000  Uiso   1.00
N272   N     0.34046   0.41808   0.33480   0.00000  Uiso   1.00
N273   N     0.06765   0.82230   0.23991   0.00000  Uiso   1.00
N274   N     0.37014   0.41373   0.95291   0.00000  Uiso   1.00
N275   N     0.25797   0.36342   0.30419   0.00000  Uiso   1.00
N276   N     0.98516   0.76764   0.20930   0.00000  Uiso   1.00
C277   C     0.66509   0.35522   0.14112   0.00000  Uiso   1.00
C278   C     0.63410   0.43336   0.18238   0.00000  Uiso   1.00
C279   C     0.65825   0.49243   0.17716   0.00000  Uiso   1.00
C280   C     0.62273   0.55947   0.21937   0.00000  Uiso   1.00
C281   C     0.58333   0.67967   0.27646   0.00000  Uiso   1.00
C282   C     0.59393   0.33971   0.12023   0.00000  Uiso   1.00
C283   C     0.58431   0.32002   0.06275   0.00000  Uiso   1.00
C284   C     0.51498   0.30821   0.05265   0.00000  Uiso   1.00
C285   C     0.41324   0.28294   0.01326   0.00000  Uiso   1.00
C286   C     0.69459   0.30219   0.17848   0.00000  Uiso   1.00
C287   C     0.76961   0.25094   0.16998   0.00000  Uiso   1.00
C288   C     0.78502   0.20753   0.20891   0.00000  Uiso   1.00
C289   C     0.83958   0.12402   0.25996   0.00000  Uiso   1.00
C290   C     0.55906   0.36924   0.22539   0.00000  Uiso   1.00
C291   C     0.57650   0.44098   0.22815   0.00000  Uiso   1.00
C292   C     0.54094   0.50795   0.27039   0.00000  Uiso   1.00
C293   C     0.56504   0.56710   0.26523   0.00000  Uiso   1.00
C294   C     0.53633   0.34732   0.16600   0.00000  Uiso   1.00
C295   C     0.46700   0.33554   0.15599   0.00000  Uiso   1.00
C296   C     0.45728   0.31584   0.09851   0.00000  Uiso   1.00
C297   C     0.63700   0.30981   0.22426   0.00000  Uiso   1.00
C298   C     0.65230   0.26646   0.26321   0.00000  Uiso   1.00
C299   C     0.72733   0.21516   0.25477   0.00000  Uiso   1.00
H300   H     0.70993   0.34928   0.10548   0.00000  Uiso   1.00
H301   H     0.70281   0.48651   0.14172   0.00000  Uiso   1.00
H302   H     0.62889   0.31412   0.02734   0.00000  Uiso   1.00
H303   H     0.81416   0.24506   0.13455   0.00000  Uiso   1.00
H304   H     0.66951   0.64203   0.20208   0.00000  Uiso   1.00
H305   H     0.51366   0.27850   0.96090   0.00000  Uiso   1.00
H306   H     0.90433   0.13287   0.18696   0.00000  Uiso   1.00
H307   H     0.51422   0.37517   0.26102   0.00000  Uiso   1.00
H308   H     0.49637   0.51383   0.30580   0.00000  Uiso   1.00
H309   H     0.42245   0.34143   0.19142   0.00000  Uiso   1.00
H310   H     0.60772   0.27237   0.29863   0.00000  Uiso   1.00
H311   H     0.50195   0.66420   0.33525   0.00000  Uiso   1.00
H312   H     0.34610   0.30066   0.09406   0.00000  Uiso   1.00
H313   H     0.73677   0.15504   0.32014   0.00000  Uiso   1.00
O314   O     0.57750   0.74386   0.29531   0.00000  Uiso   1.00
O315   O     0.37304   0.26691   0.97888   0.00000  Uiso   1.00
O316   O     0.88558   0.07586   0.27548   0.00000  Uiso   1.00
N317   N     0.63254   0.62821   0.22728   0.00000  Uiso   1.00
N318   N     0.48682   0.28834   0.00179   0.00000  Uiso   1.00
N319   N     0.85205   0.15218   0.21314   0.00000  Uiso   1.00
N320   N     0.54238   0.64014   0.29894   0.00000  Uiso   1.00
N321   N     0.39666   0.30028   0.07345   0.00000  Uiso   1.00
N322   N     0.76189   0.16411   0.28479   0.00000  Uiso   1.00
C323   C     0.09932   0.69800   0.91757   0.00000  Uiso   1.00
C324   C     0.06823   0.64229   0.93772   0.00000  Uiso   1.00
C325   C     0.00874   0.65941   0.98413   0.00000  Uiso   1.00
C326   C     0.98881   0.60053   0.99556   0.00000  Uiso   1.00
C327   C     0.93470   0.52519   0.03198   0.00000  Uiso   1.00
C328   C     0.09100   0.68822   0.85381   0.00000  Uiso   1.00
C329   C     0.05066   0.74396   0.82967   0.00000  Uiso   1.00
C330   C     0.04991   0.72373   0.77047   0.00000  Uiso   1.00
C331   C     0.03119   0.71971   0.67660   0.00000  Uiso   1.00
C332   C     0.18696   0.67096   0.91854   0.00000  Uiso   1.00
C333   C     0.22732   0.71219   0.94881   0.00000  Uiso   1.00
C334   C     0.30737   0.67743   0.94409   0.00000  Uiso   1.00
C335   C     0.43765   0.64661   0.95073   0.00000  Uiso   1.00
C336   C     0.16973   0.56297   0.85536   0.00000  Uiso   1.00
C337   C     0.10648   0.56895   0.90393   0.00000  Uiso   1.00
C338   C     0.08664   0.51002   0.91530   0.00000  Uiso   1.00
C339   C     0.02713   0.52705   0.96171   0.00000  Uiso   1.00
C340   C     0.12924   0.61488   0.82002   0.00000  Uiso   1.00
C341   C     0.12856   0.59457   0.76084   0.00000  Uiso   1.00
C342   C     0.08822   0.65026   0.73661   0.00000  Uiso   1.00
C343   C     0.22521   0.59761   0.88475   0.00000  Uiso   1.00
C344   C     0.30521   0.56279   0.87998   0.00000  Uiso   1.00
C345   C     0.34568   0.60396   0.91024   0.00000  Uiso   1.00
H346   H     0.06954   0.75510   0.94388   0.00000  Uiso   1.00
H347   H     0.97915   0.71618   0.01027   0.00000  Uiso   1.00
H348   H     0.02108   0.80071   0.85583   0.00000  Uiso   1.00
H349   H     0.19770   0.76894   0.97496   0.00000  Uiso   1.00
H350   H     0.89579   0.64069   0.06896   0.00000  Uiso   1.00
H351   H     0.98420   0.81893   0.74332   0.00000  Uiso   1.00
H352   H     0.35666   0.75194   0.99451   0.00000  Uiso   1.00
H353   H     0.19950   0.50587   0.82905   0.00000  Uiso   1.00
H354   H     0.11624   0.45327   0.88914   0.00000  Uiso   1.00
H355   H     0.15816   0.53781   0.73470   0.00000  Uiso   1.00
H356   H     0.33479   0.50604   0.85383   0.00000  Uiso   1.00
H357   H     0.00705   0.42731   0.97064   0.00000  Uiso   1.00
H358   H     0.09547   0.60555   0.64500   0.00000  Uiso   1.00
H359   H     0.46792   0.53856   0.89620   0.00000  Uiso   1.00
O360   O     0.89429   0.50390   0.06139   0.00000  Uiso   1.00
O361   O     0.01029   0.73775   0.63416   0.00000  Uiso   1.00
O362   O     0.49894   0.64986   0.96373   0.00000  Uiso   1.00
N363   N     0.93341   0.59769   0.03758   0.00000  Uiso   1.00
N364   N     0.01606   0.76433   0.73313   0.00000  Uiso   1.00
N365   N     0.36428   0.70171   0.96796   0.00000  Uiso   1.00
N366   N     0.99328   0.48287   0.98468   0.00000  Uiso   1.00
N367   N     0.07593   0.64951   0.68023   0.00000  Uiso   1.00
N368   N     0.42415   0.58689   0.91506   0.00000  Uiso   1.00
C369   C     0.32340   0.14917   0.65408   0.00000  Uiso   1.00
C370   C     0.36773   0.14686   0.59640   0.00000  Uiso   1.00
C371   C     0.39928   0.08481   0.54912   0.00000  Uiso   1.00
C372   C     0.43766   0.09412   0.50032   0.00000  Uiso   1.00
C373   C     0.50546   0.08005   0.41096   0.00000  Uiso   1.00
C374   C     0.24415   0.21052   0.66331   0.00000  Uiso   1.00
C375   C     0.17179   0.20199   0.67229   0.00000  Uiso   1.00
C376   C     0.10614   0.26490   0.67982   0.00000  Uiso   1.00
C377   C     0.98207   0.34967   0.69438   0.00000  Uiso   1.00
C378   C     0.36659   0.17711   0.70078   0.00000  Uiso   1.00
C379   C     0.39716   0.14051   0.74127   0.00000  Uiso   1.00
C380   C     0.43458   0.17531   0.78036   0.00000  Uiso   1.00
C381   C     0.50062   0.20822   0.85309   0.00000  Uiso   1.00
C382   C     0.33547   0.27607   0.65152   0.00000  Uiso   1.00
C383   C     0.37428   0.21578   0.59501   0.00000  Uiso   1.00
C384   C     0.41263   0.22520   0.54628   0.00000  Uiso   1.00
C385   C     0.44423   0.16317   0.49893   0.00000  Uiso   1.00
C386   C     0.25070   0.27944   0.66192   0.00000  Uiso   1.00
C387   C     0.18514   0.34238   0.66945   0.00000  Uiso   1.00
C388   C     0.11270   0.33395   0.67843   0.00000  Uiso   1.00
C389   C     0.37314   0.24604   0.69938   0.00000  Uiso   1.00
C390   C     0.41051   0.28090   0.73843   0.00000  Uiso   1.00
C391   C     0.44114   0.24436   0.77897   0.00000  Uiso   1.00
H392   H     0.31829   0.09552   0.65517   0.00000  Uiso   1.00
H393   H     0.39419   0.03148   0.55021   0.00000  Uiso   1.00
H394   H     0.16674   0.14865   0.67337   0.00000  Uiso   1.00
H395   H     0.39208   0.08718   0.74233   0.00000  Uiso   1.00
H396   H     0.48119   0.99088   0.43322   0.00000  Uiso   1.00
H397   H     0.00160   0.23794   0.69292   0.00000  Uiso   1.00
H398   H     0.47677   0.10832   0.83836   0.00000  Uiso   1.00
H399   H     0.34057   0.32973   0.65043   0.00000  Uiso   1.00
H400   H     0.41769   0.27854   0.54521   0.00000  Uiso   1.00
H401   H     0.19023   0.39570   0.66837   0.00000  Uiso   1.00
H402   H     0.41557   0.33424   0.73734   0.00000  Uiso   1.00
H403   H     0.50026   0.19140   0.42917   0.00000  Uiso   1.00
H404   H     0.02067   0.43846   0.68887   0.00000  Uiso   1.00
H405   H     0.49584   0.30884   0.83430   0.00000  Uiso   1.00
O406   O     0.54104   0.05325   0.36205   0.00000  Uiso   1.00
O407   O     0.91183   0.37738   0.70279   0.00000  Uiso   1.00
O408   O     0.53525   0.20732   0.89359   0.00000  Uiso   1.00
N409   N     0.47511   0.04509   0.44671   0.00000  Uiso   1.00
N410   N     0.02672   0.27608   0.68951   0.00000  Uiso   1.00
N411   N     0.47095   0.15490   0.82549   0.00000  Uiso   1.00
N412   N     0.48538   0.15299   0.44453   0.00000  Uiso   1.00
N413   N     0.03698   0.38398   0.68733   0.00000  Uiso   1.00
N414   N     0.48121   0.26280   0.82331   0.00000  Uiso   1.00
C415   C     0.73194   0.86780   0.19503   0.00000  Uiso   1.00
C416   C     0.77088   0.86319   0.13477   0.00000  Uiso   1.00
C417   C     0.80725   0.91138   0.12148   0.00000  Uiso   1.00
C418   C     0.83934   0.89774   0.06373   0.00000  Uiso   1.00
C419   C     0.90041   0.89967   0.97668   0.00000  Uiso   1.00
C420   C     0.64802   0.87241   0.18981   0.00000  Uiso   1.00
C421   C     0.58108   0.92834   0.22280   0.00000  Uiso   1.00
C422   C     0.50975   0.92246   0.21139   0.00000  Uiso   1.00
C423   C     0.38007   0.93868   0.20982   0.00000  Uiso   1.00
C424   C     0.77166   0.79250   0.20644   0.00000  Uiso   1.00
C425   C     0.80866   0.78124   0.25342   0.00000  Uiso   1.00
C426   C     0.84140   0.70808   0.25602   0.00000  Uiso   1.00
C427   C     0.90369   0.60023   0.28026   0.00000  Uiso   1.00
C428   C     0.72428   0.75789   0.11612   0.00000  Uiso   1.00
C429   C     0.76672   0.80349   0.09190   0.00000  Uiso   1.00
C430   C     0.79877   0.78977   0.03417   0.00000  Uiso   1.00
C431   C     0.83518   0.83793   0.02079   0.00000  Uiso   1.00
C432   C     0.64385   0.81271   0.14695   0.00000  Uiso   1.00
C433   C     0.57260   0.80674   0.13549   0.00000  Uiso   1.00
C434   C     0.50558   0.86265   0.16845   0.00000  Uiso   1.00
C435   C     0.76750   0.73280   0.16357   0.00000  Uiso   1.00
C436   C     0.80018   0.65964   0.16611   0.00000  Uiso   1.00
C437   C     0.83723   0.64827   0.21308   0.00000  Uiso   1.00
H438   H     0.73518   0.91428   0.22840   0.00000  Uiso   1.00
H439   H     0.81045   0.95757   0.15466   0.00000  Uiso   1.00
H440   H     0.58432   0.97453   0.25597   0.00000  Uiso   1.00
H441   H     0.81187   0.82745   0.28658   0.00000  Uiso   1.00
H442   H     0.89205   0.97926   0.05400   0.00000  Uiso   1.00
H443   H     0.41524   0.01500   0.26763   0.00000  Uiso   1.00
H444   H     0.89506   0.70486   0.33218   0.00000  Uiso   1.00
H445   H     0.72103   0.71141   0.08274   0.00000  Uiso   1.00
H446   H     0.79554   0.74357   0.00101   0.00000  Uiso   1.00
H447   H     0.56941   0.76053   0.10232   0.00000  Uiso   1.00
H448   H     0.79695   0.61345   0.13293   0.00000  Uiso   1.00
H449   H     0.87994   0.80557   0.92929   0.00000  Uiso   1.00
H450   H     0.40313   0.84131   0.14292   0.00000  Uiso   1.00
H451   H     0.88295   0.53117   0.20747   0.00000  Uiso   1.00
O452   O     0.93524   0.91724   0.94050   0.00000  Uiso   1.00
O453   O     0.30969   0.96413   0.22078   0.00000  Uiso   1.00
O454   O     0.93920   0.55723   0.30547   0.00000  Uiso   1.00
N455   N     0.87899   0.93396   0.03586   0.00000  Uiso   1.00
N456   N     0.43320   0.96739   0.23559   0.00000  Uiso   1.00
N457   N     0.88178   0.67743   0.29595   0.00000  Uiso   1.00
N458   N     0.87247   0.84049   0.96876   0.00000  Uiso   1.00
N459   N     0.42669   0.87392   0.16849   0.00000  Uiso   1.00
N460   N     0.87526   0.58396   0.22885   0.00000  Uiso   1.00
C461   C     0.03925   0.27355   0.87188   0.00000  Uiso   1.00
C462   C     0.00817   0.20893   0.86466   0.00000  Uiso   1.00
C463   C     0.03280   0.14558   0.81825   0.00000  Uiso   1.00
C464   C     0.99711   0.09287   0.81972   0.00000  Uiso   1.00
C465   C     0.95768   0.99097   0.80146   0.00000  Uiso   1.00
C466   C     0.96826   0.34336   0.87926   0.00000  Uiso   1.00
C467   C     0.95934   0.39304   0.84514   0.00000  Uiso   1.00
C468   C     0.89005   0.45349   0.85892   0.00000  Uiso   1.00
C469   C     0.78869   0.56033   0.86335   0.00000  Uiso   1.00
C470   C     0.06785   0.28143   0.93007   0.00000  Uiso   1.00
C471   C     0.14268   0.27906   0.93867   0.00000  Uiso   1.00
C472   C     0.15724   0.28739   0.99522   0.00000  Uiso   1.00
C473   C     0.21051   0.29807   0.07854   0.00000  Uiso   1.00
C474   C     0.93206   0.29260   0.95703   0.00000  Uiso   1.00
C475   C     0.94995   0.21928   0.91091   0.00000  Uiso   1.00
C476   C     0.91421   0.16665   0.91245   0.00000  Uiso   1.00
C477   C     0.93879   0.10323   0.86606   0.00000  Uiso   1.00
C478   C     0.91004   0.35370   0.92551   0.00000  Uiso   1.00
C479   C     0.84075   0.41411   0.93934   0.00000  Uiso   1.00
C480   C     0.83173   0.46386   0.90525   0.00000  Uiso   1.00
C481   C     0.00963   0.29177   0.97632   0.00000  Uiso   1.00
C482   C     0.02408   0.30012   0.03287   0.00000  Uiso   1.00
C483   C     0.09891   0.29776   0.04155   0.00000  Uiso   1.00
H484   H     0.08457   0.26550   0.83588   0.00000  Uiso   1.00
H485   H     0.07785   0.13760   0.78247   0.00000  Uiso   1.00
H486   H     0.00441   0.38502   0.80936   0.00000  Uiso   1.00
H487   H     0.18771   0.27105   0.90287   0.00000  Uiso   1.00
H488   H     0.04471   0.00036   0.74364   0.00000  Uiso   1.00
H489   H     0.88986   0.52208   0.80035   0.00000  Uiso   1.00
H490   H     0.27640   0.28176   0.99754   0.00000  Uiso   1.00
H491   H     0.88673   0.30065   0.99303   0.00000  Uiso   1.00
H492   H     0.86916   0.17467   0.94825   0.00000  Uiso   1.00
H493   H     0.79571   0.42209   0.97514   0.00000  Uiso   1.00
H494   H     0.97902   0.30812   0.06865   0.00000  Uiso   1.00
H495   H     0.87532   0.03046   0.87819   0.00000  Uiso   1.00
H496   H     0.72047   0.55217   0.93490   0.00000  Uiso   1.00
H497   H     0.10701   0.31185   0.13209   0.00000  Uiso   1.00
O498   O     0.95201   0.93191   0.77860   0.00000  Uiso   1.00
O499   O     0.74885   0.61639   0.85302   0.00000  Uiso   1.00
O500   O     0.25598   0.30109   0.11172   0.00000  Uiso   1.00
N501   N     0.00727   0.02473   0.78145   0.00000  Uiso   1.00
N502   N     0.86248   0.51250   0.83447   0.00000  Uiso   1.00
N503   N     0.22386   0.28783   0.01883   0.00000  Uiso   1.00
N504   N     0.91612   0.04092   0.85386   0.00000  Uiso   1.00
N505   N     0.77134   0.52869   0.90687   0.00000  Uiso   1.00
N506   N     0.13271   0.30402   0.09123   0.00000  Uiso   1.00
C507   C     0.28969   0.64156   0.48775   0.00000  Uiso   1.00
C508   C     0.28129   0.68732   0.54993   0.00000  Uiso   1.00
C509   C     0.21355   0.71628   0.59114   0.00000  Uiso   1.00
C510   C     0.21785   0.75660   0.64556   0.00000  Uiso   1.00
C511   C     0.19420   0.82602   0.74016   0.00000  Uiso   1.00
C512   C     0.31903   0.68255   0.44879   0.00000  Uiso   1.00
C513   C     0.28302   0.70749   0.40496   0.00000  Uiso   1.00
C514   C     0.31909   0.74379   0.37423   0.00000  Uiso   1.00
C515   C     0.35407   0.80576   0.31178   0.00000  Uiso   1.00
C516   C     0.35653   0.56859   0.48054   0.00000  Uiso   1.00
C517   C     0.35207   0.49771   0.46339   0.00000  Uiso   1.00
C518   C     0.41973   0.43805   0.45938   0.00000  Uiso   1.00
C519   C     0.51294   0.32308   0.44623   0.00000  Uiso   1.00
C520   C     0.41777   0.66165   0.51110   0.00000  Uiso   1.00
C521   C     0.35086   0.69823   0.56261   0.00000  Uiso   1.00
C522   C     0.35526   0.73851   0.61697   0.00000  Uiso   1.00
C523   C     0.28754   0.76753   0.65826   0.00000  Uiso   1.00
C524   C     0.38859   0.69346   0.46147   0.00000  Uiso   1.00
C525   C     0.42473   0.72972   0.43079   0.00000  Uiso   1.00
C526   C     0.38879   0.75472   0.38693   0.00000  Uiso   1.00
C527   C     0.42610   0.57950   0.49322   0.00000  Uiso   1.00
C528   C     0.49378   0.51994   0.48923   0.00000  Uiso   1.00
C529   C     0.48942   0.44898   0.47208   0.00000  Uiso   1.00
H530   H     0.23553   0.63306   0.47788   0.00000  Uiso   1.00
H531   H     0.15972   0.70783   0.58131   0.00000  Uiso   1.00
H532   H     0.22919   0.69903   0.39516   0.00000  Uiso   1.00
H533   H     0.29823   0.48928   0.45358   0.00000  Uiso   1.00
H534   H     0.10635   0.79556   0.70158   0.00000  Uiso   1.00
H535   H     0.25284   0.77699   0.30904   0.00000  Uiso   1.00
H536   H     0.39842   0.33468   0.43224   0.00000  Uiso   1.00
H537   H     0.47194   0.67015   0.52097   0.00000  Uiso   1.00
H538   H     0.40910   0.74695   0.62677   0.00000  Uiso   1.00
H539   H     0.47857   0.73816   0.44061   0.00000  Uiso   1.00
H540   H     0.54760   0.52841   0.49904   0.00000  Uiso   1.00
H541   H     0.30875   0.82731   0.73847   0.00000  Uiso   1.00
H542   H     0.45524   0.80874   0.34593   0.00000  Uiso   1.00
H543   H     0.60082   0.36644   0.46914   0.00000  Uiso   1.00
O544   O     0.16194   0.86131   0.78884   0.00000  Uiso   1.00
O545   O     0.35414   0.83693   0.27384   0.00000  Uiso   1.00
O546   O     0.54513   0.25665   0.43549   0.00000  Uiso   1.00
N547   N     0.16261   0.79248   0.69574   0.00000  Uiso   1.00
N548   N     0.29956   0.77513   0.32875   0.00000  Uiso   1.00
N549   N     0.43568   0.36161   0.44392   0.00000  Uiso   1.00
N550   N     0.27152   0.80956   0.71560   0.00000  Uiso   1.00
N551   N     0.40847   0.79221   0.34860   0.00000  Uiso   1.00
N552   N     0.54459   0.37870   0.46378   0.00000  Uiso   1.00
