data_job_05903
_audit_creation_date              2018-12-19
_audit_creation_method            'Materials Studio'
_symmetry_space_group_name_H-M    'P1'
_symmetry_Int_Tables_number       1
_symmetry_cell_setting            triclinic
loop_
_symmetry_equiv_pos_as_xyz
  x,y,z
_cell_length_a                    29.5585
_cell_length_b                    7.2638
_cell_length_c                    28.6691
_cell_angle_alpha                 90.0000
_cell_angle_beta                  155.4512
_cell_angle_gamma                 90.0000
loop_
_atom_site_label
_atom_site_type_symbol
_atom_site_fract_x
_atom_site_fract_y
_atom_site_fract_z
_atom_site_U_iso_or_equiv
_atom_site_adp_type
_atom_site_occupancy
C1     C     0.66227   0.39943   0.80818   0.00000  Uiso   1.00
C2     C     0.58937   0.48158   0.70212   0.00000  Uiso   1.00
C3     C     0.49648   0.40024   0.59669   0.00000  Uiso   1.00
C4     C     0.44105   0.49758   0.51045   0.00000  Uiso   1.00
C5     C     0.32238   0.59886   0.34295   0.00000  Uiso   1.00
C6     C     0.77652   0.39265   0.89457   0.00000  Uiso   1.00
C7     C     0.84099   0.23654   0.95097   0.00000  Uiso   1.00
C8     C     0.94311   0.25903   0.02675   0.00000  Uiso   1.00
C9     C     0.11502   0.22226   0.15809   0.00000  Uiso   1.00
C10    C     0.66665   0.54164   0.85136   0.00000  Uiso   1.00
C11    C     0.63876   0.51081   0.87146   0.00000  Uiso   1.00
C12    C     0.64839   0.65873   0.91089   0.00000  Uiso   1.00
C13    C     0.64970   0.85330   0.97515   0.00000  Uiso   1.00
C14    C     0.72900   0.71694   0.84249   0.00000  Uiso   1.00
C15    C     0.62562   0.65404   0.72076   0.00000  Uiso   1.00
C16    C     0.57031   0.75153   0.63466   0.00000  Uiso   1.00
C17    C     0.47735   0.67035   0.52912   0.00000  Uiso   1.00
C18    C     0.81277   0.56510   0.91321   0.00000  Uiso   1.00
C19    C     0.91482   0.58783   0.98893   0.00000  Uiso   1.00
C20    C     0.97942   0.43179   0.04542   0.00000  Uiso   1.00
C21    C     0.70289   0.71411   0.87000   0.00000  Uiso   1.00
C22    C     0.71258   0.86210   0.90942   0.00000  Uiso   1.00
C23    C     0.68470   0.83150   0.92957   0.00000  Uiso   1.00
H24    H     0.63405   0.26516   0.79367   0.00000  Uiso   1.00
H25    H     0.46846   0.26677   0.58230   0.00000  Uiso   1.00
H26    H     0.81292   0.10310   0.93653   0.00000  Uiso   1.00
H27    H     0.61071   0.37733   0.85703   0.00000  Uiso   1.00
H28    H     0.30088   0.34457   0.35619   0.00000  Uiso   1.00
H29    H     0.02720   0.99948   0.10313   0.00000  Uiso   1.00
H30    H     0.60081   0.57775   0.93549   0.00000  Uiso   1.00
H31    H     0.75723   0.85121   0.85701   0.00000  Uiso   1.00
H32    H     0.59838   0.88499   0.64911   0.00000  Uiso   1.00
H33    H     0.94285   0.72131   0.00334   0.00000  Uiso   1.00
H34    H     0.74063   0.99554   0.92384   0.00000  Uiso   1.00
H35    H     0.40633   0.84634   0.41041   0.00000  Uiso   1.00
H36    H     0.13266   0.50124   0.15736   0.00000  Uiso   1.00
H37    H     0.70626   0.07951   0.98971   0.00000  Uiso   1.00
O38    O     0.24691   0.60707   0.24541   0.00000  Uiso   1.00
O39    O     0.19983   0.15433   0.22538   0.00000  Uiso   1.00
O40    O     0.64040   0.91299   0.00543   0.00000  Uiso   1.00
N41    N     0.34748   0.45805   0.39748   0.00000  Uiso   1.00
N42    N     0.02655   0.13540   0.09581   0.00000  Uiso   1.00
N43    N     0.62793   0.67601   0.93911   0.00000  Uiso   1.00
N44    N     0.40423   0.72804   0.42666   0.00000  Uiso   1.00
N45    N     0.08329   0.40539   0.12499   0.00000  Uiso   1.00
N46    N     0.68467   0.94601   0.96828   0.00000  Uiso   1.00
C47    C     0.33773   0.39943   0.69182   0.00000  Uiso   1.00
C48    C     0.41063   0.48158   0.79788   0.00000  Uiso   1.00
C49    C     0.50352   0.40024   0.90331   0.00000  Uiso   1.00
C50    C     0.55895   0.49758   0.98955   0.00000  Uiso   1.00
C51    C     0.67762   0.59886   0.15705   0.00000  Uiso   1.00
C52    C     0.22348   0.39265   0.60543   0.00000  Uiso   1.00
C53    C     0.15901   0.23654   0.54903   0.00000  Uiso   1.00
C54    C     0.05689   0.25903   0.47325   0.00000  Uiso   1.00
C55    C     0.88498   0.22226   0.34191   0.00000  Uiso   1.00
C56    C     0.33335   0.54164   0.64864   0.00000  Uiso   1.00
C57    C     0.36124   0.51081   0.62854   0.00000  Uiso   1.00
C58    C     0.35161   0.65873   0.58911   0.00000  Uiso   1.00
C59    C     0.35030   0.85330   0.52485   0.00000  Uiso   1.00
C60    C     0.27100   0.71694   0.65751   0.00000  Uiso   1.00
C61    C     0.37438   0.65404   0.77924   0.00000  Uiso   1.00
C62    C     0.42969   0.75153   0.86534   0.00000  Uiso   1.00
C63    C     0.52265   0.67035   0.97088   0.00000  Uiso   1.00
C64    C     0.18723   0.56510   0.58679   0.00000  Uiso   1.00
C65    C     0.08518   0.58783   0.51107   0.00000  Uiso   1.00
C66    C     0.02058   0.43179   0.45458   0.00000  Uiso   1.00
C67    C     0.29711   0.71411   0.63000   0.00000  Uiso   1.00
C68    C     0.28742   0.86210   0.59058   0.00000  Uiso   1.00
C69    C     0.31530   0.83150   0.57043   0.00000  Uiso   1.00
H70    H     0.36595   0.26516   0.70633   0.00000  Uiso   1.00
H71    H     0.53154   0.26677   0.91770   0.00000  Uiso   1.00
H72    H     0.18708   0.10310   0.56347   0.00000  Uiso   1.00
H73    H     0.38929   0.37733   0.64297   0.00000  Uiso   1.00
H74    H     0.69912   0.34457   0.14381   0.00000  Uiso   1.00
H75    H     0.97280   0.99948   0.39687   0.00000  Uiso   1.00
H76    H     0.39919   0.57775   0.56451   0.00000  Uiso   1.00
H77    H     0.24277   0.85121   0.64299   0.00000  Uiso   1.00
H78    H     0.40162   0.88499   0.85089   0.00000  Uiso   1.00
H79    H     0.05715   0.72131   0.49666   0.00000  Uiso   1.00
H80    H     0.25937   0.99554   0.57616   0.00000  Uiso   1.00
H81    H     0.59367   0.84634   0.08959   0.00000  Uiso   1.00
H82    H     0.86734   0.50124   0.34264   0.00000  Uiso   1.00
H83    H     0.29374   0.07951   0.51029   0.00000  Uiso   1.00
O84    O     0.75309   0.60707   0.25459   0.00000  Uiso   1.00
O85    O     0.80017   0.15433   0.27462   0.00000  Uiso   1.00
O86    O     0.35960   0.91299   0.49457   0.00000  Uiso   1.00
N87    N     0.65252   0.45805   0.10252   0.00000  Uiso   1.00
N88    N     0.97345   0.13540   0.40419   0.00000  Uiso   1.00
N89    N     0.37207   0.67601   0.56089   0.00000  Uiso   1.00
N90    N     0.59577   0.72804   0.07334   0.00000  Uiso   1.00
N91    N     0.91671   0.40539   0.37501   0.00000  Uiso   1.00
N92    N     0.31533   0.94601   0.53172   0.00000  Uiso   1.00
C93    C     0.33773   0.60057   0.19182   0.00000  Uiso   1.00
C94    C     0.41063   0.51842   0.29788   0.00000  Uiso   1.00
C95    C     0.50352   0.59976   0.40331   0.00000  Uiso   1.00
C96    C     0.55895   0.50242   0.48955   0.00000  Uiso   1.00
C97    C     0.67762   0.40114   0.65705   0.00000  Uiso   1.00
C98    C     0.22348   0.60735   0.10543   0.00000  Uiso   1.00
C99    C     0.15901   0.76346   0.04903   0.00000  Uiso   1.00
C100   C     0.05689   0.74097   0.97325   0.00000  Uiso   1.00
C101   C     0.88498   0.77774   0.84191   0.00000  Uiso   1.00
C102   C     0.33335   0.45836   0.14864   0.00000  Uiso   1.00
C103   C     0.36124   0.48919   0.12854   0.00000  Uiso   1.00
C104   C     0.35161   0.34127   0.08911   0.00000  Uiso   1.00
C105   C     0.35030   0.14670   0.02485   0.00000  Uiso   1.00
C106   C     0.27100   0.28306   0.15751   0.00000  Uiso   1.00
C107   C     0.37438   0.34596   0.27924   0.00000  Uiso   1.00
C108   C     0.42969   0.24847   0.36534   0.00000  Uiso   1.00
C109   C     0.52265   0.32965   0.47088   0.00000  Uiso   1.00
C110   C     0.18723   0.43490   0.08679   0.00000  Uiso   1.00
C111   C     0.08518   0.41217   0.01107   0.00000  Uiso   1.00
C112   C     0.02058   0.56821   0.95458   0.00000  Uiso   1.00
C113   C     0.29711   0.28589   0.13000   0.00000  Uiso   1.00
C114   C     0.28742   0.13790   0.09058   0.00000  Uiso   1.00
C115   C     0.31530   0.16850   0.07043   0.00000  Uiso   1.00
H116   H     0.36595   0.73484   0.20633   0.00000  Uiso   1.00
H117   H     0.53154   0.73323   0.41770   0.00000  Uiso   1.00
H118   H     0.18708   0.89690   0.06347   0.00000  Uiso   1.00
H119   H     0.38929   0.62267   0.14297   0.00000  Uiso   1.00
H120   H     0.69912   0.65543   0.64381   0.00000  Uiso   1.00
H121   H     0.97280   0.00052   0.89687   0.00000  Uiso   1.00
H122   H     0.39919   0.42225   0.06451   0.00000  Uiso   1.00
H123   H     0.24277   0.14879   0.14299   0.00000  Uiso   1.00
H124   H     0.40162   0.11501   0.35089   0.00000  Uiso   1.00
H125   H     0.05715   0.27869   0.99666   0.00000  Uiso   1.00
H126   H     0.25937   0.00446   0.07616   0.00000  Uiso   1.00
H127   H     0.59367   0.15366   0.58959   0.00000  Uiso   1.00
H128   H     0.86734   0.49876   0.84264   0.00000  Uiso   1.00
H129   H     0.29374   0.92049   0.01029   0.00000  Uiso   1.00
O130   O     0.75309   0.39293   0.75459   0.00000  Uiso   1.00
O131   O     0.80017   0.84567   0.77462   0.00000  Uiso   1.00
O132   O     0.35960   0.08701   0.99457   0.00000  Uiso   1.00
N133   N     0.65252   0.54195   0.60252   0.00000  Uiso   1.00
N134   N     0.97345   0.86460   0.90419   0.00000  Uiso   1.00
N135   N     0.37207   0.32399   0.06089   0.00000  Uiso   1.00
N136   N     0.59577   0.27196   0.57334   0.00000  Uiso   1.00
N137   N     0.91671   0.59461   0.87501   0.00000  Uiso   1.00
N138   N     0.31533   0.05399   0.03172   0.00000  Uiso   1.00
C139   C     0.66227   0.60057   0.30818   0.00000  Uiso   1.00
C140   C     0.58937   0.51842   0.20212   0.00000  Uiso   1.00
C141   C     0.49648   0.59976   0.09669   0.00000  Uiso   1.00
C142   C     0.44105   0.50242   0.01045   0.00000  Uiso   1.00
C143   C     0.32238   0.40114   0.84295   0.00000  Uiso   1.00
C144   C     0.77652   0.60735   0.39457   0.00000  Uiso   1.00
C145   C     0.84099   0.76346   0.45097   0.00000  Uiso   1.00
C146   C     0.94311   0.74097   0.52675   0.00000  Uiso   1.00
C147   C     0.11502   0.77774   0.65809   0.00000  Uiso   1.00
C148   C     0.66665   0.45836   0.35136   0.00000  Uiso   1.00
C149   C     0.63876   0.48919   0.37146   0.00000  Uiso   1.00
C150   C     0.64839   0.34127   0.41089   0.00000  Uiso   1.00
C151   C     0.64970   0.14670   0.47515   0.00000  Uiso   1.00
C152   C     0.72900   0.28306   0.34249   0.00000  Uiso   1.00
C153   C     0.62562   0.34596   0.22076   0.00000  Uiso   1.00
C154   C     0.57031   0.24847   0.13466   0.00000  Uiso   1.00
C155   C     0.47735   0.32965   0.02912   0.00000  Uiso   1.00
C156   C     0.81277   0.43490   0.41321   0.00000  Uiso   1.00
C157   C     0.91482   0.41217   0.48893   0.00000  Uiso   1.00
C158   C     0.97942   0.56821   0.54542   0.00000  Uiso   1.00
C159   C     0.70289   0.28589   0.37000   0.00000  Uiso   1.00
C160   C     0.71258   0.13790   0.40942   0.00000  Uiso   1.00
C161   C     0.68470   0.16850   0.42957   0.00000  Uiso   1.00
H162   H     0.63405   0.73484   0.29367   0.00000  Uiso   1.00
H163   H     0.46846   0.73323   0.08230   0.00000  Uiso   1.00
H164   H     0.81292   0.89690   0.43653   0.00000  Uiso   1.00
H165   H     0.61071   0.62267   0.35703   0.00000  Uiso   1.00
H166   H     0.30088   0.65543   0.85619   0.00000  Uiso   1.00
H167   H     0.02720   0.00052   0.60313   0.00000  Uiso   1.00
H168   H     0.60081   0.42225   0.43549   0.00000  Uiso   1.00
H169   H     0.75723   0.14879   0.35701   0.00000  Uiso   1.00
H170   H     0.59838   0.11501   0.14911   0.00000  Uiso   1.00
H171   H     0.94285   0.27869   0.50334   0.00000  Uiso   1.00
H172   H     0.74063   0.00446   0.42384   0.00000  Uiso   1.00
H173   H     0.40633   0.15366   0.91041   0.00000  Uiso   1.00
H174   H     0.13266   0.49876   0.65736   0.00000  Uiso   1.00
H175   H     0.70626   0.92049   0.48971   0.00000  Uiso   1.00
O176   O     0.24691   0.39293   0.74541   0.00000  Uiso   1.00
O177   O     0.19983   0.84567   0.72538   0.00000  Uiso   1.00
O178   O     0.64040   0.08701   0.50543   0.00000  Uiso   1.00
N179   N     0.34748   0.54195   0.89748   0.00000  Uiso   1.00
N180   N     0.02655   0.86460   0.59581   0.00000  Uiso   1.00
N181   N     0.62793   0.32399   0.43911   0.00000  Uiso   1.00
N182   N     0.40423   0.27196   0.92666   0.00000  Uiso   1.00
N183   N     0.08329   0.59461   0.62499   0.00000  Uiso   1.00
N184   N     0.68467   0.05399   0.46828   0.00000  Uiso   1.00
