data_job_02423
_audit_creation_date              2018-12-19
_audit_creation_method            'Materials Studio'
_symmetry_space_group_name_H-M    'P1'
_symmetry_Int_Tables_number       1
_symmetry_cell_setting            triclinic
loop_
_symmetry_equiv_pos_as_xyz
  x,y,z
_cell_length_a                    21.2998
_cell_length_b                    7.4071
_cell_length_c                    26.2220
_cell_angle_alpha                 90.0000
_cell_angle_beta                  129.2360
_cell_angle_gamma                 90.0000
loop_
_atom_site_label
_atom_site_type_symbol
_atom_site_fract_x
_atom_site_fract_y
_atom_site_fract_z
_atom_site_U_iso_or_equiv
_atom_site_adp_type
_atom_site_occupancy
C1     C     0.85049   0.02061   0.31175   0.00000  Uiso   1.00
C2     C     0.92999   0.01814   0.32294   0.00000  Uiso   1.00
C3     C     0.97760   0.86707   0.33830   0.00000  Uiso   1.00
C4     C     0.04814   0.89293   0.34662   0.00000  Uiso   1.00
C5     C     0.16825   0.86313   0.36506   0.00000  Uiso   1.00
C6     C     0.86189   0.15813   0.36029   0.00000  Uiso   1.00
C7     C     0.85223   0.12476   0.40704   0.00000  Uiso   1.00
C8     C     0.86543   0.26848   0.44679   0.00000  Uiso   1.00
C9     C     0.87975   0.45605   0.52318   0.00000  Uiso   1.00
C10    C     0.78744   0.10113   0.24343   0.00000  Uiso   1.00
C11    C     0.71516   0.01986   0.19194   0.00000  Uiso   1.00
C12    C     0.66568   0.11561   0.13331   0.00000  Uiso   1.00
C13    C     0.56440   0.21467   0.02826   0.00000  Uiso   1.00
C14    C     0.89112   0.33519   0.29919   0.00000  Uiso   1.00
C15    C     0.95206   0.18902   0.31612   0.00000  Uiso   1.00
C16    C     0.02255   0.21512   0.32441   0.00000  Uiso   1.00
C17    C     0.07025   0.06411   0.33978   0.00000  Uiso   1.00
C18    C     0.88396   0.32900   0.35347   0.00000  Uiso   1.00
C19    C     0.89718   0.47281   0.39315   0.00000  Uiso   1.00
C20    C     0.88754   0.43966   0.43996   0.00000  Uiso   1.00
C21    C     0.80951   0.27200   0.23661   0.00000  Uiso   1.00
C22    C     0.76012   0.36791   0.17804   0.00000  Uiso   1.00
C23    C     0.68778   0.28679   0.12647   0.00000  Uiso   1.00
H24    H     0.83331   0.88759   0.31707   0.00000  Uiso   1.00
H25    H     0.96050   0.73486   0.34358   0.00000  Uiso   1.00
H26    H     0.83514   0.99252   0.41231   0.00000  Uiso   1.00
H27    H     0.69811   0.88763   0.19724   0.00000  Uiso   1.00
H28    H     0.11126   0.64090   0.37000   0.00000  Uiso   1.00
H29    H     0.84691   0.18420   0.51489   0.00000  Uiso   1.00
H30    H     0.55793   0.96302   0.06137   0.00000  Uiso   1.00
H31    H     0.90830   0.46823   0.29388   0.00000  Uiso   1.00
H32    H     0.03961   0.34737   0.31912   0.00000  Uiso   1.00
H33    H     0.91425   0.60502   0.38785   0.00000  Uiso   1.00
H34    H     0.77721   0.50013   0.17278   0.00000  Uiso   1.00
H35    H     0.17547   0.13804   0.35015   0.00000  Uiso   1.00
H36    H     0.91111   0.68134   0.49504   0.00000  Uiso   1.00
H37    H     0.62214   0.46016   0.04153   0.00000  Uiso   1.00
O38    O     0.22841   0.79950   0.37712   0.00000  Uiso   1.00
O39    O     0.88156   0.51229   0.56721   0.00000  Uiso   1.00
O40    O     0.50245   0.22210   0.97220   0.00000  Uiso   1.00
N41    N     0.10835   0.77449   0.36185   0.00000  Uiso   1.00
N42    N     0.86120   0.28243   0.49732   0.00000  Uiso   1.00
N43    N     0.59103   0.07566   0.07333   0.00000  Uiso   1.00
N44    N     0.14290   0.04199   0.35117   0.00000  Uiso   1.00
N45    N     0.89575   0.54993   0.48664   0.00000  Uiso   1.00
N46    N     0.62558   0.34317   0.06265   0.00000  Uiso   1.00
C47    C     0.14951   0.02061   0.18825   0.00000  Uiso   1.00
C48    C     0.07001   0.01814   0.17706   0.00000  Uiso   1.00
C49    C     0.02240   0.86707   0.16170   0.00000  Uiso   1.00
C50    C     0.95186   0.89293   0.15338   0.00000  Uiso   1.00
C51    C     0.83175   0.86313   0.13494   0.00000  Uiso   1.00
C52    C     0.13811   0.15813   0.13971   0.00000  Uiso   1.00
C53    C     0.14777   0.12476   0.09296   0.00000  Uiso   1.00
C54    C     0.13457   0.26848   0.05321   0.00000  Uiso   1.00
C55    C     0.12025   0.45605   0.97682   0.00000  Uiso   1.00
C56    C     0.21256   0.10113   0.25657   0.00000  Uiso   1.00
C57    C     0.28484   0.01986   0.30806   0.00000  Uiso   1.00
C58    C     0.33432   0.11561   0.36669   0.00000  Uiso   1.00
C59    C     0.43560   0.21467   0.47174   0.00000  Uiso   1.00
C60    C     0.10888   0.33519   0.20081   0.00000  Uiso   1.00
C61    C     0.04794   0.18902   0.18388   0.00000  Uiso   1.00
C62    C     0.97745   0.21512   0.17559   0.00000  Uiso   1.00
C63    C     0.92975   0.06411   0.16022   0.00000  Uiso   1.00
C64    C     0.11604   0.32900   0.14653   0.00000  Uiso   1.00
C65    C     0.10282   0.47281   0.10685   0.00000  Uiso   1.00
C66    C     0.11246   0.43966   0.06004   0.00000  Uiso   1.00
C67    C     0.19049   0.27200   0.26339   0.00000  Uiso   1.00
C68    C     0.23988   0.36791   0.32196   0.00000  Uiso   1.00
C69    C     0.31222   0.28679   0.37353   0.00000  Uiso   1.00
H70    H     0.16669   0.88759   0.18293   0.00000  Uiso   1.00
H71    H     0.03950   0.73486   0.15642   0.00000  Uiso   1.00
H72    H     0.16486   0.99252   0.08769   0.00000  Uiso   1.00
H73    H     0.30189   0.88763   0.30276   0.00000  Uiso   1.00
H74    H     0.88874   0.64090   0.13000   0.00000  Uiso   1.00
H75    H     0.15309   0.18420   0.98511   0.00000  Uiso   1.00
H76    H     0.44207   0.96302   0.43863   0.00000  Uiso   1.00
H77    H     0.09170   0.46823   0.20612   0.00000  Uiso   1.00
H78    H     0.96039   0.34737   0.18088   0.00000  Uiso   1.00
H79    H     0.08575   0.60502   0.11215   0.00000  Uiso   1.00
H80    H     0.22279   0.50013   0.32722   0.00000  Uiso   1.00
H81    H     0.82453   0.13804   0.14985   0.00000  Uiso   1.00
H82    H     0.08889   0.68134   0.00496   0.00000  Uiso   1.00
H83    H     0.37786   0.46016   0.45847   0.00000  Uiso   1.00
O84    O     0.77159   0.79950   0.12288   0.00000  Uiso   1.00
O85    O     0.11844   0.51229   0.93279   0.00000  Uiso   1.00
O86    O     0.49755   0.22210   0.52780   0.00000  Uiso   1.00
N87    N     0.89165   0.77449   0.13815   0.00000  Uiso   1.00
N88    N     0.13880   0.28243   0.00268   0.00000  Uiso   1.00
N89    N     0.40897   0.07566   0.42667   0.00000  Uiso   1.00
N90    N     0.85710   0.04199   0.14883   0.00000  Uiso   1.00
N91    N     0.10425   0.54993   0.01336   0.00000  Uiso   1.00
N92    N     0.37442   0.34317   0.43735   0.00000  Uiso   1.00
C93    C     0.14951   0.97939   0.68825   0.00000  Uiso   1.00
C94    C     0.07001   0.98186   0.67706   0.00000  Uiso   1.00
C95    C     0.02240   0.13293   0.66170   0.00000  Uiso   1.00
C96    C     0.95186   0.10707   0.65338   0.00000  Uiso   1.00
C97    C     0.83175   0.13687   0.63494   0.00000  Uiso   1.00
C98    C     0.13811   0.84187   0.63971   0.00000  Uiso   1.00
C99    C     0.14777   0.87524   0.59296   0.00000  Uiso   1.00
C100   C     0.13457   0.73152   0.55321   0.00000  Uiso   1.00
C101   C     0.12025   0.54395   0.47682   0.00000  Uiso   1.00
C102   C     0.21256   0.89887   0.75657   0.00000  Uiso   1.00
C103   C     0.28484   0.98014   0.80806   0.00000  Uiso   1.00
C104   C     0.33432   0.88439   0.86669   0.00000  Uiso   1.00
C105   C     0.43560   0.78533   0.97174   0.00000  Uiso   1.00
C106   C     0.10888   0.66481   0.70081   0.00000  Uiso   1.00
C107   C     0.04794   0.81098   0.68388   0.00000  Uiso   1.00
C108   C     0.97745   0.78488   0.67559   0.00000  Uiso   1.00
C109   C     0.92975   0.93589   0.66022   0.00000  Uiso   1.00
C110   C     0.11604   0.67100   0.64653   0.00000  Uiso   1.00
C111   C     0.10282   0.52719   0.60685   0.00000  Uiso   1.00
C112   C     0.11246   0.56034   0.56004   0.00000  Uiso   1.00
C113   C     0.19049   0.72800   0.76339   0.00000  Uiso   1.00
C114   C     0.23988   0.63209   0.82196   0.00000  Uiso   1.00
C115   C     0.31222   0.71321   0.87353   0.00000  Uiso   1.00
H116   H     0.16669   0.11241   0.68293   0.00000  Uiso   1.00
H117   H     0.03950   0.26514   0.65642   0.00000  Uiso   1.00
H118   H     0.16486   0.00748   0.58769   0.00000  Uiso   1.00
H119   H     0.30189   0.11237   0.80276   0.00000  Uiso   1.00
H120   H     0.88874   0.35910   0.63000   0.00000  Uiso   1.00
H121   H     0.15309   0.81580   0.48511   0.00000  Uiso   1.00
H122   H     0.44207   0.03698   0.93863   0.00000  Uiso   1.00
H123   H     0.09170   0.53177   0.70612   0.00000  Uiso   1.00
H124   H     0.96039   0.65263   0.68088   0.00000  Uiso   1.00
H125   H     0.08575   0.39498   0.61215   0.00000  Uiso   1.00
H126   H     0.22279   0.49987   0.82722   0.00000  Uiso   1.00
H127   H     0.82453   0.86196   0.64985   0.00000  Uiso   1.00
H128   H     0.08889   0.31866   0.50496   0.00000  Uiso   1.00
H129   H     0.37786   0.53984   0.95847   0.00000  Uiso   1.00
O130   O     0.77159   0.20050   0.62288   0.00000  Uiso   1.00
O131   O     0.11844   0.48771   0.43279   0.00000  Uiso   1.00
O132   O     0.49755   0.77790   0.02780   0.00000  Uiso   1.00
N133   N     0.89165   0.22551   0.63815   0.00000  Uiso   1.00
N134   N     0.13880   0.71757   0.50268   0.00000  Uiso   1.00
N135   N     0.40897   0.92434   0.92667   0.00000  Uiso   1.00
N136   N     0.85710   0.95801   0.64883   0.00000  Uiso   1.00
N137   N     0.10425   0.45007   0.51336   0.00000  Uiso   1.00
N138   N     0.37442   0.65683   0.93735   0.00000  Uiso   1.00
C139   C     0.85049   0.97939   0.81175   0.00000  Uiso   1.00
C140   C     0.92999   0.98186   0.82294   0.00000  Uiso   1.00
C141   C     0.97760   0.13293   0.83830   0.00000  Uiso   1.00
C142   C     0.04814   0.10707   0.84662   0.00000  Uiso   1.00
C143   C     0.16825   0.13687   0.86506   0.00000  Uiso   1.00
C144   C     0.86189   0.84187   0.86029   0.00000  Uiso   1.00
C145   C     0.85223   0.87524   0.90704   0.00000  Uiso   1.00
C146   C     0.86543   0.73152   0.94679   0.00000  Uiso   1.00
C147   C     0.87975   0.54395   0.02318   0.00000  Uiso   1.00
C148   C     0.78744   0.89887   0.74343   0.00000  Uiso   1.00
C149   C     0.71516   0.98014   0.69194   0.00000  Uiso   1.00
C150   C     0.66568   0.88439   0.63331   0.00000  Uiso   1.00
C151   C     0.56440   0.78533   0.52826   0.00000  Uiso   1.00
C152   C     0.89112   0.66481   0.79919   0.00000  Uiso   1.00
C153   C     0.95206   0.81098   0.81612   0.00000  Uiso   1.00
C154   C     0.02255   0.78488   0.82441   0.00000  Uiso   1.00
C155   C     0.07025   0.93589   0.83978   0.00000  Uiso   1.00
C156   C     0.88396   0.67100   0.85347   0.00000  Uiso   1.00
C157   C     0.89718   0.52719   0.89315   0.00000  Uiso   1.00
C158   C     0.88754   0.56034   0.93996   0.00000  Uiso   1.00
C159   C     0.80951   0.72800   0.73661   0.00000  Uiso   1.00
C160   C     0.76012   0.63209   0.67804   0.00000  Uiso   1.00
C161   C     0.68778   0.71321   0.62647   0.00000  Uiso   1.00
H162   H     0.83331   0.11241   0.81707   0.00000  Uiso   1.00
H163   H     0.96050   0.26514   0.84358   0.00000  Uiso   1.00
H164   H     0.83514   0.00748   0.91231   0.00000  Uiso   1.00
H165   H     0.69811   0.11237   0.69724   0.00000  Uiso   1.00
H166   H     0.11126   0.35910   0.87000   0.00000  Uiso   1.00
H167   H     0.84691   0.81580   0.01489   0.00000  Uiso   1.00
H168   H     0.55793   0.03698   0.56137   0.00000  Uiso   1.00
H169   H     0.90830   0.53177   0.79388   0.00000  Uiso   1.00
H170   H     0.03961   0.65263   0.81912   0.00000  Uiso   1.00
H171   H     0.91425   0.39498   0.88785   0.00000  Uiso   1.00
H172   H     0.77721   0.49987   0.67278   0.00000  Uiso   1.00
H173   H     0.17547   0.86196   0.85015   0.00000  Uiso   1.00
H174   H     0.91111   0.31866   0.99504   0.00000  Uiso   1.00
H175   H     0.62214   0.53984   0.54153   0.00000  Uiso   1.00
O176   O     0.22841   0.20050   0.87712   0.00000  Uiso   1.00
O177   O     0.88156   0.48771   0.06721   0.00000  Uiso   1.00
O178   O     0.50245   0.77790   0.47220   0.00000  Uiso   1.00
N179   N     0.10835   0.22551   0.86185   0.00000  Uiso   1.00
N180   N     0.86120   0.71757   0.99732   0.00000  Uiso   1.00
N181   N     0.59103   0.92434   0.57333   0.00000  Uiso   1.00
N182   N     0.14290   0.95801   0.85117   0.00000  Uiso   1.00
N183   N     0.89575   0.45007   0.98664   0.00000  Uiso   1.00
N184   N     0.62558   0.65683   0.56265   0.00000  Uiso   1.00
