data_job_05716
_audit_creation_date              2018-12-19
_audit_creation_method            'Materials Studio'
_symmetry_space_group_name_H-M    'P1'
_symmetry_Int_Tables_number       1
_symmetry_cell_setting            triclinic
loop_
_symmetry_equiv_pos_as_xyz
  x,y,z
_cell_length_a                    19.4337
_cell_length_b                    14.9126
_cell_length_c                    21.1921
_cell_angle_alpha                 90.0000
_cell_angle_beta                  90.0000
_cell_angle_gamma                 90.0000
loop_
_atom_site_label
_atom_site_type_symbol
_atom_site_fract_x
_atom_site_fract_y
_atom_site_fract_z
_atom_site_U_iso_or_equiv
_atom_site_adp_type
_atom_site_occupancy
C1     C     0.04725   0.30884   0.93586   0.00000  Uiso   1.00
C2     C     0.97180   0.30621   0.91620   0.00000  Uiso   1.00
C3     C     0.93183   0.37996   0.90033   0.00000  Uiso   1.00
C4     C     0.86391   0.36350   0.88364   0.00000  Uiso   1.00
C5     C     0.75085   0.37267   0.85319   0.00000  Uiso   1.00
C6     C     0.08520   0.24717   0.89022   0.00000  Uiso   1.00
C7     C     0.14059   0.27127   0.85252   0.00000  Uiso   1.00
C8     C     0.16814   0.20511   0.81397   0.00000  Uiso   1.00
C9     C     0.23118   0.12259   0.74323   0.00000  Uiso   1.00
C10    C     0.05080   0.26324   0.00019   0.00000  Uiso   1.00
C11    C     0.07728   0.30085   0.05495   0.00000  Uiso   1.00
C12    C     0.07588   0.24821   0.10897   0.00000  Uiso   1.00
C13    C     0.08550   0.19065   0.20897   0.00000  Uiso   1.00
C14    C     0.99770   0.14847   0.93443   0.00000  Uiso   1.00
C15    C     0.94488   0.21910   0.91542   0.00000  Uiso   1.00
C16    C     0.87701   0.20253   0.89875   0.00000  Uiso   1.00
C17    C     0.83694   0.27624   0.88286   0.00000  Uiso   1.00
C18    C     0.05829   0.16006   0.88944   0.00000  Uiso   1.00
C19    C     0.08577   0.09384   0.85094   0.00000  Uiso   1.00
C20    C     0.14118   0.11784   0.81319   0.00000  Uiso   1.00
C21    C     0.02388   0.17613   0.99941   0.00000  Uiso   1.00
C22    C     0.02245   0.12342   0.05336   0.00000  Uiso   1.00
C23    C     0.04892   0.16094   0.10819   0.00000  Uiso   1.00
H24    H     0.06821   0.37665   0.93647   0.00000  Uiso   1.00
H25    H     0.95268   0.44736   0.90093   0.00000  Uiso   1.00
H26    H     0.16141   0.33868   0.85314   0.00000  Uiso   1.00
H27    H     0.09810   0.36826   0.05553   0.00000  Uiso   1.00
H28    H     0.81273   0.48733   0.86117   0.00000  Uiso   1.00
H29    H     0.25287   0.25818   0.76041   0.00000  Uiso   1.00
H30    H     0.11937   0.32054   0.18719   0.00000  Uiso   1.00
H31    H     0.97675   0.08065   0.93383   0.00000  Uiso   1.00
H32    H     0.85619   0.13511   0.89815   0.00000  Uiso   1.00
H33    H     0.06493   0.02644   0.85035   0.00000  Uiso   1.00
H34    H     0.00162   0.05602   0.05274   0.00000  Uiso   1.00
H35    H     0.73442   0.23390   0.85891   0.00000  Uiso   1.00
H36    H     0.17456   0.00475   0.75815   0.00000  Uiso   1.00
H37    H     0.04106   0.06711   0.18493   0.00000  Uiso   1.00
O38    O     0.69593   0.40179   0.83660   0.00000  Uiso   1.00
O39    O     0.27338   0.10114   0.70441   0.00000  Uiso   1.00
O40    O     0.09823   0.18296   0.26434   0.00000  Uiso   1.00
N41    N     0.81084   0.42022   0.86555   0.00000  Uiso   1.00
N42    N     0.22234   0.20597   0.77133   0.00000  Uiso   1.00
N43    N     0.09755   0.26427   0.17033   0.00000  Uiso   1.00
N44    N     0.76870   0.28385   0.86433   0.00000  Uiso   1.00
N45    N     0.18020   0.06961   0.77012   0.00000  Uiso   1.00
N46    N     0.05541   0.12790   0.16912   0.00000  Uiso   1.00
C47    C     0.45275   0.69116   0.93586   0.00000  Uiso   1.00
C48    C     0.52820   0.69379   0.91620   0.00000  Uiso   1.00
C49    C     0.56817   0.62004   0.90033   0.00000  Uiso   1.00
C50    C     0.63609   0.63650   0.88364   0.00000  Uiso   1.00
C51    C     0.74915   0.62733   0.85319   0.00000  Uiso   1.00
C52    C     0.41480   0.75283   0.89022   0.00000  Uiso   1.00
C53    C     0.35941   0.72873   0.85252   0.00000  Uiso   1.00
C54    C     0.33186   0.79489   0.81397   0.00000  Uiso   1.00
C55    C     0.26882   0.87741   0.74323   0.00000  Uiso   1.00
C56    C     0.44920   0.73676   0.00019   0.00000  Uiso   1.00
C57    C     0.42272   0.69915   0.05495   0.00000  Uiso   1.00
C58    C     0.42412   0.75179   0.10897   0.00000  Uiso   1.00
C59    C     0.41450   0.80935   0.20897   0.00000  Uiso   1.00
C60    C     0.50230   0.85153   0.93443   0.00000  Uiso   1.00
C61    C     0.55512   0.78090   0.91542   0.00000  Uiso   1.00
C62    C     0.62299   0.79747   0.89875   0.00000  Uiso   1.00
C63    C     0.66306   0.72376   0.88286   0.00000  Uiso   1.00
C64    C     0.44171   0.83994   0.88944   0.00000  Uiso   1.00
C65    C     0.41423   0.90616   0.85094   0.00000  Uiso   1.00
C66    C     0.35882   0.88216   0.81319   0.00000  Uiso   1.00
C67    C     0.47612   0.82387   0.99941   0.00000  Uiso   1.00
C68    C     0.47755   0.87658   0.05336   0.00000  Uiso   1.00
C69    C     0.45108   0.83906   0.10819   0.00000  Uiso   1.00
H70    H     0.43179   0.62335   0.93647   0.00000  Uiso   1.00
H71    H     0.54732   0.55264   0.90093   0.00000  Uiso   1.00
H72    H     0.33859   0.66132   0.85314   0.00000  Uiso   1.00
H73    H     0.40190   0.63174   0.05553   0.00000  Uiso   1.00
H74    H     0.68727   0.51267   0.86117   0.00000  Uiso   1.00
H75    H     0.24713   0.74182   0.76041   0.00000  Uiso   1.00
H76    H     0.38063   0.67946   0.18719   0.00000  Uiso   1.00
H77    H     0.52325   0.91935   0.93383   0.00000  Uiso   1.00
H78    H     0.64381   0.86489   0.89815   0.00000  Uiso   1.00
H79    H     0.43507   0.97356   0.85035   0.00000  Uiso   1.00
H80    H     0.49838   0.94398   0.05274   0.00000  Uiso   1.00
H81    H     0.76558   0.76610   0.85891   0.00000  Uiso   1.00
H82    H     0.32544   0.99525   0.75815   0.00000  Uiso   1.00
H83    H     0.45894   0.93289   0.18493   0.00000  Uiso   1.00
O84    O     0.80407   0.59821   0.83660   0.00000  Uiso   1.00
O85    O     0.22662   0.89886   0.70441   0.00000  Uiso   1.00
O86    O     0.40177   0.81704   0.26434   0.00000  Uiso   1.00
N87    N     0.68916   0.57978   0.86555   0.00000  Uiso   1.00
N88    N     0.27766   0.79403   0.77133   0.00000  Uiso   1.00
N89    N     0.40245   0.73573   0.17033   0.00000  Uiso   1.00
N90    N     0.73130   0.71615   0.86433   0.00000  Uiso   1.00
N91    N     0.31980   0.93039   0.77012   0.00000  Uiso   1.00
N92    N     0.44459   0.87210   0.16912   0.00000  Uiso   1.00
C93    C     0.95275   0.30884   0.56414   0.00000  Uiso   1.00
C94    C     0.02820   0.30621   0.58380   0.00000  Uiso   1.00
C95    C     0.06817   0.37996   0.59967   0.00000  Uiso   1.00
C96    C     0.13609   0.36350   0.61636   0.00000  Uiso   1.00
C97    C     0.24915   0.37267   0.64681   0.00000  Uiso   1.00
C98    C     0.91480   0.24717   0.60978   0.00000  Uiso   1.00
C99    C     0.85941   0.27127   0.64748   0.00000  Uiso   1.00
C100   C     0.83186   0.20511   0.68603   0.00000  Uiso   1.00
C101   C     0.76882   0.12259   0.75677   0.00000  Uiso   1.00
C102   C     0.94920   0.26324   0.49981   0.00000  Uiso   1.00
C103   C     0.92272   0.30085   0.44505   0.00000  Uiso   1.00
C104   C     0.92412   0.24821   0.39103   0.00000  Uiso   1.00
C105   C     0.91450   0.19065   0.29103   0.00000  Uiso   1.00
C106   C     0.00230   0.14847   0.56557   0.00000  Uiso   1.00
C107   C     0.05512   0.21910   0.58458   0.00000  Uiso   1.00
C108   C     0.12299   0.20253   0.60125   0.00000  Uiso   1.00
C109   C     0.16306   0.27624   0.61714   0.00000  Uiso   1.00
C110   C     0.94171   0.16006   0.61056   0.00000  Uiso   1.00
C111   C     0.91423   0.09384   0.64906   0.00000  Uiso   1.00
C112   C     0.85882   0.11784   0.68681   0.00000  Uiso   1.00
C113   C     0.97612   0.17613   0.50059   0.00000  Uiso   1.00
C114   C     0.97755   0.12342   0.44664   0.00000  Uiso   1.00
C115   C     0.95108   0.16094   0.39181   0.00000  Uiso   1.00
H116   H     0.93179   0.37665   0.56353   0.00000  Uiso   1.00
H117   H     0.04732   0.44736   0.59907   0.00000  Uiso   1.00
H118   H     0.83859   0.33868   0.64686   0.00000  Uiso   1.00
H119   H     0.90190   0.36826   0.44447   0.00000  Uiso   1.00
H120   H     0.18727   0.48733   0.63883   0.00000  Uiso   1.00
H121   H     0.74713   0.25818   0.73959   0.00000  Uiso   1.00
H122   H     0.88063   0.32054   0.31281   0.00000  Uiso   1.00
H123   H     0.02325   0.08065   0.56617   0.00000  Uiso   1.00
H124   H     0.14381   0.13511   0.60185   0.00000  Uiso   1.00
H125   H     0.93507   0.02644   0.64965   0.00000  Uiso   1.00
H126   H     0.99838   0.05602   0.44726   0.00000  Uiso   1.00
H127   H     0.26558   0.23390   0.64109   0.00000  Uiso   1.00
H128   H     0.82544   0.00475   0.74185   0.00000  Uiso   1.00
H129   H     0.95894   0.06711   0.31507   0.00000  Uiso   1.00
O130   O     0.30407   0.40179   0.66340   0.00000  Uiso   1.00
O131   O     0.72662   0.10114   0.79559   0.00000  Uiso   1.00
O132   O     0.90177   0.18296   0.23566   0.00000  Uiso   1.00
N133   N     0.18916   0.42022   0.63445   0.00000  Uiso   1.00
N134   N     0.77766   0.20597   0.72867   0.00000  Uiso   1.00
N135   N     0.90245   0.26427   0.32967   0.00000  Uiso   1.00
N136   N     0.23130   0.28385   0.63567   0.00000  Uiso   1.00
N137   N     0.81980   0.06961   0.72988   0.00000  Uiso   1.00
N138   N     0.94459   0.12790   0.33088   0.00000  Uiso   1.00
C139   C     0.54725   0.69116   0.56414   0.00000  Uiso   1.00
C140   C     0.47180   0.69379   0.58380   0.00000  Uiso   1.00
C141   C     0.43183   0.62004   0.59967   0.00000  Uiso   1.00
C142   C     0.36391   0.63650   0.61636   0.00000  Uiso   1.00
C143   C     0.25085   0.62733   0.64681   0.00000  Uiso   1.00
C144   C     0.58520   0.75283   0.60978   0.00000  Uiso   1.00
C145   C     0.64059   0.72873   0.64748   0.00000  Uiso   1.00
C146   C     0.66814   0.79489   0.68603   0.00000  Uiso   1.00
C147   C     0.73118   0.87741   0.75677   0.00000  Uiso   1.00
C148   C     0.55080   0.73676   0.49981   0.00000  Uiso   1.00
C149   C     0.57728   0.69915   0.44505   0.00000  Uiso   1.00
C150   C     0.57588   0.75179   0.39103   0.00000  Uiso   1.00
C151   C     0.58550   0.80935   0.29103   0.00000  Uiso   1.00
C152   C     0.49770   0.85153   0.56557   0.00000  Uiso   1.00
C153   C     0.44488   0.78090   0.58458   0.00000  Uiso   1.00
C154   C     0.37701   0.79747   0.60125   0.00000  Uiso   1.00
C155   C     0.33694   0.72376   0.61714   0.00000  Uiso   1.00
C156   C     0.55829   0.83994   0.61056   0.00000  Uiso   1.00
C157   C     0.58577   0.90616   0.64906   0.00000  Uiso   1.00
C158   C     0.64118   0.88216   0.68681   0.00000  Uiso   1.00
C159   C     0.52388   0.82387   0.50059   0.00000  Uiso   1.00
C160   C     0.52245   0.87658   0.44664   0.00000  Uiso   1.00
C161   C     0.54892   0.83906   0.39181   0.00000  Uiso   1.00
H162   H     0.56821   0.62335   0.56353   0.00000  Uiso   1.00
H163   H     0.45268   0.55264   0.59907   0.00000  Uiso   1.00
H164   H     0.66141   0.66132   0.64686   0.00000  Uiso   1.00
H165   H     0.59810   0.63174   0.44447   0.00000  Uiso   1.00
H166   H     0.31273   0.51267   0.63883   0.00000  Uiso   1.00
H167   H     0.75287   0.74182   0.73959   0.00000  Uiso   1.00
H168   H     0.61937   0.67946   0.31281   0.00000  Uiso   1.00
H169   H     0.47675   0.91935   0.56617   0.00000  Uiso   1.00
H170   H     0.35619   0.86489   0.60185   0.00000  Uiso   1.00
H171   H     0.56493   0.97356   0.64965   0.00000  Uiso   1.00
H172   H     0.50162   0.94398   0.44726   0.00000  Uiso   1.00
H173   H     0.23442   0.76610   0.64109   0.00000  Uiso   1.00
H174   H     0.67456   0.99525   0.74185   0.00000  Uiso   1.00
H175   H     0.54106   0.93289   0.31507   0.00000  Uiso   1.00
O176   O     0.19593   0.59821   0.66340   0.00000  Uiso   1.00
O177   O     0.77338   0.89886   0.79559   0.00000  Uiso   1.00
O178   O     0.59823   0.81704   0.23566   0.00000  Uiso   1.00
N179   N     0.31084   0.57978   0.63445   0.00000  Uiso   1.00
N180   N     0.72234   0.79403   0.72867   0.00000  Uiso   1.00
N181   N     0.59755   0.73573   0.32967   0.00000  Uiso   1.00
N182   N     0.26870   0.71615   0.63567   0.00000  Uiso   1.00
N183   N     0.68020   0.93039   0.72988   0.00000  Uiso   1.00
N184   N     0.55541   0.87210   0.33088   0.00000  Uiso   1.00
C185   C     0.95275   0.69116   0.06414   0.00000  Uiso   1.00
C186   C     0.02820   0.69379   0.08380   0.00000  Uiso   1.00
C187   C     0.06817   0.62004   0.09967   0.00000  Uiso   1.00
C188   C     0.13609   0.63650   0.11636   0.00000  Uiso   1.00
C189   C     0.24915   0.62733   0.14681   0.00000  Uiso   1.00
C190   C     0.91480   0.75283   0.10978   0.00000  Uiso   1.00
C191   C     0.85941   0.72873   0.14748   0.00000  Uiso   1.00
C192   C     0.83186   0.79489   0.18603   0.00000  Uiso   1.00
C193   C     0.76882   0.87741   0.25677   0.00000  Uiso   1.00
C194   C     0.94920   0.73676   0.99981   0.00000  Uiso   1.00
C195   C     0.92272   0.69915   0.94505   0.00000  Uiso   1.00
C196   C     0.92412   0.75179   0.89103   0.00000  Uiso   1.00
C197   C     0.91450   0.80935   0.79103   0.00000  Uiso   1.00
C198   C     0.00230   0.85153   0.06557   0.00000  Uiso   1.00
C199   C     0.05512   0.78090   0.08458   0.00000  Uiso   1.00
C200   C     0.12299   0.79747   0.10125   0.00000  Uiso   1.00
C201   C     0.16306   0.72376   0.11714   0.00000  Uiso   1.00
C202   C     0.94171   0.83994   0.11056   0.00000  Uiso   1.00
C203   C     0.91423   0.90616   0.14906   0.00000  Uiso   1.00
C204   C     0.85882   0.88216   0.18681   0.00000  Uiso   1.00
C205   C     0.97612   0.82387   0.00059   0.00000  Uiso   1.00
C206   C     0.97755   0.87658   0.94664   0.00000  Uiso   1.00
C207   C     0.95108   0.83906   0.89181   0.00000  Uiso   1.00
H208   H     0.93179   0.62335   0.06353   0.00000  Uiso   1.00
H209   H     0.04732   0.55264   0.09907   0.00000  Uiso   1.00
H210   H     0.83859   0.66132   0.14686   0.00000  Uiso   1.00
H211   H     0.90190   0.63174   0.94447   0.00000  Uiso   1.00
H212   H     0.18727   0.51267   0.13883   0.00000  Uiso   1.00
H213   H     0.74713   0.74182   0.23959   0.00000  Uiso   1.00
H214   H     0.88063   0.67946   0.81281   0.00000  Uiso   1.00
H215   H     0.02325   0.91935   0.06617   0.00000  Uiso   1.00
H216   H     0.14381   0.86489   0.10185   0.00000  Uiso   1.00
H217   H     0.93507   0.97356   0.14965   0.00000  Uiso   1.00
H218   H     0.99838   0.94398   0.94726   0.00000  Uiso   1.00
H219   H     0.26558   0.76610   0.14109   0.00000  Uiso   1.00
H220   H     0.82544   0.99525   0.24185   0.00000  Uiso   1.00
H221   H     0.95894   0.93289   0.81507   0.00000  Uiso   1.00
O222   O     0.30407   0.59821   0.16340   0.00000  Uiso   1.00
O223   O     0.72662   0.89886   0.29559   0.00000  Uiso   1.00
O224   O     0.90177   0.81704   0.73566   0.00000  Uiso   1.00
N225   N     0.18916   0.57978   0.13445   0.00000  Uiso   1.00
N226   N     0.77766   0.79403   0.22867   0.00000  Uiso   1.00
N227   N     0.90245   0.73573   0.82967   0.00000  Uiso   1.00
N228   N     0.23130   0.71615   0.13567   0.00000  Uiso   1.00
N229   N     0.81980   0.93039   0.22988   0.00000  Uiso   1.00
N230   N     0.94459   0.87210   0.83088   0.00000  Uiso   1.00
C231   C     0.54725   0.30884   0.06414   0.00000  Uiso   1.00
C232   C     0.47180   0.30621   0.08380   0.00000  Uiso   1.00
C233   C     0.43183   0.37996   0.09967   0.00000  Uiso   1.00
C234   C     0.36391   0.36350   0.11636   0.00000  Uiso   1.00
C235   C     0.25085   0.37267   0.14681   0.00000  Uiso   1.00
C236   C     0.58520   0.24717   0.10978   0.00000  Uiso   1.00
C237   C     0.64059   0.27127   0.14748   0.00000  Uiso   1.00
C238   C     0.66814   0.20511   0.18603   0.00000  Uiso   1.00
C239   C     0.73118   0.12259   0.25677   0.00000  Uiso   1.00
C240   C     0.55080   0.26324   0.99981   0.00000  Uiso   1.00
C241   C     0.57728   0.30085   0.94505   0.00000  Uiso   1.00
C242   C     0.57588   0.24821   0.89103   0.00000  Uiso   1.00
C243   C     0.58550   0.19065   0.79103   0.00000  Uiso   1.00
C244   C     0.49770   0.14847   0.06557   0.00000  Uiso   1.00
C245   C     0.44488   0.21910   0.08458   0.00000  Uiso   1.00
C246   C     0.37701   0.20253   0.10125   0.00000  Uiso   1.00
C247   C     0.33694   0.27624   0.11714   0.00000  Uiso   1.00
C248   C     0.55829   0.16006   0.11056   0.00000  Uiso   1.00
C249   C     0.58577   0.09384   0.14906   0.00000  Uiso   1.00
C250   C     0.64118   0.11784   0.18681   0.00000  Uiso   1.00
C251   C     0.52388   0.17613   0.00059   0.00000  Uiso   1.00
C252   C     0.52245   0.12342   0.94664   0.00000  Uiso   1.00
C253   C     0.54892   0.16094   0.89181   0.00000  Uiso   1.00
H254   H     0.56821   0.37665   0.06353   0.00000  Uiso   1.00
H255   H     0.45268   0.44736   0.09907   0.00000  Uiso   1.00
H256   H     0.66141   0.33868   0.14686   0.00000  Uiso   1.00
H257   H     0.59810   0.36826   0.94447   0.00000  Uiso   1.00
H258   H     0.31273   0.48733   0.13883   0.00000  Uiso   1.00
H259   H     0.75287   0.25818   0.23959   0.00000  Uiso   1.00
H260   H     0.61937   0.32054   0.81281   0.00000  Uiso   1.00
H261   H     0.47675   0.08065   0.06617   0.00000  Uiso   1.00
H262   H     0.35619   0.13511   0.10185   0.00000  Uiso   1.00
H263   H     0.56493   0.02644   0.14965   0.00000  Uiso   1.00
H264   H     0.50162   0.05602   0.94726   0.00000  Uiso   1.00
H265   H     0.23442   0.23390   0.14109   0.00000  Uiso   1.00
H266   H     0.67456   0.00475   0.24185   0.00000  Uiso   1.00
H267   H     0.54106   0.06711   0.81507   0.00000  Uiso   1.00
O268   O     0.19593   0.40179   0.16340   0.00000  Uiso   1.00
O269   O     0.77338   0.10114   0.29559   0.00000  Uiso   1.00
O270   O     0.59823   0.18296   0.73566   0.00000  Uiso   1.00
N271   N     0.31084   0.42022   0.13445   0.00000  Uiso   1.00
N272   N     0.72234   0.20597   0.22867   0.00000  Uiso   1.00
N273   N     0.59755   0.26427   0.82967   0.00000  Uiso   1.00
N274   N     0.26870   0.28385   0.13567   0.00000  Uiso   1.00
N275   N     0.68020   0.06961   0.22988   0.00000  Uiso   1.00
N276   N     0.55541   0.12790   0.83088   0.00000  Uiso   1.00
C277   C     0.04725   0.69116   0.43586   0.00000  Uiso   1.00
C278   C     0.97180   0.69379   0.41620   0.00000  Uiso   1.00
C279   C     0.93183   0.62004   0.40033   0.00000  Uiso   1.00
C280   C     0.86391   0.63650   0.38364   0.00000  Uiso   1.00
C281   C     0.75085   0.62733   0.35319   0.00000  Uiso   1.00
C282   C     0.08520   0.75283   0.39022   0.00000  Uiso   1.00
C283   C     0.14059   0.72873   0.35252   0.00000  Uiso   1.00
C284   C     0.16814   0.79489   0.31397   0.00000  Uiso   1.00
C285   C     0.23118   0.87741   0.24323   0.00000  Uiso   1.00
C286   C     0.05080   0.73676   0.50019   0.00000  Uiso   1.00
C287   C     0.07728   0.69915   0.55495   0.00000  Uiso   1.00
C288   C     0.07588   0.75179   0.60897   0.00000  Uiso   1.00
C289   C     0.08550   0.80935   0.70897   0.00000  Uiso   1.00
C290   C     0.99770   0.85153   0.43443   0.00000  Uiso   1.00
C291   C     0.94488   0.78090   0.41542   0.00000  Uiso   1.00
C292   C     0.87701   0.79747   0.39875   0.00000  Uiso   1.00
C293   C     0.83694   0.72376   0.38286   0.00000  Uiso   1.00
C294   C     0.05829   0.83994   0.38944   0.00000  Uiso   1.00
C295   C     0.08577   0.90616   0.35094   0.00000  Uiso   1.00
C296   C     0.14118   0.88216   0.31319   0.00000  Uiso   1.00
C297   C     0.02388   0.82387   0.49941   0.00000  Uiso   1.00
C298   C     0.02245   0.87658   0.55336   0.00000  Uiso   1.00
C299   C     0.04892   0.83906   0.60819   0.00000  Uiso   1.00
H300   H     0.06821   0.62335   0.43647   0.00000  Uiso   1.00
H301   H     0.95268   0.55264   0.40093   0.00000  Uiso   1.00
H302   H     0.16141   0.66132   0.35314   0.00000  Uiso   1.00
H303   H     0.09810   0.63174   0.55553   0.00000  Uiso   1.00
H304   H     0.81273   0.51267   0.36117   0.00000  Uiso   1.00
H305   H     0.25287   0.74182   0.26041   0.00000  Uiso   1.00
H306   H     0.11937   0.67946   0.68719   0.00000  Uiso   1.00
H307   H     0.97675   0.91935   0.43383   0.00000  Uiso   1.00
H308   H     0.85619   0.86489   0.39815   0.00000  Uiso   1.00
H309   H     0.06493   0.97356   0.35035   0.00000  Uiso   1.00
H310   H     0.00162   0.94398   0.55274   0.00000  Uiso   1.00
H311   H     0.73442   0.76610   0.35891   0.00000  Uiso   1.00
H312   H     0.17456   0.99525   0.25815   0.00000  Uiso   1.00
H313   H     0.04106   0.93289   0.68493   0.00000  Uiso   1.00
O314   O     0.69593   0.59821   0.33660   0.00000  Uiso   1.00
O315   O     0.27338   0.89886   0.20441   0.00000  Uiso   1.00
O316   O     0.09823   0.81704   0.76434   0.00000  Uiso   1.00
N317   N     0.81084   0.57978   0.36555   0.00000  Uiso   1.00
N318   N     0.22234   0.79403   0.27133   0.00000  Uiso   1.00
N319   N     0.09755   0.73573   0.67033   0.00000  Uiso   1.00
N320   N     0.76870   0.71615   0.36433   0.00000  Uiso   1.00
N321   N     0.18020   0.93039   0.27012   0.00000  Uiso   1.00
N322   N     0.05541   0.87210   0.66912   0.00000  Uiso   1.00
C323   C     0.45275   0.30884   0.43586   0.00000  Uiso   1.00
C324   C     0.52820   0.30621   0.41620   0.00000  Uiso   1.00
C325   C     0.56817   0.37996   0.40033   0.00000  Uiso   1.00
C326   C     0.63609   0.36350   0.38364   0.00000  Uiso   1.00
C327   C     0.74915   0.37267   0.35319   0.00000  Uiso   1.00
C328   C     0.41480   0.24717   0.39022   0.00000  Uiso   1.00
C329   C     0.35941   0.27127   0.35252   0.00000  Uiso   1.00
C330   C     0.33186   0.20511   0.31397   0.00000  Uiso   1.00
C331   C     0.26882   0.12259   0.24323   0.00000  Uiso   1.00
C332   C     0.44920   0.26324   0.50019   0.00000  Uiso   1.00
C333   C     0.42272   0.30085   0.55495   0.00000  Uiso   1.00
C334   C     0.42412   0.24821   0.60897   0.00000  Uiso   1.00
C335   C     0.41450   0.19065   0.70897   0.00000  Uiso   1.00
C336   C     0.50230   0.14847   0.43443   0.00000  Uiso   1.00
C337   C     0.55512   0.21910   0.41542   0.00000  Uiso   1.00
C338   C     0.62299   0.20253   0.39875   0.00000  Uiso   1.00
C339   C     0.66306   0.27624   0.38286   0.00000  Uiso   1.00
C340   C     0.44171   0.16006   0.38944   0.00000  Uiso   1.00
C341   C     0.41423   0.09384   0.35094   0.00000  Uiso   1.00
C342   C     0.35882   0.11784   0.31319   0.00000  Uiso   1.00
C343   C     0.47612   0.17613   0.49941   0.00000  Uiso   1.00
C344   C     0.47755   0.12342   0.55336   0.00000  Uiso   1.00
C345   C     0.45108   0.16094   0.60819   0.00000  Uiso   1.00
H346   H     0.43179   0.37665   0.43647   0.00000  Uiso   1.00
H347   H     0.54732   0.44736   0.40093   0.00000  Uiso   1.00
H348   H     0.33859   0.33868   0.35314   0.00000  Uiso   1.00
H349   H     0.40190   0.36826   0.55553   0.00000  Uiso   1.00
H350   H     0.68727   0.48733   0.36117   0.00000  Uiso   1.00
H351   H     0.24713   0.25818   0.26041   0.00000  Uiso   1.00
H352   H     0.38063   0.32054   0.68719   0.00000  Uiso   1.00
H353   H     0.52325   0.08065   0.43383   0.00000  Uiso   1.00
H354   H     0.64381   0.13511   0.39815   0.00000  Uiso   1.00
H355   H     0.43507   0.02644   0.35035   0.00000  Uiso   1.00
H356   H     0.49838   0.05602   0.55274   0.00000  Uiso   1.00
H357   H     0.76558   0.23390   0.35891   0.00000  Uiso   1.00
H358   H     0.32544   0.00475   0.25815   0.00000  Uiso   1.00
H359   H     0.45894   0.06711   0.68493   0.00000  Uiso   1.00
O360   O     0.80407   0.40179   0.33660   0.00000  Uiso   1.00
O361   O     0.22662   0.10114   0.20441   0.00000  Uiso   1.00
O362   O     0.40177   0.18296   0.76434   0.00000  Uiso   1.00
N363   N     0.68916   0.42022   0.36555   0.00000  Uiso   1.00
N364   N     0.27766   0.20597   0.27133   0.00000  Uiso   1.00
N365   N     0.40245   0.26427   0.67033   0.00000  Uiso   1.00
N366   N     0.73130   0.28385   0.36433   0.00000  Uiso   1.00
N367   N     0.31980   0.06961   0.27012   0.00000  Uiso   1.00
N368   N     0.44459   0.12790   0.66912   0.00000  Uiso   1.00
