data_job_00015
_audit_creation_date              2018-12-19
_audit_creation_method            'Materials Studio'
_symmetry_space_group_name_H-M    'P1'
_symmetry_Int_Tables_number       1
_symmetry_cell_setting            triclinic
loop_
_symmetry_equiv_pos_as_xyz
  x,y,z
_cell_length_a                    26.6601
_cell_length_b                    7.3750
_cell_length_c                    32.1616
_cell_angle_alpha                 90.0000
_cell_angle_beta                  134.1164
_cell_angle_gamma                 90.0000
loop_
_atom_site_label
_atom_site_type_symbol
_atom_site_fract_x
_atom_site_fract_y
_atom_site_fract_z
_atom_site_U_iso_or_equiv
_atom_site_adp_type
_atom_site_occupancy
C1     C     0.25350   0.82527   0.86863   0.00000  Uiso   1.00
C2     C     0.18125   0.90520   0.81899   0.00000  Uiso   1.00
C3     C     0.12047   0.80681   0.77723   0.00000  Uiso   1.00
C4     C     0.05964   0.90514   0.73545   0.00000  Uiso   1.00
C5     C     0.94744   0.00036   0.65838   0.00000  Uiso   1.00
C6     C     0.27806   0.90502   0.92404   0.00000  Uiso   1.00
C7     C     0.29870   0.80647   0.97060   0.00000  Uiso   1.00
C8     C     0.31938   0.90466   0.01725   0.00000  Uiso   1.00
C9     C     0.35754   0.99961   0.10328   0.00000  Uiso   1.00
C10    C     0.30122   0.90517   0.86292   0.00000  Uiso   1.00
C11    C     0.34135   0.80676   0.85810   0.00000  Uiso   1.00
C12    C     0.38155   0.90508   0.85331   0.00000  Uiso   1.00
C13    C     0.45566   0.00026   0.84444   0.00000  Uiso   1.00
C14    C     0.25354   0.17487   0.86870   0.00000  Uiso   1.00
C15    C     0.18127   0.09509   0.81903   0.00000  Uiso   1.00
C16    C     0.12052   0.19360   0.77730   0.00000  Uiso   1.00
C17    C     0.05966   0.09537   0.73548   0.00000  Uiso   1.00
C18    C     0.27808   0.09490   0.92407   0.00000  Uiso   1.00
C19    C     0.29874   0.19326   0.97067   0.00000  Uiso   1.00
C20    C     0.31941   0.09489   0.01728   0.00000  Uiso   1.00
C21    C     0.30124   0.09506   0.86295   0.00000  Uiso   1.00
C22    C     0.34139   0.19355   0.85817   0.00000  Uiso   1.00
C23    C     0.38157   0.09531   0.85334   0.00000  Uiso   1.00
H24    H     0.25349   0.67744   0.86861   0.00000  Uiso   1.00
H25    H     0.12048   0.65985   0.77722   0.00000  Uiso   1.00
H26    H     0.29869   0.65953   0.97056   0.00000  Uiso   1.00
H27    H     0.34132   0.65982   0.85808   0.00000  Uiso   1.00
H28    H     0.97302   0.72410   0.67593   0.00000  Uiso   1.00
H29    H     0.34880   0.72341   0.08360   0.00000  Uiso   1.00
H30    H     0.43871   0.72401   0.84641   0.00000  Uiso   1.00
H31    H     0.25356   0.32271   0.86873   0.00000  Uiso   1.00
H32    H     0.12055   0.34054   0.77734   0.00000  Uiso   1.00
H33    H     0.29876   0.34021   0.97068   0.00000  Uiso   1.00
H34    H     0.34139   0.34050   0.85820   0.00000  Uiso   1.00
H35    H     0.97307   0.27657   0.67603   0.00000  Uiso   1.00
H36    H     0.34886   0.27588   0.08370   0.00000  Uiso   1.00
H37    H     0.43877   0.27649   0.84651   0.00000  Uiso   1.00
O38    O     0.88554   0.00042   0.61587   0.00000  Uiso   1.00
O39    O     0.37857   0.99951   0.15073   0.00000  Uiso   1.00
O40    O     0.49652   0.00030   0.83953   0.00000  Uiso   1.00
N41    N     0.99129   0.85168   0.68849   0.00000  Uiso   1.00
N42    N     0.34261   0.85103   0.06963   0.00000  Uiso   1.00
N43    N     0.42669   0.85160   0.84789   0.00000  Uiso   1.00
N44    N     0.99132   0.14896   0.68854   0.00000  Uiso   1.00
N45    N     0.34264   0.14831   0.06968   0.00000  Uiso   1.00
N46    N     0.42671   0.14888   0.84795   0.00000  Uiso   1.00
C47    C     0.75350   0.32527   0.86863   0.00000  Uiso   1.00
C48    C     0.68125   0.40520   0.81899   0.00000  Uiso   1.00
C49    C     0.62047   0.30681   0.77723   0.00000  Uiso   1.00
C50    C     0.55964   0.40514   0.73545   0.00000  Uiso   1.00
C51    C     0.44744   0.50036   0.65838   0.00000  Uiso   1.00
C52    C     0.77806   0.40502   0.92404   0.00000  Uiso   1.00
C53    C     0.79870   0.30647   0.97060   0.00000  Uiso   1.00
C54    C     0.81938   0.40466   0.01725   0.00000  Uiso   1.00
C55    C     0.85754   0.49961   0.10328   0.00000  Uiso   1.00
C56    C     0.80122   0.40517   0.86292   0.00000  Uiso   1.00
C57    C     0.84135   0.30676   0.85810   0.00000  Uiso   1.00
C58    C     0.88155   0.40508   0.85331   0.00000  Uiso   1.00
C59    C     0.95566   0.50026   0.84444   0.00000  Uiso   1.00
C60    C     0.75354   0.67487   0.86870   0.00000  Uiso   1.00
C61    C     0.68127   0.59509   0.81903   0.00000  Uiso   1.00
C62    C     0.62052   0.69360   0.77730   0.00000  Uiso   1.00
C63    C     0.55966   0.59537   0.73548   0.00000  Uiso   1.00
C64    C     0.77808   0.59490   0.92407   0.00000  Uiso   1.00
C65    C     0.79874   0.69326   0.97067   0.00000  Uiso   1.00
C66    C     0.81941   0.59489   0.01728   0.00000  Uiso   1.00
C67    C     0.80124   0.59506   0.86295   0.00000  Uiso   1.00
C68    C     0.84139   0.69355   0.85817   0.00000  Uiso   1.00
C69    C     0.88157   0.59531   0.85334   0.00000  Uiso   1.00
H70    H     0.75349   0.17744   0.86861   0.00000  Uiso   1.00
H71    H     0.62048   0.15985   0.77722   0.00000  Uiso   1.00
H72    H     0.79869   0.15953   0.97056   0.00000  Uiso   1.00
H73    H     0.84132   0.15982   0.85808   0.00000  Uiso   1.00
H74    H     0.47302   0.22410   0.67593   0.00000  Uiso   1.00
H75    H     0.84880   0.22341   0.08360   0.00000  Uiso   1.00
H76    H     0.93871   0.22401   0.84641   0.00000  Uiso   1.00
H77    H     0.75356   0.82271   0.86873   0.00000  Uiso   1.00
H78    H     0.62055   0.84054   0.77734   0.00000  Uiso   1.00
H79    H     0.79876   0.84021   0.97068   0.00000  Uiso   1.00
H80    H     0.84139   0.84050   0.85820   0.00000  Uiso   1.00
H81    H     0.47307   0.77657   0.67603   0.00000  Uiso   1.00
H82    H     0.84886   0.77588   0.08370   0.00000  Uiso   1.00
H83    H     0.93877   0.77649   0.84651   0.00000  Uiso   1.00
O84    O     0.38554   0.50042   0.61587   0.00000  Uiso   1.00
O85    O     0.87857   0.49951   0.15073   0.00000  Uiso   1.00
O86    O     0.99652   0.50030   0.83953   0.00000  Uiso   1.00
N87    N     0.49129   0.35168   0.68849   0.00000  Uiso   1.00
N88    N     0.84261   0.35103   0.06963   0.00000  Uiso   1.00
N89    N     0.92669   0.35160   0.84789   0.00000  Uiso   1.00
N90    N     0.49132   0.64896   0.68854   0.00000  Uiso   1.00
N91    N     0.84264   0.64831   0.06968   0.00000  Uiso   1.00
N92    N     0.92671   0.64888   0.84795   0.00000  Uiso   1.00
C93    C     0.74650   0.82527   0.63137   0.00000  Uiso   1.00
C94    C     0.81875   0.90520   0.68101   0.00000  Uiso   1.00
C95    C     0.87953   0.80681   0.72277   0.00000  Uiso   1.00
C96    C     0.94036   0.90514   0.76455   0.00000  Uiso   1.00
C97    C     0.05256   0.00036   0.84162   0.00000  Uiso   1.00
C98    C     0.72194   0.90502   0.57596   0.00000  Uiso   1.00
C99    C     0.70130   0.80647   0.52940   0.00000  Uiso   1.00
C100   C     0.68062   0.90466   0.48275   0.00000  Uiso   1.00
C101   C     0.64246   0.99961   0.39672   0.00000  Uiso   1.00
C102   C     0.69878   0.90517   0.63708   0.00000  Uiso   1.00
C103   C     0.65865   0.80676   0.64190   0.00000  Uiso   1.00
C104   C     0.61845   0.90508   0.64669   0.00000  Uiso   1.00
C105   C     0.54434   0.00026   0.65556   0.00000  Uiso   1.00
C106   C     0.74646   0.17487   0.63130   0.00000  Uiso   1.00
C107   C     0.81873   0.09509   0.68097   0.00000  Uiso   1.00
C108   C     0.87948   0.19360   0.72270   0.00000  Uiso   1.00
C109   C     0.94034   0.09537   0.76452   0.00000  Uiso   1.00
C110   C     0.72192   0.09490   0.57593   0.00000  Uiso   1.00
C111   C     0.70126   0.19326   0.52933   0.00000  Uiso   1.00
C112   C     0.68059   0.09489   0.48272   0.00000  Uiso   1.00
C113   C     0.69876   0.09506   0.63705   0.00000  Uiso   1.00
C114   C     0.65861   0.19355   0.64183   0.00000  Uiso   1.00
C115   C     0.61843   0.09531   0.64666   0.00000  Uiso   1.00
H116   H     0.74651   0.67744   0.63139   0.00000  Uiso   1.00
H117   H     0.87952   0.65985   0.72278   0.00000  Uiso   1.00
H118   H     0.70131   0.65953   0.52944   0.00000  Uiso   1.00
H119   H     0.65868   0.65982   0.64192   0.00000  Uiso   1.00
H120   H     0.02698   0.72410   0.82407   0.00000  Uiso   1.00
H121   H     0.65120   0.72341   0.41640   0.00000  Uiso   1.00
H122   H     0.56129   0.72401   0.65359   0.00000  Uiso   1.00
H123   H     0.74644   0.32271   0.63127   0.00000  Uiso   1.00
H124   H     0.87945   0.34054   0.72266   0.00000  Uiso   1.00
H125   H     0.70124   0.34021   0.52932   0.00000  Uiso   1.00
H126   H     0.65861   0.34050   0.64180   0.00000  Uiso   1.00
H127   H     0.02693   0.27657   0.82397   0.00000  Uiso   1.00
H128   H     0.65114   0.27588   0.41630   0.00000  Uiso   1.00
H129   H     0.56123   0.27649   0.65349   0.00000  Uiso   1.00
O130   O     0.11446   0.00042   0.88413   0.00000  Uiso   1.00
O131   O     0.62143   0.99951   0.34927   0.00000  Uiso   1.00
O132   O     0.50348   0.00030   0.66047   0.00000  Uiso   1.00
N133   N     0.00871   0.85168   0.81151   0.00000  Uiso   1.00
N134   N     0.65739   0.85103   0.43037   0.00000  Uiso   1.00
N135   N     0.57331   0.85160   0.65211   0.00000  Uiso   1.00
N136   N     0.00868   0.14896   0.81146   0.00000  Uiso   1.00
N137   N     0.65736   0.14831   0.43032   0.00000  Uiso   1.00
N138   N     0.57329   0.14888   0.65205   0.00000  Uiso   1.00
C139   C     0.24650   0.32527   0.63137   0.00000  Uiso   1.00
C140   C     0.31875   0.40520   0.68101   0.00000  Uiso   1.00
C141   C     0.37953   0.30681   0.72277   0.00000  Uiso   1.00
C142   C     0.44036   0.40514   0.76455   0.00000  Uiso   1.00
C143   C     0.55256   0.50036   0.84162   0.00000  Uiso   1.00
C144   C     0.22194   0.40502   0.57596   0.00000  Uiso   1.00
C145   C     0.20130   0.30647   0.52940   0.00000  Uiso   1.00
C146   C     0.18062   0.40466   0.48275   0.00000  Uiso   1.00
C147   C     0.14246   0.49961   0.39672   0.00000  Uiso   1.00
C148   C     0.19878   0.40517   0.63708   0.00000  Uiso   1.00
C149   C     0.15865   0.30676   0.64190   0.00000  Uiso   1.00
C150   C     0.11845   0.40508   0.64669   0.00000  Uiso   1.00
C151   C     0.04434   0.50026   0.65556   0.00000  Uiso   1.00
C152   C     0.24646   0.67487   0.63130   0.00000  Uiso   1.00
C153   C     0.31873   0.59509   0.68097   0.00000  Uiso   1.00
C154   C     0.37948   0.69360   0.72270   0.00000  Uiso   1.00
C155   C     0.44034   0.59537   0.76452   0.00000  Uiso   1.00
C156   C     0.22192   0.59490   0.57593   0.00000  Uiso   1.00
C157   C     0.20126   0.69326   0.52933   0.00000  Uiso   1.00
C158   C     0.18059   0.59489   0.48272   0.00000  Uiso   1.00
C159   C     0.19876   0.59506   0.63705   0.00000  Uiso   1.00
C160   C     0.15861   0.69355   0.64183   0.00000  Uiso   1.00
C161   C     0.11843   0.59531   0.64666   0.00000  Uiso   1.00
H162   H     0.24651   0.17744   0.63139   0.00000  Uiso   1.00
H163   H     0.37952   0.15985   0.72278   0.00000  Uiso   1.00
H164   H     0.20131   0.15953   0.52944   0.00000  Uiso   1.00
H165   H     0.15868   0.15982   0.64192   0.00000  Uiso   1.00
H166   H     0.52698   0.22410   0.82407   0.00000  Uiso   1.00
H167   H     0.15120   0.22341   0.41640   0.00000  Uiso   1.00
H168   H     0.06129   0.22401   0.65359   0.00000  Uiso   1.00
H169   H     0.24644   0.82271   0.63127   0.00000  Uiso   1.00
H170   H     0.37945   0.84054   0.72266   0.00000  Uiso   1.00
H171   H     0.20124   0.84021   0.52932   0.00000  Uiso   1.00
H172   H     0.15861   0.84050   0.64180   0.00000  Uiso   1.00
H173   H     0.52693   0.77657   0.82397   0.00000  Uiso   1.00
H174   H     0.15114   0.77588   0.41630   0.00000  Uiso   1.00
H175   H     0.06123   0.77649   0.65349   0.00000  Uiso   1.00
O176   O     0.61446   0.50042   0.88413   0.00000  Uiso   1.00
O177   O     0.12143   0.49951   0.34927   0.00000  Uiso   1.00
O178   O     0.00348   0.50030   0.66047   0.00000  Uiso   1.00
N179   N     0.50871   0.35168   0.81151   0.00000  Uiso   1.00
N180   N     0.15739   0.35103   0.43037   0.00000  Uiso   1.00
N181   N     0.07331   0.35160   0.65211   0.00000  Uiso   1.00
N182   N     0.50868   0.64896   0.81146   0.00000  Uiso   1.00
N183   N     0.15736   0.64831   0.43032   0.00000  Uiso   1.00
N184   N     0.07329   0.64888   0.65205   0.00000  Uiso   1.00
C185   C     0.74650   0.17473   0.13137   0.00000  Uiso   1.00
C186   C     0.81875   0.09480   0.18101   0.00000  Uiso   1.00
C187   C     0.87953   0.19319   0.22277   0.00000  Uiso   1.00
C188   C     0.94036   0.09486   0.26455   0.00000  Uiso   1.00
C189   C     0.05256   0.99964   0.34162   0.00000  Uiso   1.00
C190   C     0.72194   0.09498   0.07596   0.00000  Uiso   1.00
C191   C     0.70130   0.19353   0.02940   0.00000  Uiso   1.00
C192   C     0.68062   0.09534   0.98275   0.00000  Uiso   1.00
C193   C     0.64246   0.00039   0.89672   0.00000  Uiso   1.00
C194   C     0.69878   0.09483   0.13708   0.00000  Uiso   1.00
C195   C     0.65865   0.19324   0.14190   0.00000  Uiso   1.00
C196   C     0.61845   0.09492   0.14669   0.00000  Uiso   1.00
C197   C     0.54434   0.99974   0.15556   0.00000  Uiso   1.00
C198   C     0.74646   0.82513   0.13130   0.00000  Uiso   1.00
C199   C     0.81873   0.90491   0.18097   0.00000  Uiso   1.00
C200   C     0.87948   0.80640   0.22270   0.00000  Uiso   1.00
C201   C     0.94034   0.90463   0.26452   0.00000  Uiso   1.00
C202   C     0.72192   0.90510   0.07593   0.00000  Uiso   1.00
C203   C     0.70126   0.80674   0.02933   0.00000  Uiso   1.00
C204   C     0.68059   0.90511   0.98272   0.00000  Uiso   1.00
C205   C     0.69876   0.90494   0.13705   0.00000  Uiso   1.00
C206   C     0.65861   0.80645   0.14183   0.00000  Uiso   1.00
C207   C     0.61843   0.90469   0.14666   0.00000  Uiso   1.00
H208   H     0.74651   0.32256   0.13139   0.00000  Uiso   1.00
H209   H     0.87952   0.34015   0.22278   0.00000  Uiso   1.00
H210   H     0.70131   0.34047   0.02944   0.00000  Uiso   1.00
H211   H     0.65868   0.34018   0.14192   0.00000  Uiso   1.00
H212   H     0.02698   0.27590   0.32407   0.00000  Uiso   1.00
H213   H     0.65120   0.27659   0.91640   0.00000  Uiso   1.00
H214   H     0.56129   0.27599   0.15359   0.00000  Uiso   1.00
H215   H     0.74644   0.67729   0.13127   0.00000  Uiso   1.00
H216   H     0.87945   0.65946   0.22266   0.00000  Uiso   1.00
H217   H     0.70124   0.65979   0.02932   0.00000  Uiso   1.00
H218   H     0.65861   0.65950   0.14180   0.00000  Uiso   1.00
H219   H     0.02693   0.72343   0.32397   0.00000  Uiso   1.00
H220   H     0.65114   0.72412   0.91630   0.00000  Uiso   1.00
H221   H     0.56123   0.72351   0.15349   0.00000  Uiso   1.00
O222   O     0.11446   0.99958   0.38413   0.00000  Uiso   1.00
O223   O     0.62143   0.00049   0.84927   0.00000  Uiso   1.00
O224   O     0.50348   0.99970   0.16047   0.00000  Uiso   1.00
N225   N     0.00871   0.14832   0.31151   0.00000  Uiso   1.00
N226   N     0.65739   0.14897   0.93037   0.00000  Uiso   1.00
N227   N     0.57331   0.14840   0.15211   0.00000  Uiso   1.00
N228   N     0.00868   0.85104   0.31146   0.00000  Uiso   1.00
N229   N     0.65736   0.85169   0.93032   0.00000  Uiso   1.00
N230   N     0.57329   0.85112   0.15205   0.00000  Uiso   1.00
C231   C     0.24650   0.67473   0.13137   0.00000  Uiso   1.00
C232   C     0.31875   0.59480   0.18101   0.00000  Uiso   1.00
C233   C     0.37953   0.69319   0.22277   0.00000  Uiso   1.00
C234   C     0.44036   0.59486   0.26455   0.00000  Uiso   1.00
C235   C     0.55256   0.49964   0.34162   0.00000  Uiso   1.00
C236   C     0.22194   0.59498   0.07596   0.00000  Uiso   1.00
C237   C     0.20130   0.69353   0.02940   0.00000  Uiso   1.00
C238   C     0.18062   0.59534   0.98275   0.00000  Uiso   1.00
C239   C     0.14246   0.50039   0.89672   0.00000  Uiso   1.00
C240   C     0.19878   0.59483   0.13708   0.00000  Uiso   1.00
C241   C     0.15865   0.69324   0.14190   0.00000  Uiso   1.00
C242   C     0.11845   0.59492   0.14669   0.00000  Uiso   1.00
C243   C     0.04434   0.49974   0.15556   0.00000  Uiso   1.00
C244   C     0.24646   0.32513   0.13130   0.00000  Uiso   1.00
C245   C     0.31873   0.40491   0.18097   0.00000  Uiso   1.00
C246   C     0.37948   0.30640   0.22270   0.00000  Uiso   1.00
C247   C     0.44034   0.40463   0.26452   0.00000  Uiso   1.00
C248   C     0.22192   0.40510   0.07593   0.00000  Uiso   1.00
C249   C     0.20126   0.30674   0.02933   0.00000  Uiso   1.00
C250   C     0.18059   0.40511   0.98272   0.00000  Uiso   1.00
C251   C     0.19876   0.40494   0.13705   0.00000  Uiso   1.00
C252   C     0.15861   0.30645   0.14183   0.00000  Uiso   1.00
C253   C     0.11843   0.40469   0.14666   0.00000  Uiso   1.00
H254   H     0.24651   0.82256   0.13139   0.00000  Uiso   1.00
H255   H     0.37952   0.84015   0.22278   0.00000  Uiso   1.00
H256   H     0.20131   0.84047   0.02944   0.00000  Uiso   1.00
H257   H     0.15868   0.84018   0.14192   0.00000  Uiso   1.00
H258   H     0.52698   0.77590   0.32407   0.00000  Uiso   1.00
H259   H     0.15120   0.77659   0.91640   0.00000  Uiso   1.00
H260   H     0.06129   0.77599   0.15359   0.00000  Uiso   1.00
H261   H     0.24644   0.17729   0.13127   0.00000  Uiso   1.00
H262   H     0.37945   0.15946   0.22266   0.00000  Uiso   1.00
H263   H     0.20124   0.15979   0.02932   0.00000  Uiso   1.00
H264   H     0.15861   0.15950   0.14180   0.00000  Uiso   1.00
H265   H     0.52693   0.22343   0.32397   0.00000  Uiso   1.00
H266   H     0.15114   0.22412   0.91630   0.00000  Uiso   1.00
H267   H     0.06123   0.22351   0.15349   0.00000  Uiso   1.00
O268   O     0.61446   0.49958   0.38413   0.00000  Uiso   1.00
O269   O     0.12143   0.50049   0.84927   0.00000  Uiso   1.00
O270   O     0.00348   0.49970   0.16047   0.00000  Uiso   1.00
N271   N     0.50871   0.64832   0.31151   0.00000  Uiso   1.00
N272   N     0.15739   0.64897   0.93037   0.00000  Uiso   1.00
N273   N     0.07331   0.64840   0.15211   0.00000  Uiso   1.00
N274   N     0.50868   0.35104   0.31146   0.00000  Uiso   1.00
N275   N     0.15736   0.35169   0.93032   0.00000  Uiso   1.00
N276   N     0.07329   0.35112   0.15205   0.00000  Uiso   1.00
C277   C     0.25350   0.17473   0.36863   0.00000  Uiso   1.00
C278   C     0.18125   0.09480   0.31899   0.00000  Uiso   1.00
C279   C     0.12047   0.19319   0.27723   0.00000  Uiso   1.00
C280   C     0.05964   0.09486   0.23545   0.00000  Uiso   1.00
C281   C     0.94744   0.99964   0.15838   0.00000  Uiso   1.00
C282   C     0.27806   0.09498   0.42404   0.00000  Uiso   1.00
C283   C     0.29870   0.19353   0.47060   0.00000  Uiso   1.00
C284   C     0.31938   0.09534   0.51725   0.00000  Uiso   1.00
C285   C     0.35754   0.00039   0.60328   0.00000  Uiso   1.00
C286   C     0.30122   0.09483   0.36292   0.00000  Uiso   1.00
C287   C     0.34135   0.19324   0.35810   0.00000  Uiso   1.00
C288   C     0.38155   0.09492   0.35331   0.00000  Uiso   1.00
C289   C     0.45566   0.99974   0.34444   0.00000  Uiso   1.00
C290   C     0.25354   0.82513   0.36870   0.00000  Uiso   1.00
C291   C     0.18127   0.90491   0.31903   0.00000  Uiso   1.00
C292   C     0.12052   0.80640   0.27730   0.00000  Uiso   1.00
C293   C     0.05966   0.90463   0.23548   0.00000  Uiso   1.00
C294   C     0.27808   0.90510   0.42407   0.00000  Uiso   1.00
C295   C     0.29874   0.80674   0.47067   0.00000  Uiso   1.00
C296   C     0.31941   0.90511   0.51728   0.00000  Uiso   1.00
C297   C     0.30124   0.90494   0.36295   0.00000  Uiso   1.00
C298   C     0.34139   0.80645   0.35817   0.00000  Uiso   1.00
C299   C     0.38157   0.90469   0.35334   0.00000  Uiso   1.00
H300   H     0.25349   0.32256   0.36861   0.00000  Uiso   1.00
H301   H     0.12048   0.34015   0.27722   0.00000  Uiso   1.00
H302   H     0.29869   0.34047   0.47056   0.00000  Uiso   1.00
H303   H     0.34132   0.34018   0.35808   0.00000  Uiso   1.00
H304   H     0.97302   0.27590   0.17593   0.00000  Uiso   1.00
H305   H     0.34880   0.27659   0.58360   0.00000  Uiso   1.00
H306   H     0.43871   0.27599   0.34641   0.00000  Uiso   1.00
H307   H     0.25356   0.67729   0.36873   0.00000  Uiso   1.00
H308   H     0.12055   0.65946   0.27734   0.00000  Uiso   1.00
H309   H     0.29876   0.65979   0.47068   0.00000  Uiso   1.00
H310   H     0.34139   0.65950   0.35820   0.00000  Uiso   1.00
H311   H     0.97307   0.72343   0.17603   0.00000  Uiso   1.00
H312   H     0.34886   0.72412   0.58370   0.00000  Uiso   1.00
H313   H     0.43877   0.72351   0.34651   0.00000  Uiso   1.00
O314   O     0.88554   0.99958   0.11587   0.00000  Uiso   1.00
O315   O     0.37857   0.00049   0.65073   0.00000  Uiso   1.00
O316   O     0.49652   0.99970   0.33953   0.00000  Uiso   1.00
N317   N     0.99129   0.14832   0.18849   0.00000  Uiso   1.00
N318   N     0.34261   0.14897   0.56963   0.00000  Uiso   1.00
N319   N     0.42669   0.14840   0.34789   0.00000  Uiso   1.00
N320   N     0.99132   0.85104   0.18854   0.00000  Uiso   1.00
N321   N     0.34264   0.85169   0.56968   0.00000  Uiso   1.00
N322   N     0.42671   0.85112   0.34795   0.00000  Uiso   1.00
C323   C     0.75350   0.67473   0.36863   0.00000  Uiso   1.00
C324   C     0.68125   0.59480   0.31899   0.00000  Uiso   1.00
C325   C     0.62047   0.69319   0.27723   0.00000  Uiso   1.00
C326   C     0.55964   0.59486   0.23545   0.00000  Uiso   1.00
C327   C     0.44744   0.49964   0.15838   0.00000  Uiso   1.00
C328   C     0.77806   0.59498   0.42404   0.00000  Uiso   1.00
C329   C     0.79870   0.69353   0.47060   0.00000  Uiso   1.00
C330   C     0.81938   0.59534   0.51725   0.00000  Uiso   1.00
C331   C     0.85754   0.50039   0.60328   0.00000  Uiso   1.00
C332   C     0.80122   0.59483   0.36292   0.00000  Uiso   1.00
C333   C     0.84135   0.69324   0.35810   0.00000  Uiso   1.00
C334   C     0.88155   0.59492   0.35331   0.00000  Uiso   1.00
C335   C     0.95566   0.49974   0.34444   0.00000  Uiso   1.00
C336   C     0.75354   0.32513   0.36870   0.00000  Uiso   1.00
C337   C     0.68127   0.40491   0.31903   0.00000  Uiso   1.00
C338   C     0.62052   0.30640   0.27730   0.00000  Uiso   1.00
C339   C     0.55966   0.40463   0.23548   0.00000  Uiso   1.00
C340   C     0.77808   0.40510   0.42407   0.00000  Uiso   1.00
C341   C     0.79874   0.30674   0.47067   0.00000  Uiso   1.00
C342   C     0.81941   0.40511   0.51728   0.00000  Uiso   1.00
C343   C     0.80124   0.40494   0.36295   0.00000  Uiso   1.00
C344   C     0.84139   0.30645   0.35817   0.00000  Uiso   1.00
C345   C     0.88157   0.40469   0.35334   0.00000  Uiso   1.00
H346   H     0.75349   0.82256   0.36861   0.00000  Uiso   1.00
H347   H     0.62048   0.84015   0.27722   0.00000  Uiso   1.00
H348   H     0.79869   0.84047   0.47056   0.00000  Uiso   1.00
H349   H     0.84132   0.84018   0.35808   0.00000  Uiso   1.00
H350   H     0.47302   0.77590   0.17593   0.00000  Uiso   1.00
H351   H     0.84880   0.77659   0.58360   0.00000  Uiso   1.00
H352   H     0.93871   0.77599   0.34641   0.00000  Uiso   1.00
H353   H     0.75356   0.17729   0.36873   0.00000  Uiso   1.00
H354   H     0.62055   0.15946   0.27734   0.00000  Uiso   1.00
H355   H     0.79876   0.15979   0.47068   0.00000  Uiso   1.00
H356   H     0.84139   0.15950   0.35820   0.00000  Uiso   1.00
H357   H     0.47307   0.22343   0.17603   0.00000  Uiso   1.00
H358   H     0.84886   0.22412   0.58370   0.00000  Uiso   1.00
H359   H     0.93877   0.22351   0.34651   0.00000  Uiso   1.00
O360   O     0.38554   0.49958   0.11587   0.00000  Uiso   1.00
O361   O     0.87857   0.50049   0.65073   0.00000  Uiso   1.00
O362   O     0.99652   0.49970   0.33953   0.00000  Uiso   1.00
N363   N     0.49129   0.64832   0.18849   0.00000  Uiso   1.00
N364   N     0.84261   0.64897   0.56963   0.00000  Uiso   1.00
N365   N     0.92669   0.64840   0.34789   0.00000  Uiso   1.00
N366   N     0.49132   0.35104   0.18854   0.00000  Uiso   1.00
N367   N     0.84264   0.35169   0.56968   0.00000  Uiso   1.00
N368   N     0.92671   0.35112   0.34795   0.00000  Uiso   1.00
