data_job_01673
_audit_creation_date              2018-12-19
_audit_creation_method            'Materials Studio'
_symmetry_space_group_name_H-M    'P1'
_symmetry_Int_Tables_number       1
_symmetry_cell_setting            triclinic
loop_
_symmetry_equiv_pos_as_xyz
  x,y,z
_cell_length_a                    10.5781
_cell_length_b                    22.9036
_cell_length_c                    23.0210
_cell_angle_alpha                 90.0000
_cell_angle_beta                  82.2876
_cell_angle_gamma                 90.0000
loop_
_atom_site_label
_atom_site_type_symbol
_atom_site_fract_x
_atom_site_fract_y
_atom_site_fract_z
_atom_site_U_iso_or_equiv
_atom_site_adp_type
_atom_site_occupancy
C1     C     0.86589   0.39664   0.39125   0.00000  Uiso   1.00
C2     C     0.83783   0.34897   0.34854   0.00000  Uiso   1.00
C3     C     0.92568   0.30935   0.32121   0.00000  Uiso   1.00
C4     C     0.88116   0.26913   0.28364   0.00000  Uiso   1.00
C5     C     0.85703   0.19520   0.21880   0.00000  Uiso   1.00
C6     C     0.82485   0.45390   0.36561   0.00000  Uiso   1.00
C7     C     0.90180   0.50252   0.35265   0.00000  Uiso   1.00
C8     C     0.84635   0.55064   0.32946   0.00000  Uiso   1.00
C9     C     0.80205   0.63964   0.29117   0.00000  Uiso   1.00
C10    C     0.77377   0.38639   0.44716   0.00000  Uiso   1.00
C11    C     0.80775   0.37826   0.50277   0.00000  Uiso   1.00
C12    C     0.70929   0.36955   0.54824   0.00000  Uiso   1.00
C13    C     0.58568   0.35373   0.63657   0.00000  Uiso   1.00
C14    C     0.63061   0.39567   0.37313   0.00000  Uiso   1.00
C15    C     0.71003   0.34844   0.33870   0.00000  Uiso   1.00
C16    C     0.66536   0.30827   0.30116   0.00000  Uiso   1.00
C17    C     0.75313   0.26860   0.27378   0.00000  Uiso   1.00
C18    C     0.69706   0.45338   0.35577   0.00000  Uiso   1.00
C19    C     0.64148   0.50144   0.33260   0.00000  Uiso   1.00
C20    C     0.71832   0.55011   0.31960   0.00000  Uiso   1.00
C21    C     0.64597   0.38586   0.43732   0.00000  Uiso   1.00
C22    C     0.54743   0.37717   0.48272   0.00000  Uiso   1.00
C23    C     0.58126   0.36902   0.53838   0.00000  Uiso   1.00
H24    H     0.96539   0.39706   0.39890   0.00000  Uiso   1.00
H25    H     0.02457   0.30978   0.32883   0.00000  Uiso   1.00
H26    H     0.00069   0.50292   0.36027   0.00000  Uiso   1.00
H27    H     0.90665   0.37867   0.51037   0.00000  Uiso   1.00
H28    H     0.03384   0.21279   0.24678   0.00000  Uiso   1.00
H29    H     0.98347   0.62004   0.31310   0.00000  Uiso   1.00
H30    H     0.78518   0.35804   0.62960   0.00000  Uiso   1.00
H31    H     0.53111   0.39525   0.36547   0.00000  Uiso   1.00
H32    H     0.56646   0.30787   0.29356   0.00000  Uiso   1.00
H33    H     0.54258   0.50101   0.32500   0.00000  Uiso   1.00
H34    H     0.44855   0.37676   0.47509   0.00000  Uiso   1.00
H35    H     0.66202   0.21124   0.21815   0.00000  Uiso   1.00
H36    H     0.61165   0.61850   0.28447   0.00000  Uiso   1.00
H37    H     0.41336   0.35649   0.60097   0.00000  Uiso   1.00
O38    O     0.87903   0.15458   0.18574   0.00000  Uiso   1.00
O39    O     0.81294   0.68888   0.27277   0.00000  Uiso   1.00
O40    O     0.55280   0.34514   0.68801   0.00000  Uiso   1.00
N41    N     0.94147   0.22441   0.24992   0.00000  Uiso   1.00
N42    N     0.89438   0.60517   0.31192   0.00000  Uiso   1.00
N43    N     0.70900   0.36023   0.60782   0.00000  Uiso   1.00
N44    N     0.74140   0.22358   0.23451   0.00000  Uiso   1.00
N45    N     0.69431   0.60433   0.29651   0.00000  Uiso   1.00
N46    N     0.50893   0.35940   0.59242   0.00000  Uiso   1.00
C47    C     0.13411   0.89664   0.10875   0.00000  Uiso   1.00
C48    C     0.16217   0.84897   0.15146   0.00000  Uiso   1.00
C49    C     0.07432   0.80935   0.17879   0.00000  Uiso   1.00
C50    C     0.11884   0.76913   0.21636   0.00000  Uiso   1.00
C51    C     0.14297   0.69520   0.28120   0.00000  Uiso   1.00
C52    C     0.17515   0.95390   0.13439   0.00000  Uiso   1.00
C53    C     0.09820   0.00252   0.14735   0.00000  Uiso   1.00
C54    C     0.15365   0.05064   0.17054   0.00000  Uiso   1.00
C55    C     0.19795   0.13964   0.20883   0.00000  Uiso   1.00
C56    C     0.22623   0.88639   0.05284   0.00000  Uiso   1.00
C57    C     0.19225   0.87826   0.99723   0.00000  Uiso   1.00
C58    C     0.29071   0.86955   0.95176   0.00000  Uiso   1.00
C59    C     0.41432   0.85373   0.86343   0.00000  Uiso   1.00
C60    C     0.36939   0.89567   0.12687   0.00000  Uiso   1.00
C61    C     0.28997   0.84844   0.16130   0.00000  Uiso   1.00
C62    C     0.33464   0.80827   0.19884   0.00000  Uiso   1.00
C63    C     0.24687   0.76860   0.22622   0.00000  Uiso   1.00
C64    C     0.30294   0.95338   0.14423   0.00000  Uiso   1.00
C65    C     0.35852   0.00144   0.16740   0.00000  Uiso   1.00
C66    C     0.28168   0.05011   0.18040   0.00000  Uiso   1.00
C67    C     0.35403   0.88586   0.06268   0.00000  Uiso   1.00
C68    C     0.45257   0.87717   0.01728   0.00000  Uiso   1.00
C69    C     0.41874   0.86902   0.96162   0.00000  Uiso   1.00
H70    H     0.03461   0.89706   0.10110   0.00000  Uiso   1.00
H71    H     0.97543   0.80978   0.17117   0.00000  Uiso   1.00
H72    H     0.99931   0.00292   0.13973   0.00000  Uiso   1.00
H73    H     0.09335   0.87867   0.98963   0.00000  Uiso   1.00
H74    H     0.96616   0.71279   0.25322   0.00000  Uiso   1.00
H75    H     0.01653   0.12004   0.18690   0.00000  Uiso   1.00
H76    H     0.21482   0.85804   0.87040   0.00000  Uiso   1.00
H77    H     0.46889   0.89525   0.13453   0.00000  Uiso   1.00
H78    H     0.43354   0.80787   0.20644   0.00000  Uiso   1.00
H79    H     0.45742   0.00101   0.17500   0.00000  Uiso   1.00
H80    H     0.55145   0.87676   0.02491   0.00000  Uiso   1.00
H81    H     0.33798   0.71124   0.28185   0.00000  Uiso   1.00
H82    H     0.38835   0.11850   0.21553   0.00000  Uiso   1.00
H83    H     0.58664   0.85649   0.89903   0.00000  Uiso   1.00
O84    O     0.12097   0.65458   0.31426   0.00000  Uiso   1.00
O85    O     0.18706   0.18888   0.22723   0.00000  Uiso   1.00
O86    O     0.44720   0.84514   0.81199   0.00000  Uiso   1.00
N87    N     0.05853   0.72441   0.25008   0.00000  Uiso   1.00
N88    N     0.10562   0.10517   0.18808   0.00000  Uiso   1.00
N89    N     0.29100   0.86023   0.89218   0.00000  Uiso   1.00
N90    N     0.25860   0.72358   0.26549   0.00000  Uiso   1.00
N91    N     0.30569   0.10433   0.20349   0.00000  Uiso   1.00
N92    N     0.49107   0.85940   0.90758   0.00000  Uiso   1.00
C93    C     0.13411   0.60336   0.60875   0.00000  Uiso   1.00
C94    C     0.16217   0.65103   0.65146   0.00000  Uiso   1.00
C95    C     0.07432   0.69065   0.67879   0.00000  Uiso   1.00
C96    C     0.11884   0.73087   0.71636   0.00000  Uiso   1.00
C97    C     0.14297   0.80480   0.78120   0.00000  Uiso   1.00
C98    C     0.17515   0.54610   0.63439   0.00000  Uiso   1.00
C99    C     0.09820   0.49748   0.64735   0.00000  Uiso   1.00
C100   C     0.15365   0.44936   0.67054   0.00000  Uiso   1.00
C101   C     0.19795   0.36036   0.70883   0.00000  Uiso   1.00
C102   C     0.22623   0.61361   0.55284   0.00000  Uiso   1.00
C103   C     0.19225   0.62174   0.49723   0.00000  Uiso   1.00
C104   C     0.29071   0.63045   0.45176   0.00000  Uiso   1.00
C105   C     0.41432   0.64627   0.36343   0.00000  Uiso   1.00
C106   C     0.36939   0.60433   0.62687   0.00000  Uiso   1.00
C107   C     0.28997   0.65156   0.66130   0.00000  Uiso   1.00
C108   C     0.33464   0.69173   0.69884   0.00000  Uiso   1.00
C109   C     0.24687   0.73140   0.72622   0.00000  Uiso   1.00
C110   C     0.30294   0.54662   0.64423   0.00000  Uiso   1.00
C111   C     0.35852   0.49856   0.66740   0.00000  Uiso   1.00
C112   C     0.28168   0.44989   0.68040   0.00000  Uiso   1.00
C113   C     0.35403   0.61414   0.56268   0.00000  Uiso   1.00
C114   C     0.45257   0.62283   0.51728   0.00000  Uiso   1.00
C115   C     0.41874   0.63098   0.46162   0.00000  Uiso   1.00
H116   H     0.03461   0.60294   0.60110   0.00000  Uiso   1.00
H117   H     0.97543   0.69022   0.67117   0.00000  Uiso   1.00
H118   H     0.99931   0.49708   0.63973   0.00000  Uiso   1.00
H119   H     0.09335   0.62133   0.48963   0.00000  Uiso   1.00
H120   H     0.96616   0.78721   0.75322   0.00000  Uiso   1.00
H121   H     0.01653   0.37996   0.68690   0.00000  Uiso   1.00
H122   H     0.21482   0.64196   0.37040   0.00000  Uiso   1.00
H123   H     0.46889   0.60475   0.63453   0.00000  Uiso   1.00
H124   H     0.43354   0.69213   0.70644   0.00000  Uiso   1.00
H125   H     0.45742   0.49899   0.67500   0.00000  Uiso   1.00
H126   H     0.55145   0.62324   0.52491   0.00000  Uiso   1.00
H127   H     0.33798   0.78876   0.78185   0.00000  Uiso   1.00
H128   H     0.38835   0.38150   0.71553   0.00000  Uiso   1.00
H129   H     0.58664   0.64351   0.39903   0.00000  Uiso   1.00
O130   O     0.12097   0.84542   0.81426   0.00000  Uiso   1.00
O131   O     0.18706   0.31112   0.72723   0.00000  Uiso   1.00
O132   O     0.44720   0.65486   0.31199   0.00000  Uiso   1.00
N133   N     0.05853   0.77559   0.75008   0.00000  Uiso   1.00
N134   N     0.10562   0.39483   0.68808   0.00000  Uiso   1.00
N135   N     0.29100   0.63977   0.39218   0.00000  Uiso   1.00
N136   N     0.25860   0.77642   0.76549   0.00000  Uiso   1.00
N137   N     0.30569   0.39567   0.70349   0.00000  Uiso   1.00
N138   N     0.49107   0.64060   0.40758   0.00000  Uiso   1.00
C139   C     0.86589   0.10336   0.89125   0.00000  Uiso   1.00
C140   C     0.83783   0.15103   0.84854   0.00000  Uiso   1.00
C141   C     0.92568   0.19065   0.82121   0.00000  Uiso   1.00
C142   C     0.88116   0.23087   0.78364   0.00000  Uiso   1.00
C143   C     0.85703   0.30480   0.71880   0.00000  Uiso   1.00
C144   C     0.82485   0.04610   0.86561   0.00000  Uiso   1.00
C145   C     0.90180   0.99748   0.85265   0.00000  Uiso   1.00
C146   C     0.84635   0.94936   0.82946   0.00000  Uiso   1.00
C147   C     0.80205   0.86036   0.79117   0.00000  Uiso   1.00
C148   C     0.77377   0.11361   0.94716   0.00000  Uiso   1.00
C149   C     0.80775   0.12174   0.00277   0.00000  Uiso   1.00
C150   C     0.70929   0.13045   0.04824   0.00000  Uiso   1.00
C151   C     0.58568   0.14627   0.13657   0.00000  Uiso   1.00
C152   C     0.63061   0.10433   0.87313   0.00000  Uiso   1.00
C153   C     0.71003   0.15156   0.83870   0.00000  Uiso   1.00
C154   C     0.66536   0.19173   0.80116   0.00000  Uiso   1.00
C155   C     0.75313   0.23140   0.77378   0.00000  Uiso   1.00
C156   C     0.69706   0.04662   0.85577   0.00000  Uiso   1.00
C157   C     0.64148   0.99856   0.83260   0.00000  Uiso   1.00
C158   C     0.71832   0.94989   0.81960   0.00000  Uiso   1.00
C159   C     0.64597   0.11414   0.93732   0.00000  Uiso   1.00
C160   C     0.54743   0.12283   0.98272   0.00000  Uiso   1.00
C161   C     0.58126   0.13098   0.03838   0.00000  Uiso   1.00
H162   H     0.96539   0.10294   0.89890   0.00000  Uiso   1.00
H163   H     0.02457   0.19022   0.82883   0.00000  Uiso   1.00
H164   H     0.00069   0.99708   0.86027   0.00000  Uiso   1.00
H165   H     0.90665   0.12133   0.01037   0.00000  Uiso   1.00
H166   H     0.03384   0.28721   0.74678   0.00000  Uiso   1.00
H167   H     0.98347   0.87996   0.81310   0.00000  Uiso   1.00
H168   H     0.78518   0.14196   0.12960   0.00000  Uiso   1.00
H169   H     0.53111   0.10475   0.86547   0.00000  Uiso   1.00
H170   H     0.56646   0.19213   0.79356   0.00000  Uiso   1.00
H171   H     0.54258   0.99899   0.82500   0.00000  Uiso   1.00
H172   H     0.44855   0.12324   0.97509   0.00000  Uiso   1.00
H173   H     0.66202   0.28876   0.71815   0.00000  Uiso   1.00
H174   H     0.61165   0.88150   0.78447   0.00000  Uiso   1.00
H175   H     0.41336   0.14351   0.10097   0.00000  Uiso   1.00
O176   O     0.87903   0.34542   0.68574   0.00000  Uiso   1.00
O177   O     0.81294   0.81112   0.77277   0.00000  Uiso   1.00
O178   O     0.55280   0.15486   0.18801   0.00000  Uiso   1.00
N179   N     0.94147   0.27559   0.74992   0.00000  Uiso   1.00
N180   N     0.89438   0.89483   0.81192   0.00000  Uiso   1.00
N181   N     0.70900   0.13977   0.10782   0.00000  Uiso   1.00
N182   N     0.74140   0.27642   0.73451   0.00000  Uiso   1.00
N183   N     0.69431   0.89567   0.79651   0.00000  Uiso   1.00
N184   N     0.50893   0.14060   0.09242   0.00000  Uiso   1.00
