data_job_04930
_audit_creation_date              2018-12-19
_audit_creation_method            'Materials Studio'
_symmetry_space_group_name_H-M    'P1'
_symmetry_Int_Tables_number       1
_symmetry_cell_setting            triclinic
loop_
_symmetry_equiv_pos_as_xyz
  x,y,z
_cell_length_a                    13.9909
_cell_length_b                    38.8586
_cell_length_c                    12.7493
_cell_angle_alpha                 90.0000
_cell_angle_beta                  124.5492
_cell_angle_gamma                 90.0000
loop_
_atom_site_label
_atom_site_type_symbol
_atom_site_fract_x
_atom_site_fract_y
_atom_site_fract_z
_atom_site_U_iso_or_equiv
_atom_site_adp_type
_atom_site_occupancy
C1     C     0.22505   0.90325   0.00887   0.00000  Uiso   1.00
C2     C     0.15179   0.90998   0.86580   0.00000  Uiso   1.00
C3     C     0.09591   0.94061   0.80697   0.00000  Uiso   1.00
C4     C     0.03314   0.94159   0.67500   0.00000  Uiso   1.00
C5     C     0.92034   0.95639   0.46357   0.00000  Uiso   1.00
C6     C     0.17143   0.87194   0.02889   0.00000  Uiso   1.00
C7     C     0.13207   0.87059   0.10719   0.00000  Uiso   1.00
C8     C     0.08585   0.83955   0.11251   0.00000  Uiso   1.00
C9     C     0.00362   0.79528   0.15435   0.00000  Uiso   1.00
C10    C     0.34364   0.89169   0.04300   0.00000  Uiso   1.00
C11    C     0.44909   0.90694   0.13320   0.00000  Uiso   1.00
C12    C     0.54787   0.89252   0.15044   0.00000  Uiso   1.00
C13    C     0.73303   0.87893   0.21419   0.00000  Uiso   1.00
C14    C     0.21297   0.85051   0.87912   0.00000  Uiso   1.00
C15    C     0.14523   0.88133   0.79533   0.00000  Uiso   1.00
C16    C     0.08254   0.88226   0.66342   0.00000  Uiso   1.00
C17    C     0.02657   0.91290   0.60440   0.00000  Uiso   1.00
C18    C     0.16487   0.84329   0.95841   0.00000  Uiso   1.00
C19    C     0.11871   0.81224   0.96363   0.00000  Uiso   1.00
C20    C     0.07928   0.81085   0.04191   0.00000  Uiso   1.00
C21    C     0.33709   0.86304   0.97253   0.00000  Uiso   1.00
C22    C     0.43572   0.84860   0.98964   0.00000  Uiso   1.00
C23    C     0.54130   0.86383   0.07984   0.00000  Uiso   1.00
H24    H     0.23016   0.92555   0.06374   0.00000  Uiso   1.00
H25    H     0.10100   0.96277   0.86155   0.00000  Uiso   1.00
H26    H     0.13717   0.89276   0.16172   0.00000  Uiso   1.00
H27    H     0.45414   0.92911   0.18772   0.00000  Uiso   1.00
H28    H     0.95487   0.99141   0.60629   0.00000  Uiso   1.00
H29    H     0.03117   0.84378   0.23926   0.00000  Uiso   1.00
H30    H     0.69957   0.92043   0.29410   0.00000  Uiso   1.00
H31    H     0.20786   0.82821   0.82425   0.00000  Uiso   1.00
H32    H     0.07748   0.86009   0.60890   0.00000  Uiso   1.00
H33    H     0.11365   0.79008   0.90908   0.00000  Uiso   1.00
H34    H     0.43062   0.82643   0.93508   0.00000  Uiso   1.00
H35    H     0.93577   0.90807   0.40124   0.00000  Uiso   1.00
H36    H     0.01209   0.76044   0.03422   0.00000  Uiso   1.00
H37    H     0.68047   0.83709   0.08904   0.00000  Uiso   1.00
O38    O     0.85992   0.97246   0.36642   0.00000  Uiso   1.00
O39    O     0.96005   0.77878   0.19688   0.00000  Uiso   1.00
O40    O     0.83696   0.87934   0.26881   0.00000  Uiso   1.00
N41    N     0.96829   0.96742   0.58759   0.00000  Uiso   1.00
N42    N     0.03961   0.82940   0.17936   0.00000  Uiso   1.00
N43    N     0.66451   0.90105   0.23065   0.00000  Uiso   1.00
N44    N     0.95801   0.92257   0.47725   0.00000  Uiso   1.00
N45    N     0.02934   0.78456   0.06903   0.00000  Uiso   1.00
N46    N     0.65423   0.85621   0.12031   0.00000  Uiso   1.00
C47    C     0.30824   0.40470   0.84763   0.00000  Uiso   1.00
C48    C     0.23548   0.41217   0.70507   0.00000  Uiso   1.00
C49    C     0.18008   0.44303   0.64830   0.00000  Uiso   1.00
C50    C     0.11772   0.44471   0.51646   0.00000  Uiso   1.00
C51    C     0.00571   0.46060   0.30611   0.00000  Uiso   1.00
C52    C     0.25401   0.37309   0.86507   0.00000  Uiso   1.00
C53    C     0.21419   0.37108   0.94284   0.00000  Uiso   1.00
C54    C     0.16745   0.33986   0.94569   0.00000  Uiso   1.00
C55    C     0.08427   0.29506   0.98382   0.00000  Uiso   1.00
C56    C     0.42686   0.39328   0.88145   0.00000  Uiso   1.00
C57    C     0.53239   0.40825   0.97303   0.00000  Uiso   1.00
C58    C     0.63118   0.39402   0.98970   0.00000  Uiso   1.00
C59    C     0.81639   0.38058   0.05327   0.00000  Uiso   1.00
C60    C     0.29604   0.35282   0.71442   0.00000  Uiso   1.00
C61    C     0.22886   0.38399   0.63272   0.00000  Uiso   1.00
C62    C     0.16657   0.38563   0.50093   0.00000  Uiso   1.00
C63    C     0.11109   0.41649   0.44398   0.00000  Uiso   1.00
C64    C     0.24738   0.34491   0.79272   0.00000  Uiso   1.00
C65    C     0.20069   0.31369   0.79547   0.00000  Uiso   1.00
C66    C     0.16081   0.31163   0.87321   0.00000  Uiso   1.00
C67    C     0.42024   0.36510   0.80910   0.00000  Uiso   1.00
C68    C     0.51888   0.35085   0.82565   0.00000  Uiso   1.00
C69    C     0.62454   0.36580   0.91722   0.00000  Uiso   1.00
H70    H     0.31340   0.42663   0.90396   0.00000  Uiso   1.00
H71    H     0.18522   0.46482   0.70433   0.00000  Uiso   1.00
H72    H     0.21934   0.39288   0.99883   0.00000  Uiso   1.00
H73    H     0.53749   0.43005   0.02900   0.00000  Uiso   1.00
H74    H     0.04015   0.49474   0.45109   0.00000  Uiso   1.00
H75    H     0.11214   0.34305   0.07210   0.00000  Uiso   1.00
H76    H     0.78301   0.42142   0.13573   0.00000  Uiso   1.00
H77    H     0.29088   0.33088   0.65809   0.00000  Uiso   1.00
H78    H     0.16146   0.36383   0.44496   0.00000  Uiso   1.00
H79    H     0.19558   0.29189   0.73947   0.00000  Uiso   1.00
H80    H     0.51372   0.32905   0.76964   0.00000  Uiso   1.00
H81    H     0.02086   0.41276   0.24058   0.00000  Uiso   1.00
H82    H     0.09285   0.26107   0.86159   0.00000  Uiso   1.00
H83    H     0.76372   0.33944   0.92522   0.00000  Uiso   1.00
O84    O     0.94574   0.47714   0.21007   0.00000  Uiso   1.00
O85    O     0.04021   0.27813   0.02482   0.00000  Uiso   1.00
O86    O     0.92037   0.38095   0.10830   0.00000  Uiso   1.00
N87    N     0.05339   0.47093   0.43080   0.00000  Uiso   1.00
N88    N     0.12068   0.32911   0.01139   0.00000  Uiso   1.00
N89    N     0.74789   0.40237   0.07090   0.00000  Uiso   1.00
N90    N     0.04301   0.42682   0.31753   0.00000  Uiso   1.00
N91    N     0.11030   0.28500   0.89811   0.00000  Uiso   1.00
N92    N     0.73751   0.35826   0.95763   0.00000  Uiso   1.00
C93    C     0.77495   0.40325   0.49113   0.00000  Uiso   1.00
C94    C     0.84821   0.40998   0.63420   0.00000  Uiso   1.00
C95    C     0.90409   0.44061   0.69303   0.00000  Uiso   1.00
C96    C     0.96686   0.44159   0.82500   0.00000  Uiso   1.00
C97    C     0.07966   0.45639   0.03643   0.00000  Uiso   1.00
C98    C     0.82857   0.37194   0.47111   0.00000  Uiso   1.00
C99    C     0.86793   0.37059   0.39281   0.00000  Uiso   1.00
C100   C     0.91415   0.33955   0.38749   0.00000  Uiso   1.00
C101   C     0.99638   0.29528   0.34565   0.00000  Uiso   1.00
C102   C     0.65636   0.39169   0.45700   0.00000  Uiso   1.00
C103   C     0.55091   0.40694   0.36680   0.00000  Uiso   1.00
C104   C     0.45213   0.39252   0.34956   0.00000  Uiso   1.00
C105   C     0.26697   0.37893   0.28581   0.00000  Uiso   1.00
C106   C     0.78703   0.35051   0.62088   0.00000  Uiso   1.00
C107   C     0.85477   0.38133   0.70467   0.00000  Uiso   1.00
C108   C     0.91746   0.38226   0.83658   0.00000  Uiso   1.00
C109   C     0.97343   0.41290   0.89560   0.00000  Uiso   1.00
C110   C     0.83513   0.34329   0.54159   0.00000  Uiso   1.00
C111   C     0.88129   0.31224   0.53637   0.00000  Uiso   1.00
C112   C     0.92072   0.31085   0.45809   0.00000  Uiso   1.00
C113   C     0.66291   0.36304   0.52747   0.00000  Uiso   1.00
C114   C     0.56428   0.34860   0.51036   0.00000  Uiso   1.00
C115   C     0.45870   0.36383   0.42016   0.00000  Uiso   1.00
H116   H     0.76984   0.42555   0.43626   0.00000  Uiso   1.00
H117   H     0.89900   0.46277   0.63845   0.00000  Uiso   1.00
H118   H     0.86283   0.39276   0.33828   0.00000  Uiso   1.00
H119   H     0.54586   0.42911   0.31228   0.00000  Uiso   1.00
H120   H     0.04513   0.49141   0.89371   0.00000  Uiso   1.00
H121   H     0.96883   0.34378   0.26074   0.00000  Uiso   1.00
H122   H     0.30043   0.42043   0.20590   0.00000  Uiso   1.00
H123   H     0.79214   0.32821   0.67575   0.00000  Uiso   1.00
H124   H     0.92252   0.36009   0.89110   0.00000  Uiso   1.00
H125   H     0.88635   0.29008   0.59092   0.00000  Uiso   1.00
H126   H     0.56938   0.32643   0.56492   0.00000  Uiso   1.00
H127   H     0.06423   0.40807   0.09876   0.00000  Uiso   1.00
H128   H     0.98791   0.26044   0.46578   0.00000  Uiso   1.00
H129   H     0.31953   0.33709   0.41096   0.00000  Uiso   1.00
O130   O     0.14008   0.47246   0.13358   0.00000  Uiso   1.00
O131   O     0.03995   0.27878   0.30312   0.00000  Uiso   1.00
O132   O     0.16304   0.37934   0.23119   0.00000  Uiso   1.00
N133   N     0.03171   0.46742   0.91241   0.00000  Uiso   1.00
N134   N     0.96039   0.32940   0.32064   0.00000  Uiso   1.00
N135   N     0.33549   0.40105   0.26935   0.00000  Uiso   1.00
N136   N     0.04199   0.42257   0.02275   0.00000  Uiso   1.00
N137   N     0.97066   0.28456   0.43097   0.00000  Uiso   1.00
N138   N     0.34577   0.35621   0.37969   0.00000  Uiso   1.00
C139   C     0.69176   0.90470   0.65237   0.00000  Uiso   1.00
C140   C     0.76452   0.91217   0.79493   0.00000  Uiso   1.00
C141   C     0.81992   0.94303   0.85170   0.00000  Uiso   1.00
C142   C     0.88228   0.94471   0.98354   0.00000  Uiso   1.00
C143   C     0.99429   0.96060   0.19389   0.00000  Uiso   1.00
C144   C     0.74599   0.87309   0.63493   0.00000  Uiso   1.00
C145   C     0.78581   0.87108   0.55716   0.00000  Uiso   1.00
C146   C     0.83255   0.83986   0.55431   0.00000  Uiso   1.00
C147   C     0.91573   0.79506   0.51618   0.00000  Uiso   1.00
C148   C     0.57314   0.89328   0.61855   0.00000  Uiso   1.00
C149   C     0.46761   0.90825   0.52697   0.00000  Uiso   1.00
C150   C     0.36882   0.89402   0.51030   0.00000  Uiso   1.00
C151   C     0.18361   0.88058   0.44673   0.00000  Uiso   1.00
C152   C     0.70396   0.85282   0.78558   0.00000  Uiso   1.00
C153   C     0.77114   0.88399   0.86728   0.00000  Uiso   1.00
C154   C     0.83343   0.88563   0.99907   0.00000  Uiso   1.00
C155   C     0.88891   0.91649   0.05602   0.00000  Uiso   1.00
C156   C     0.75262   0.84491   0.70728   0.00000  Uiso   1.00
C157   C     0.79931   0.81369   0.70453   0.00000  Uiso   1.00
C158   C     0.83919   0.81163   0.62679   0.00000  Uiso   1.00
C159   C     0.57976   0.86510   0.69090   0.00000  Uiso   1.00
C160   C     0.48112   0.85085   0.67435   0.00000  Uiso   1.00
C161   C     0.37546   0.86580   0.58278   0.00000  Uiso   1.00
H162   H     0.68660   0.92663   0.59604   0.00000  Uiso   1.00
H163   H     0.81478   0.96482   0.79567   0.00000  Uiso   1.00
H164   H     0.78066   0.89288   0.50117   0.00000  Uiso   1.00
H165   H     0.46251   0.93005   0.47100   0.00000  Uiso   1.00
H166   H     0.95985   0.99474   0.04891   0.00000  Uiso   1.00
H167   H     0.88786   0.84305   0.42790   0.00000  Uiso   1.00
H168   H     0.21699   0.92142   0.36427   0.00000  Uiso   1.00
H169   H     0.70912   0.83088   0.84191   0.00000  Uiso   1.00
H170   H     0.83854   0.86383   0.05504   0.00000  Uiso   1.00
H171   H     0.80442   0.79189   0.76053   0.00000  Uiso   1.00
H172   H     0.48628   0.82905   0.73036   0.00000  Uiso   1.00
H173   H     0.97914   0.91276   0.25942   0.00000  Uiso   1.00
H174   H     0.90715   0.76107   0.63841   0.00000  Uiso   1.00
H175   H     0.23628   0.83944   0.57478   0.00000  Uiso   1.00
O176   O     0.05426   0.97714   0.28993   0.00000  Uiso   1.00
O177   O     0.95979   0.77813   0.47518   0.00000  Uiso   1.00
O178   O     0.07963   0.88095   0.39170   0.00000  Uiso   1.00
N179   N     0.94661   0.97093   0.06920   0.00000  Uiso   1.00
N180   N     0.87932   0.82911   0.48861   0.00000  Uiso   1.00
N181   N     0.25211   0.90237   0.42910   0.00000  Uiso   1.00
N182   N     0.95699   0.92682   0.18247   0.00000  Uiso   1.00
N183   N     0.88970   0.78500   0.60189   0.00000  Uiso   1.00
N184   N     0.26249   0.85826   0.54237   0.00000  Uiso   1.00
C185   C     0.77495   0.09675   0.99113   0.00000  Uiso   1.00
C186   C     0.84821   0.09002   0.13420   0.00000  Uiso   1.00
C187   C     0.90409   0.05939   0.19303   0.00000  Uiso   1.00
C188   C     0.96686   0.05841   0.32500   0.00000  Uiso   1.00
C189   C     0.07966   0.04361   0.53643   0.00000  Uiso   1.00
C190   C     0.82857   0.12806   0.97111   0.00000  Uiso   1.00
C191   C     0.86793   0.12941   0.89281   0.00000  Uiso   1.00
C192   C     0.91415   0.16045   0.88749   0.00000  Uiso   1.00
C193   C     0.99638   0.20472   0.84565   0.00000  Uiso   1.00
C194   C     0.65636   0.10831   0.95700   0.00000  Uiso   1.00
C195   C     0.55091   0.09306   0.86680   0.00000  Uiso   1.00
C196   C     0.45213   0.10748   0.84956   0.00000  Uiso   1.00
C197   C     0.26697   0.12107   0.78581   0.00000  Uiso   1.00
C198   C     0.78703   0.14949   0.12088   0.00000  Uiso   1.00
C199   C     0.85477   0.11867   0.20467   0.00000  Uiso   1.00
C200   C     0.91746   0.11774   0.33658   0.00000  Uiso   1.00
C201   C     0.97343   0.08710   0.39560   0.00000  Uiso   1.00
C202   C     0.83513   0.15671   0.04159   0.00000  Uiso   1.00
C203   C     0.88129   0.18776   0.03637   0.00000  Uiso   1.00
C204   C     0.92072   0.18915   0.95809   0.00000  Uiso   1.00
C205   C     0.66291   0.13696   0.02747   0.00000  Uiso   1.00
C206   C     0.56428   0.15140   0.01036   0.00000  Uiso   1.00
C207   C     0.45870   0.13617   0.92016   0.00000  Uiso   1.00
H208   H     0.76984   0.07445   0.93626   0.00000  Uiso   1.00
H209   H     0.89900   0.03723   0.13845   0.00000  Uiso   1.00
H210   H     0.86283   0.10724   0.83828   0.00000  Uiso   1.00
H211   H     0.54586   0.07089   0.81228   0.00000  Uiso   1.00
H212   H     0.04513   0.00859   0.39371   0.00000  Uiso   1.00
H213   H     0.96883   0.15622   0.76074   0.00000  Uiso   1.00
H214   H     0.30043   0.07957   0.70590   0.00000  Uiso   1.00
H215   H     0.79214   0.17179   0.17575   0.00000  Uiso   1.00
H216   H     0.92252   0.13991   0.39110   0.00000  Uiso   1.00
H217   H     0.88635   0.20992   0.09092   0.00000  Uiso   1.00
H218   H     0.56938   0.17357   0.06492   0.00000  Uiso   1.00
H219   H     0.06423   0.09193   0.59876   0.00000  Uiso   1.00
H220   H     0.98791   0.23956   0.96578   0.00000  Uiso   1.00
H221   H     0.31953   0.16291   0.91096   0.00000  Uiso   1.00
O222   O     0.14008   0.02754   0.63358   0.00000  Uiso   1.00
O223   O     0.03995   0.22122   0.80312   0.00000  Uiso   1.00
O224   O     0.16304   0.12066   0.73119   0.00000  Uiso   1.00
N225   N     0.03171   0.03258   0.41241   0.00000  Uiso   1.00
N226   N     0.96039   0.17060   0.82064   0.00000  Uiso   1.00
N227   N     0.33549   0.09895   0.76935   0.00000  Uiso   1.00
N228   N     0.04199   0.07743   0.52275   0.00000  Uiso   1.00
N229   N     0.97066   0.21544   0.93097   0.00000  Uiso   1.00
N230   N     0.34577   0.14379   0.87969   0.00000  Uiso   1.00
C231   C     0.69176   0.59530   0.15237   0.00000  Uiso   1.00
C232   C     0.76452   0.58783   0.29493   0.00000  Uiso   1.00
C233   C     0.81992   0.55697   0.35170   0.00000  Uiso   1.00
C234   C     0.88228   0.55529   0.48354   0.00000  Uiso   1.00
C235   C     0.99429   0.53940   0.69389   0.00000  Uiso   1.00
C236   C     0.74599   0.62691   0.13493   0.00000  Uiso   1.00
C237   C     0.78581   0.62892   0.05716   0.00000  Uiso   1.00
C238   C     0.83255   0.66014   0.05431   0.00000  Uiso   1.00
C239   C     0.91573   0.70494   0.01618   0.00000  Uiso   1.00
C240   C     0.57314   0.60672   0.11855   0.00000  Uiso   1.00
C241   C     0.46761   0.59175   0.02697   0.00000  Uiso   1.00
C242   C     0.36882   0.60598   0.01030   0.00000  Uiso   1.00
C243   C     0.18361   0.61942   0.94673   0.00000  Uiso   1.00
C244   C     0.70396   0.64718   0.28558   0.00000  Uiso   1.00
C245   C     0.77114   0.61601   0.36728   0.00000  Uiso   1.00
C246   C     0.83343   0.61437   0.49907   0.00000  Uiso   1.00
C247   C     0.88891   0.58351   0.55602   0.00000  Uiso   1.00
C248   C     0.75262   0.65509   0.20728   0.00000  Uiso   1.00
C249   C     0.79931   0.68631   0.20453   0.00000  Uiso   1.00
C250   C     0.83919   0.68837   0.12679   0.00000  Uiso   1.00
C251   C     0.57976   0.63490   0.19090   0.00000  Uiso   1.00
C252   C     0.48112   0.64915   0.17435   0.00000  Uiso   1.00
C253   C     0.37546   0.63420   0.08278   0.00000  Uiso   1.00
H254   H     0.68660   0.57337   0.09604   0.00000  Uiso   1.00
H255   H     0.81478   0.53518   0.29567   0.00000  Uiso   1.00
H256   H     0.78066   0.60712   0.00117   0.00000  Uiso   1.00
H257   H     0.46251   0.56995   0.97100   0.00000  Uiso   1.00
H258   H     0.95985   0.50526   0.54891   0.00000  Uiso   1.00
H259   H     0.88786   0.65695   0.92790   0.00000  Uiso   1.00
H260   H     0.21699   0.57858   0.86427   0.00000  Uiso   1.00
H261   H     0.70912   0.66912   0.34191   0.00000  Uiso   1.00
H262   H     0.83854   0.63617   0.55504   0.00000  Uiso   1.00
H263   H     0.80442   0.70811   0.26053   0.00000  Uiso   1.00
H264   H     0.48628   0.67095   0.23036   0.00000  Uiso   1.00
H265   H     0.97914   0.58724   0.75942   0.00000  Uiso   1.00
H266   H     0.90715   0.73893   0.13841   0.00000  Uiso   1.00
H267   H     0.23628   0.66056   0.07478   0.00000  Uiso   1.00
O268   O     0.05426   0.52286   0.78993   0.00000  Uiso   1.00
O269   O     0.95979   0.72187   0.97518   0.00000  Uiso   1.00
O270   O     0.07963   0.61905   0.89170   0.00000  Uiso   1.00
N271   N     0.94661   0.52907   0.56920   0.00000  Uiso   1.00
N272   N     0.87932   0.67089   0.98861   0.00000  Uiso   1.00
N273   N     0.25211   0.59763   0.92910   0.00000  Uiso   1.00
N274   N     0.95699   0.57318   0.68247   0.00000  Uiso   1.00
N275   N     0.88970   0.71500   0.10189   0.00000  Uiso   1.00
N276   N     0.26249   0.64174   0.04237   0.00000  Uiso   1.00
C277   C     0.22505   0.59675   0.50887   0.00000  Uiso   1.00
C278   C     0.15179   0.59002   0.36580   0.00000  Uiso   1.00
C279   C     0.09591   0.55939   0.30697   0.00000  Uiso   1.00
C280   C     0.03314   0.55841   0.17500   0.00000  Uiso   1.00
C281   C     0.92034   0.54361   0.96357   0.00000  Uiso   1.00
C282   C     0.17143   0.62806   0.52889   0.00000  Uiso   1.00
C283   C     0.13207   0.62941   0.60719   0.00000  Uiso   1.00
C284   C     0.08585   0.66045   0.61251   0.00000  Uiso   1.00
C285   C     0.00362   0.70472   0.65435   0.00000  Uiso   1.00
C286   C     0.34364   0.60831   0.54300   0.00000  Uiso   1.00
C287   C     0.44909   0.59306   0.63320   0.00000  Uiso   1.00
C288   C     0.54787   0.60748   0.65044   0.00000  Uiso   1.00
C289   C     0.73303   0.62107   0.71419   0.00000  Uiso   1.00
C290   C     0.21297   0.64949   0.37912   0.00000  Uiso   1.00
C291   C     0.14523   0.61867   0.29533   0.00000  Uiso   1.00
C292   C     0.08254   0.61774   0.16342   0.00000  Uiso   1.00
C293   C     0.02657   0.58710   0.10440   0.00000  Uiso   1.00
C294   C     0.16487   0.65671   0.45841   0.00000  Uiso   1.00
C295   C     0.11871   0.68776   0.46363   0.00000  Uiso   1.00
C296   C     0.07928   0.68915   0.54191   0.00000  Uiso   1.00
C297   C     0.33709   0.63696   0.47253   0.00000  Uiso   1.00
C298   C     0.43572   0.65140   0.48964   0.00000  Uiso   1.00
C299   C     0.54130   0.63617   0.57984   0.00000  Uiso   1.00
H300   H     0.23016   0.57445   0.56374   0.00000  Uiso   1.00
H301   H     0.10100   0.53723   0.36155   0.00000  Uiso   1.00
H302   H     0.13717   0.60724   0.66172   0.00000  Uiso   1.00
H303   H     0.45414   0.57089   0.68772   0.00000  Uiso   1.00
H304   H     0.95487   0.50859   0.10629   0.00000  Uiso   1.00
H305   H     0.03117   0.65622   0.73926   0.00000  Uiso   1.00
H306   H     0.69957   0.57957   0.79410   0.00000  Uiso   1.00
H307   H     0.20786   0.67179   0.32425   0.00000  Uiso   1.00
H308   H     0.07748   0.63991   0.10890   0.00000  Uiso   1.00
H309   H     0.11365   0.70992   0.40908   0.00000  Uiso   1.00
H310   H     0.43062   0.67357   0.43508   0.00000  Uiso   1.00
H311   H     0.93577   0.59193   0.90124   0.00000  Uiso   1.00
H312   H     0.01209   0.73956   0.53422   0.00000  Uiso   1.00
H313   H     0.68047   0.66291   0.58904   0.00000  Uiso   1.00
O314   O     0.85992   0.52754   0.86642   0.00000  Uiso   1.00
O315   O     0.96005   0.72122   0.69688   0.00000  Uiso   1.00
O316   O     0.83696   0.62066   0.76881   0.00000  Uiso   1.00
N317   N     0.96829   0.53258   0.08759   0.00000  Uiso   1.00
N318   N     0.03961   0.67060   0.67936   0.00000  Uiso   1.00
N319   N     0.66451   0.59895   0.73065   0.00000  Uiso   1.00
N320   N     0.95801   0.57743   0.97725   0.00000  Uiso   1.00
N321   N     0.02934   0.71544   0.56903   0.00000  Uiso   1.00
N322   N     0.65423   0.64379   0.62031   0.00000  Uiso   1.00
C323   C     0.30824   0.09530   0.34763   0.00000  Uiso   1.00
C324   C     0.23548   0.08783   0.20507   0.00000  Uiso   1.00
C325   C     0.18008   0.05697   0.14830   0.00000  Uiso   1.00
C326   C     0.11772   0.05529   0.01646   0.00000  Uiso   1.00
C327   C     0.00571   0.03940   0.80611   0.00000  Uiso   1.00
C328   C     0.25401   0.12691   0.36507   0.00000  Uiso   1.00
C329   C     0.21419   0.12892   0.44284   0.00000  Uiso   1.00
C330   C     0.16745   0.16014   0.44569   0.00000  Uiso   1.00
C331   C     0.08427   0.20494   0.48382   0.00000  Uiso   1.00
C332   C     0.42686   0.10672   0.38145   0.00000  Uiso   1.00
C333   C     0.53239   0.09175   0.47303   0.00000  Uiso   1.00
C334   C     0.63118   0.10598   0.48970   0.00000  Uiso   1.00
C335   C     0.81639   0.11942   0.55327   0.00000  Uiso   1.00
C336   C     0.29604   0.14718   0.21442   0.00000  Uiso   1.00
C337   C     0.22886   0.11601   0.13272   0.00000  Uiso   1.00
C338   C     0.16657   0.11437   0.00093   0.00000  Uiso   1.00
C339   C     0.11109   0.08351   0.94398   0.00000  Uiso   1.00
C340   C     0.24738   0.15509   0.29272   0.00000  Uiso   1.00
C341   C     0.20069   0.18631   0.29547   0.00000  Uiso   1.00
C342   C     0.16081   0.18837   0.37321   0.00000  Uiso   1.00
C343   C     0.42024   0.13490   0.30910   0.00000  Uiso   1.00
C344   C     0.51888   0.14915   0.32565   0.00000  Uiso   1.00
C345   C     0.62454   0.13420   0.41722   0.00000  Uiso   1.00
H346   H     0.31340   0.07337   0.40396   0.00000  Uiso   1.00
H347   H     0.18522   0.03518   0.20433   0.00000  Uiso   1.00
H348   H     0.21934   0.10712   0.49883   0.00000  Uiso   1.00
H349   H     0.53749   0.06995   0.52900   0.00000  Uiso   1.00
H350   H     0.04015   0.00526   0.95109   0.00000  Uiso   1.00
H351   H     0.11214   0.15695   0.57210   0.00000  Uiso   1.00
H352   H     0.78301   0.07858   0.63573   0.00000  Uiso   1.00
H353   H     0.29088   0.16912   0.15809   0.00000  Uiso   1.00
H354   H     0.16146   0.13617   0.94496   0.00000  Uiso   1.00
H355   H     0.19558   0.20811   0.23947   0.00000  Uiso   1.00
H356   H     0.51372   0.17095   0.26964   0.00000  Uiso   1.00
H357   H     0.02086   0.08724   0.74058   0.00000  Uiso   1.00
H358   H     0.09285   0.23893   0.36159   0.00000  Uiso   1.00
H359   H     0.76372   0.16056   0.42522   0.00000  Uiso   1.00
O360   O     0.94574   0.02286   0.71007   0.00000  Uiso   1.00
O361   O     0.04021   0.22187   0.52482   0.00000  Uiso   1.00
O362   O     0.92037   0.11905   0.60830   0.00000  Uiso   1.00
N363   N     0.05339   0.02907   0.93080   0.00000  Uiso   1.00
N364   N     0.12068   0.17089   0.51139   0.00000  Uiso   1.00
N365   N     0.74789   0.09763   0.57090   0.00000  Uiso   1.00
N366   N     0.04301   0.07318   0.81753   0.00000  Uiso   1.00
N367   N     0.11030   0.21500   0.39811   0.00000  Uiso   1.00
N368   N     0.73751   0.14174   0.45763   0.00000  Uiso   1.00
