data_job_01067
_audit_creation_date              2018-12-19
_audit_creation_method            'Materials Studio'
_symmetry_space_group_name_H-M    'P1'
_symmetry_Int_Tables_number       1
_symmetry_cell_setting            triclinic
loop_
_symmetry_equiv_pos_as_xyz
  x,y,z
_cell_length_a                    15.4000
_cell_length_b                    22.7173
_cell_length_c                    10.5290
_cell_angle_alpha                 90.0000
_cell_angle_beta                  76.0864
_cell_angle_gamma                 90.0000
loop_
_atom_site_label
_atom_site_type_symbol
_atom_site_fract_x
_atom_site_fract_y
_atom_site_fract_z
_atom_site_U_iso_or_equiv
_atom_site_adp_type
_atom_site_occupancy
C1     C     0.68490   0.41079   0.52724   0.00000  Uiso   1.00
C2     C     0.78030   0.42670   0.45556   0.00000  Uiso   1.00
C3     C     0.80773   0.44418   0.32578   0.00000  Uiso   1.00
C4     C     0.89795   0.45678   0.27845   0.00000  Uiso   1.00
C5     C     0.03688   0.48217   0.15501   0.00000  Uiso   1.00
C6     C     0.68951   0.34869   0.58022   0.00000  Uiso   1.00
C7     C     0.64058   0.30059   0.55525   0.00000  Uiso   1.00
C8     C     0.65436   0.24753   0.61289   0.00000  Uiso   1.00
C9     C     0.65229   0.15183   0.68305   0.00000  Uiso   1.00
C10    C     0.66127   0.45103   0.64652   0.00000  Uiso   1.00
C11    C     0.58859   0.48896   0.67732   0.00000  Uiso   1.00
C12    C     0.57858   0.52206   0.79079   0.00000  Uiso   1.00
C13    C     0.53265   0.58524   0.96389   0.00000  Uiso   1.00
C14    C     0.79635   0.40210   0.67400   0.00000  Uiso   1.00
C15    C     0.84084   0.42198   0.53528   0.00000  Uiso   1.00
C16    C     0.93104   0.43456   0.48814   0.00000  Uiso   1.00
C17    C     0.95859   0.45206   0.35831   0.00000  Uiso   1.00
C18    C     0.75004   0.34397   0.65993   0.00000  Uiso   1.00
C19    C     0.76389   0.29098   0.71762   0.00000  Uiso   1.00
C20    C     0.71500   0.24281   0.69274   0.00000  Uiso   1.00
C21    C     0.72180   0.44631   0.72623   0.00000  Uiso   1.00
C22    C     0.71190   0.47935   0.83968   0.00000  Uiso   1.00
C23    C     0.63922   0.51733   0.87064   0.00000  Uiso   1.00
H24    H     0.63777   0.41446   0.46519   0.00000  Uiso   1.00
H25    H     0.76086   0.44782   0.26412   0.00000  Uiso   1.00
H26    H     0.59374   0.30426   0.49358   0.00000  Uiso   1.00
H27    H     0.54176   0.49260   0.61561   0.00000  Uiso   1.00
H28    H     0.92404   0.48270   0.07633   0.00000  Uiso   1.00
H29    H     0.57162   0.17999   0.56019   0.00000  Uiso   1.00
H30    H     0.46200   0.57715   0.81753   0.00000  Uiso   1.00
H31    H     0.84348   0.39843   0.73606   0.00000  Uiso   1.00
H32    H     0.97786   0.43091   0.54985   0.00000  Uiso   1.00
H33    H     0.81074   0.28734   0.77930   0.00000  Uiso   1.00
H34    H     0.75875   0.47569   0.90134   0.00000  Uiso   1.00
H35    H     0.10016   0.46897   0.30824   0.00000  Uiso   1.00
H36    H     0.74774   0.16626   0.79210   0.00000  Uiso   1.00
H37    H     0.63813   0.56343   0.04944   0.00000  Uiso   1.00
O38    O     0.09679   0.49747   0.06489   0.00000  Uiso   1.00
O39    O     0.63442   0.10034   0.69971   0.00000  Uiso   1.00
O40    O     0.49061   0.62140   0.03733   0.00000  Uiso   1.00
N41    N     0.94704   0.47502   0.15647   0.00000  Uiso   1.00
N42    N     0.61756   0.19201   0.60883   0.00000  Uiso   1.00
N43    N     0.51506   0.56331   0.84945   0.00000  Uiso   1.00
N44    N     0.04181   0.46763   0.28126   0.00000  Uiso   1.00
N45    N     0.71233   0.18462   0.73362   0.00000  Uiso   1.00
N46    N     0.60984   0.55592   0.97424   0.00000  Uiso   1.00
C47    C     0.31510   0.91079   0.97276   0.00000  Uiso   1.00
C48    C     0.21970   0.92670   0.04444   0.00000  Uiso   1.00
C49    C     0.19227   0.94418   0.17422   0.00000  Uiso   1.00
C50    C     0.10205   0.95678   0.22155   0.00000  Uiso   1.00
C51    C     0.96312   0.98217   0.34499   0.00000  Uiso   1.00
C52    C     0.31049   0.84869   0.91978   0.00000  Uiso   1.00
C53    C     0.35942   0.80059   0.94475   0.00000  Uiso   1.00
C54    C     0.34564   0.74753   0.88711   0.00000  Uiso   1.00
C55    C     0.34771   0.65183   0.81695   0.00000  Uiso   1.00
C56    C     0.33873   0.95103   0.85348   0.00000  Uiso   1.00
C57    C     0.41141   0.98896   0.82268   0.00000  Uiso   1.00
C58    C     0.42142   0.02206   0.70921   0.00000  Uiso   1.00
C59    C     0.46735   0.08524   0.53611   0.00000  Uiso   1.00
C60    C     0.20365   0.90210   0.82600   0.00000  Uiso   1.00
C61    C     0.15916   0.92198   0.96472   0.00000  Uiso   1.00
C62    C     0.06896   0.93456   0.01186   0.00000  Uiso   1.00
C63    C     0.04141   0.95206   0.14169   0.00000  Uiso   1.00
C64    C     0.24996   0.84397   0.84007   0.00000  Uiso   1.00
C65    C     0.23611   0.79098   0.78238   0.00000  Uiso   1.00
C66    C     0.28500   0.74281   0.80726   0.00000  Uiso   1.00
C67    C     0.27820   0.94631   0.77377   0.00000  Uiso   1.00
C68    C     0.28810   0.97935   0.66032   0.00000  Uiso   1.00
C69    C     0.36078   0.01733   0.62936   0.00000  Uiso   1.00
H70    H     0.36223   0.91446   0.03481   0.00000  Uiso   1.00
H71    H     0.23914   0.94782   0.23588   0.00000  Uiso   1.00
H72    H     0.40626   0.80426   0.00642   0.00000  Uiso   1.00
H73    H     0.45824   0.99260   0.88439   0.00000  Uiso   1.00
H74    H     0.07596   0.98270   0.42367   0.00000  Uiso   1.00
H75    H     0.42838   0.67999   0.93981   0.00000  Uiso   1.00
H76    H     0.53800   0.07715   0.68247   0.00000  Uiso   1.00
H77    H     0.15652   0.89843   0.76394   0.00000  Uiso   1.00
H78    H     0.02214   0.93091   0.95015   0.00000  Uiso   1.00
H79    H     0.18926   0.78734   0.72070   0.00000  Uiso   1.00
H80    H     0.24125   0.97569   0.59866   0.00000  Uiso   1.00
H81    H     0.89984   0.96897   0.19176   0.00000  Uiso   1.00
H82    H     0.25226   0.66626   0.70790   0.00000  Uiso   1.00
H83    H     0.36187   0.06343   0.45056   0.00000  Uiso   1.00
O84    O     0.90321   0.99747   0.43511   0.00000  Uiso   1.00
O85    O     0.36558   0.60034   0.80029   0.00000  Uiso   1.00
O86    O     0.50939   0.12140   0.46267   0.00000  Uiso   1.00
N87    N     0.05296   0.97502   0.34353   0.00000  Uiso   1.00
N88    N     0.38244   0.69201   0.89117   0.00000  Uiso   1.00
N89    N     0.48494   0.06331   0.65055   0.00000  Uiso   1.00
N90    N     0.95819   0.96763   0.21874   0.00000  Uiso   1.00
N91    N     0.28767   0.68462   0.76638   0.00000  Uiso   1.00
N92    N     0.39016   0.05592   0.52576   0.00000  Uiso   1.00
C93    C     0.31510   0.58921   0.47276   0.00000  Uiso   1.00
C94    C     0.21970   0.57330   0.54444   0.00000  Uiso   1.00
C95    C     0.19227   0.55582   0.67422   0.00000  Uiso   1.00
C96    C     0.10205   0.54322   0.72155   0.00000  Uiso   1.00
C97    C     0.96312   0.51783   0.84499   0.00000  Uiso   1.00
C98    C     0.31049   0.65131   0.41978   0.00000  Uiso   1.00
C99    C     0.35942   0.69941   0.44475   0.00000  Uiso   1.00
C100   C     0.34564   0.75247   0.38711   0.00000  Uiso   1.00
C101   C     0.34771   0.84817   0.31695   0.00000  Uiso   1.00
C102   C     0.33873   0.54897   0.35348   0.00000  Uiso   1.00
C103   C     0.41141   0.51104   0.32268   0.00000  Uiso   1.00
C104   C     0.42142   0.47794   0.20921   0.00000  Uiso   1.00
C105   C     0.46735   0.41476   0.03611   0.00000  Uiso   1.00
C106   C     0.20365   0.59790   0.32600   0.00000  Uiso   1.00
C107   C     0.15916   0.57802   0.46472   0.00000  Uiso   1.00
C108   C     0.06896   0.56544   0.51186   0.00000  Uiso   1.00
C109   C     0.04141   0.54794   0.64169   0.00000  Uiso   1.00
C110   C     0.24996   0.65603   0.34007   0.00000  Uiso   1.00
C111   C     0.23611   0.70902   0.28238   0.00000  Uiso   1.00
C112   C     0.28500   0.75719   0.30726   0.00000  Uiso   1.00
C113   C     0.27820   0.55369   0.27377   0.00000  Uiso   1.00
C114   C     0.28810   0.52065   0.16032   0.00000  Uiso   1.00
C115   C     0.36078   0.48267   0.12936   0.00000  Uiso   1.00
H116   H     0.36223   0.58554   0.53481   0.00000  Uiso   1.00
H117   H     0.23914   0.55218   0.73588   0.00000  Uiso   1.00
H118   H     0.40626   0.69574   0.50642   0.00000  Uiso   1.00
H119   H     0.45824   0.50740   0.38439   0.00000  Uiso   1.00
H120   H     0.07596   0.51730   0.92367   0.00000  Uiso   1.00
H121   H     0.42838   0.82001   0.43981   0.00000  Uiso   1.00
H122   H     0.53800   0.42285   0.18247   0.00000  Uiso   1.00
H123   H     0.15652   0.60157   0.26394   0.00000  Uiso   1.00
H124   H     0.02214   0.56909   0.45015   0.00000  Uiso   1.00
H125   H     0.18926   0.71266   0.22070   0.00000  Uiso   1.00
H126   H     0.24125   0.52431   0.09866   0.00000  Uiso   1.00
H127   H     0.89984   0.53103   0.69176   0.00000  Uiso   1.00
H128   H     0.25226   0.83374   0.20790   0.00000  Uiso   1.00
H129   H     0.36187   0.43657   0.95056   0.00000  Uiso   1.00
O130   O     0.90321   0.50253   0.93511   0.00000  Uiso   1.00
O131   O     0.36558   0.89966   0.30029   0.00000  Uiso   1.00
O132   O     0.50939   0.37860   0.96267   0.00000  Uiso   1.00
N133   N     0.05296   0.52498   0.84353   0.00000  Uiso   1.00
N134   N     0.38244   0.80799   0.39117   0.00000  Uiso   1.00
N135   N     0.48494   0.43669   0.15055   0.00000  Uiso   1.00
N136   N     0.95819   0.53237   0.71874   0.00000  Uiso   1.00
N137   N     0.28767   0.81538   0.26638   0.00000  Uiso   1.00
N138   N     0.39016   0.44408   0.02576   0.00000  Uiso   1.00
C139   C     0.68490   0.08921   0.02724   0.00000  Uiso   1.00
C140   C     0.78030   0.07330   0.95556   0.00000  Uiso   1.00
C141   C     0.80773   0.05582   0.82578   0.00000  Uiso   1.00
C142   C     0.89795   0.04322   0.77845   0.00000  Uiso   1.00
C143   C     0.03688   0.01783   0.65501   0.00000  Uiso   1.00
C144   C     0.68951   0.15131   0.08022   0.00000  Uiso   1.00
C145   C     0.64058   0.19941   0.05525   0.00000  Uiso   1.00
C146   C     0.65436   0.25247   0.11289   0.00000  Uiso   1.00
C147   C     0.65229   0.34817   0.18305   0.00000  Uiso   1.00
C148   C     0.66127   0.04897   0.14652   0.00000  Uiso   1.00
C149   C     0.58859   0.01104   0.17732   0.00000  Uiso   1.00
C150   C     0.57858   0.97794   0.29079   0.00000  Uiso   1.00
C151   C     0.53265   0.91476   0.46389   0.00000  Uiso   1.00
C152   C     0.79635   0.09790   0.17400   0.00000  Uiso   1.00
C153   C     0.84084   0.07802   0.03528   0.00000  Uiso   1.00
C154   C     0.93104   0.06544   0.98814   0.00000  Uiso   1.00
C155   C     0.95859   0.04794   0.85831   0.00000  Uiso   1.00
C156   C     0.75004   0.15603   0.15993   0.00000  Uiso   1.00
C157   C     0.76389   0.20902   0.21762   0.00000  Uiso   1.00
C158   C     0.71500   0.25719   0.19274   0.00000  Uiso   1.00
C159   C     0.72180   0.05369   0.22623   0.00000  Uiso   1.00
C160   C     0.71190   0.02065   0.33968   0.00000  Uiso   1.00
C161   C     0.63922   0.98267   0.37064   0.00000  Uiso   1.00
H162   H     0.63777   0.08554   0.96519   0.00000  Uiso   1.00
H163   H     0.76086   0.05218   0.76412   0.00000  Uiso   1.00
H164   H     0.59374   0.19574   0.99358   0.00000  Uiso   1.00
H165   H     0.54176   0.00740   0.11561   0.00000  Uiso   1.00
H166   H     0.92404   0.01730   0.57633   0.00000  Uiso   1.00
H167   H     0.57162   0.32001   0.06019   0.00000  Uiso   1.00
H168   H     0.46200   0.92285   0.31753   0.00000  Uiso   1.00
H169   H     0.84348   0.10157   0.23606   0.00000  Uiso   1.00
H170   H     0.97786   0.06909   0.04985   0.00000  Uiso   1.00
H171   H     0.81074   0.21266   0.27930   0.00000  Uiso   1.00
H172   H     0.75875   0.02431   0.40134   0.00000  Uiso   1.00
H173   H     0.10016   0.03103   0.80824   0.00000  Uiso   1.00
H174   H     0.74774   0.33374   0.29210   0.00000  Uiso   1.00
H175   H     0.63813   0.93657   0.54944   0.00000  Uiso   1.00
O176   O     0.09679   0.00253   0.56489   0.00000  Uiso   1.00
O177   O     0.63442   0.39966   0.19971   0.00000  Uiso   1.00
O178   O     0.49061   0.87860   0.53733   0.00000  Uiso   1.00
N179   N     0.94704   0.02498   0.65647   0.00000  Uiso   1.00
N180   N     0.61756   0.30799   0.10883   0.00000  Uiso   1.00
N181   N     0.51506   0.93669   0.34945   0.00000  Uiso   1.00
N182   N     0.04181   0.03237   0.78126   0.00000  Uiso   1.00
N183   N     0.71233   0.31538   0.23362   0.00000  Uiso   1.00
N184   N     0.60984   0.94408   0.47424   0.00000  Uiso   1.00
