data_job_03877
_audit_creation_date              2018-12-19
_audit_creation_method            'Materials Studio'
_symmetry_space_group_name_H-M    'P1'
_symmetry_Int_Tables_number       1
_symmetry_cell_setting            triclinic
loop_
_symmetry_equiv_pos_as_xyz
  x,y,z
_cell_length_a                    12.2666
_cell_length_b                    12.2666
_cell_length_c                    30.2267
_cell_angle_alpha                 90.0000
_cell_angle_beta                  90.0000
_cell_angle_gamma                 120.0000
loop_
_atom_site_label
_atom_site_type_symbol
_atom_site_fract_x
_atom_site_fract_y
_atom_site_fract_z
_atom_site_U_iso_or_equiv
_atom_site_adp_type
_atom_site_occupancy
C1     C     0.27704   0.95724   0.39814   0.00000  Uiso   1.00
C2     C     0.22299   0.03739   0.41524   0.00000  Uiso   1.00
C3     C     0.09662   0.99551   0.42301   0.00000  Uiso   1.00
C4     C     0.06629   0.08348   0.43865   0.00000  Uiso   1.00
C5     C     0.96824   0.18890   0.46403   0.00000  Uiso   1.00
C6     C     0.35100   0.02273   0.35648   0.00000  Uiso   1.00
C7     C     0.33225   0.96852   0.31484   0.00000  Uiso   1.00
C8     C     0.40969   0.04415   0.28100   0.00000  Uiso   1.00
C9     C     0.51043   0.12677   0.21516   0.00000  Uiso   1.00
C10    C     0.37422   0.96968   0.43224   0.00000  Uiso   1.00
C11    C     0.37503   0.87087   0.45431   0.00000  Uiso   1.00
C12    C     0.47204   0.90184   0.48426   0.00000  Uiso   1.00
C13    C     0.60884   0.90210   0.53606   0.00000  Uiso   1.00
C14    C     0.44791   0.18793   0.41208   0.00000  Uiso   1.00
C15    C     0.31581   0.16270   0.42282   0.00000  Uiso   1.00
C16    C     0.28566   0.25075   0.43844   0.00000  Uiso   1.00
C17    C     0.15926   0.20901   0.44624   0.00000  Uiso   1.00
C18    C     0.44380   0.14803   0.36405   0.00000  Uiso   1.00
C19    C     0.52129   0.22376   0.33027   0.00000  Uiso   1.00
C20    C     0.50267   0.16968   0.28859   0.00000  Uiso   1.00
C21    C     0.46703   0.09499   0.43982   0.00000  Uiso   1.00
C22    C     0.56407   0.12611   0.46974   0.00000  Uiso   1.00
C23    C     0.56502   0.02737   0.49184   0.00000  Uiso   1.00
H24    H     0.20479   0.85968   0.39224   0.00000  Uiso   1.00
H25    H     0.02482   0.89854   0.41714   0.00000  Uiso   1.00
H26    H     0.26043   0.87154   0.30899   0.00000  Uiso   1.00
H27    H     0.30319   0.77391   0.44844   0.00000  Uiso   1.00
H28    H     0.86622   0.99688   0.44808   0.00000  Uiso   1.00
H29    H     0.36304   0.93996   0.22003   0.00000  Uiso   1.00
H30    H     0.45322   0.73408   0.51409   0.00000  Uiso   1.00
H31    H     0.52017   0.28549   0.41798   0.00000  Uiso   1.00
H32    H     0.35750   0.34772   0.44430   0.00000  Uiso   1.00
H33    H     0.59311   0.32072   0.33614   0.00000  Uiso   1.00
H34    H     0.63587   0.22309   0.47559   0.00000  Uiso   1.00
H35    H     0.13623   0.36146   0.47012   0.00000  Uiso   1.00
H36    H     0.63306   0.30452   0.24207   0.00000  Uiso   1.00
H37    H     0.72323   0.09865   0.53612   0.00000  Uiso   1.00
O38    O     0.88852   0.21243   0.47594   0.00000  Uiso   1.00
O39    O     0.54035   0.13773   0.17675   0.00000  Uiso   1.00
O40    O     0.65865   0.86763   0.56254   0.00000  Uiso   1.00
N41    N     0.95209   0.07414   0.44967   0.00000  Uiso   1.00
N42    N     0.41658   0.02092   0.23645   0.00000  Uiso   1.00
N43    N     0.50090   0.82844   0.51136   0.00000  Uiso   1.00
N44    N     0.09738   0.27031   0.46152   0.00000  Uiso   1.00
N45    N     0.56187   0.21710   0.24831   0.00000  Uiso   1.00
N46    N     0.64620   0.02461   0.52322   0.00000  Uiso   1.00
C47    C     0.04276   0.31980   0.06480   0.00000  Uiso   1.00
C48    C     0.96261   0.18560   0.08191   0.00000  Uiso   1.00
C49    C     0.00449   0.10110   0.08968   0.00000  Uiso   1.00
C50    C     0.91652   0.98280   0.10531   0.00000  Uiso   1.00
C51    C     0.81110   0.77935   0.13070   0.00000  Uiso   1.00
C52    C     0.97727   0.32827   0.02314   0.00000  Uiso   1.00
C53    C     0.03148   0.36373   0.98151   0.00000  Uiso   1.00
C54    C     0.95585   0.36554   0.94767   0.00000  Uiso   1.00
C55    C     0.87323   0.38366   0.88183   0.00000  Uiso   1.00
C56    C     0.03032   0.40454   0.09891   0.00000  Uiso   1.00
C57    C     0.12913   0.50416   0.12097   0.00000  Uiso   1.00
C58    C     0.09816   0.57020   0.15092   0.00000  Uiso   1.00
C59    C     0.09790   0.70675   0.20272   0.00000  Uiso   1.00
C60    C     0.81207   0.25998   0.07875   0.00000  Uiso   1.00
C61    C     0.83730   0.15311   0.08948   0.00000  Uiso   1.00
C62    C     0.74925   0.03491   0.10511   0.00000  Uiso   1.00
C63    C     0.79099   0.95025   0.11290   0.00000  Uiso   1.00
C64    C     0.85197   0.29577   0.03072   0.00000  Uiso   1.00
C65    C     0.77624   0.29754   0.99693   0.00000  Uiso   1.00
C66    C     0.83032   0.33299   0.95526   0.00000  Uiso   1.00
C67    C     0.90501   0.37204   0.10649   0.00000  Uiso   1.00
C68    C     0.87389   0.43795   0.13640   0.00000  Uiso   1.00
C69    C     0.97263   0.53765   0.15851   0.00000  Uiso   1.00
H70    H     0.14032   0.34511   0.05890   0.00000  Uiso   1.00
H71    H     0.10146   0.12628   0.08381   0.00000  Uiso   1.00
H72    H     0.12846   0.38889   0.97566   0.00000  Uiso   1.00
H73    H     0.22609   0.52928   0.11510   0.00000  Uiso   1.00
H74    H     0.00312   0.86933   0.11475   0.00000  Uiso   1.00
H75    H     0.06004   0.42308   0.88670   0.00000  Uiso   1.00
H76    H     0.26592   0.71914   0.18075   0.00000  Uiso   1.00
H77    H     0.71451   0.23468   0.08464   0.00000  Uiso   1.00
H78    H     0.65228   0.00979   0.11097   0.00000  Uiso   1.00
H79    H     0.67928   0.27239   0.00281   0.00000  Uiso   1.00
H80    H     0.77691   0.41278   0.14226   0.00000  Uiso   1.00
H81    H     0.63854   0.77478   0.13679   0.00000  Uiso   1.00
H82    H     0.69548   0.32853   0.90874   0.00000  Uiso   1.00
H83    H     0.90135   0.62458   0.20279   0.00000  Uiso   1.00
O84    O     0.78757   0.67610   0.14260   0.00000  Uiso   1.00
O85    O     0.86227   0.40262   0.84342   0.00000  Uiso   1.00
O86    O     0.13237   0.79103   0.22921   0.00000  Uiso   1.00
N87    N     0.92586   0.87795   0.11633   0.00000  Uiso   1.00
N88    N     0.97908   0.39565   0.90312   0.00000  Uiso   1.00
N89    N     0.17156   0.67246   0.17802   0.00000  Uiso   1.00
N90    N     0.72969   0.82707   0.12819   0.00000  Uiso   1.00
N91    N     0.78290   0.34477   0.91498   0.00000  Uiso   1.00
N92    N     0.97539   0.62158   0.18988   0.00000  Uiso   1.00
C93    C     0.68020   0.72296   0.73147   0.00000  Uiso   1.00
C94    C     0.81440   0.77701   0.74858   0.00000  Uiso   1.00
C95    C     0.89890   0.90338   0.75635   0.00000  Uiso   1.00
C96    C     0.01720   0.93371   0.77198   0.00000  Uiso   1.00
C97    C     0.22065   0.03176   0.79737   0.00000  Uiso   1.00
C98    C     0.67173   0.64900   0.68981   0.00000  Uiso   1.00
C99    C     0.63627   0.66775   0.64817   0.00000  Uiso   1.00
C100   C     0.63446   0.59031   0.61434   0.00000  Uiso   1.00
C101   C     0.61634   0.48957   0.54849   0.00000  Uiso   1.00
C102   C     0.59546   0.62578   0.76558   0.00000  Uiso   1.00
C103   C     0.49584   0.62497   0.78764   0.00000  Uiso   1.00
C104   C     0.42980   0.52796   0.81759   0.00000  Uiso   1.00
C105   C     0.29325   0.39116   0.86939   0.00000  Uiso   1.00
C106   C     0.74002   0.55209   0.74542   0.00000  Uiso   1.00
C107   C     0.84689   0.68419   0.75615   0.00000  Uiso   1.00
C108   C     0.96509   0.71434   0.77178   0.00000  Uiso   1.00
C109   C     0.04975   0.84074   0.77957   0.00000  Uiso   1.00
C110   C     0.70423   0.55620   0.69738   0.00000  Uiso   1.00
C111   C     0.70246   0.47871   0.66360   0.00000  Uiso   1.00
C112   C     0.66701   0.49733   0.62192   0.00000  Uiso   1.00
C113   C     0.62796   0.53297   0.77315   0.00000  Uiso   1.00
C114   C     0.56205   0.43593   0.80307   0.00000  Uiso   1.00
C115   C     0.46235   0.43498   0.82518   0.00000  Uiso   1.00
H116   H     0.65489   0.79521   0.72557   0.00000  Uiso   1.00
H117   H     0.87372   0.97518   0.75048   0.00000  Uiso   1.00
H118   H     0.61111   0.73957   0.64232   0.00000  Uiso   1.00
H119   H     0.47072   0.69681   0.78177   0.00000  Uiso   1.00
H120   H     0.13067   0.13378   0.78142   0.00000  Uiso   1.00
H121   H     0.57692   0.63696   0.55337   0.00000  Uiso   1.00
H122   H     0.28086   0.54678   0.84742   0.00000  Uiso   1.00
H123   H     0.76532   0.47983   0.75131   0.00000  Uiso   1.00
H124   H     0.99021   0.64250   0.77763   0.00000  Uiso   1.00
H125   H     0.72761   0.40689   0.66948   0.00000  Uiso   1.00
H126   H     0.58722   0.36413   0.80892   0.00000  Uiso   1.00
H127   H     0.22522   0.86377   0.80345   0.00000  Uiso   1.00
H128   H     0.67147   0.36694   0.57540   0.00000  Uiso   1.00
H129   H     0.37542   0.27677   0.86946   0.00000  Uiso   1.00
O130   O     0.32390   0.11148   0.80927   0.00000  Uiso   1.00
O131   O     0.59738   0.45965   0.51008   0.00000  Uiso   1.00
O132   O     0.20897   0.34135   0.89587   0.00000  Uiso   1.00
N133   N     0.12205   0.04791   0.78300   0.00000  Uiso   1.00
N134   N     0.60435   0.58342   0.56978   0.00000  Uiso   1.00
N135   N     0.32754   0.49910   0.84469   0.00000  Uiso   1.00
N136   N     0.17293   0.90262   0.79486   0.00000  Uiso   1.00
N137   N     0.65523   0.43813   0.58164   0.00000  Uiso   1.00
N138   N     0.37842   0.35380   0.85655   0.00000  Uiso   1.00
C139   C     0.95724   0.27704   0.60186   0.00000  Uiso   1.00
C140   C     0.03739   0.22299   0.58476   0.00000  Uiso   1.00
C141   C     0.99551   0.09662   0.57699   0.00000  Uiso   1.00
C142   C     0.08348   0.06629   0.56135   0.00000  Uiso   1.00
C143   C     0.18890   0.96824   0.53597   0.00000  Uiso   1.00
C144   C     0.02273   0.35100   0.64352   0.00000  Uiso   1.00
C145   C     0.96852   0.33225   0.68516   0.00000  Uiso   1.00
C146   C     0.04415   0.40969   0.71900   0.00000  Uiso   1.00
C147   C     0.12677   0.51043   0.78484   0.00000  Uiso   1.00
C148   C     0.96968   0.37422   0.56776   0.00000  Uiso   1.00
C149   C     0.87087   0.37503   0.54569   0.00000  Uiso   1.00
C150   C     0.90184   0.47204   0.51574   0.00000  Uiso   1.00
C151   C     0.90210   0.60884   0.46394   0.00000  Uiso   1.00
C152   C     0.18793   0.44791   0.58792   0.00000  Uiso   1.00
C153   C     0.16270   0.31581   0.57718   0.00000  Uiso   1.00
C154   C     0.25075   0.28566   0.56156   0.00000  Uiso   1.00
C155   C     0.20901   0.15926   0.55376   0.00000  Uiso   1.00
C156   C     0.14803   0.44380   0.63595   0.00000  Uiso   1.00
C157   C     0.22376   0.52129   0.66973   0.00000  Uiso   1.00
C158   C     0.16968   0.50267   0.71141   0.00000  Uiso   1.00
C159   C     0.09499   0.46703   0.56018   0.00000  Uiso   1.00
C160   C     0.12611   0.56407   0.53026   0.00000  Uiso   1.00
C161   C     0.02737   0.56502   0.50816   0.00000  Uiso   1.00
H162   H     0.85968   0.20479   0.60776   0.00000  Uiso   1.00
H163   H     0.89854   0.02482   0.58286   0.00000  Uiso   1.00
H164   H     0.87154   0.26043   0.69101   0.00000  Uiso   1.00
H165   H     0.77391   0.30319   0.55156   0.00000  Uiso   1.00
H166   H     0.99688   0.86622   0.55192   0.00000  Uiso   1.00
H167   H     0.93996   0.36304   0.77997   0.00000  Uiso   1.00
H168   H     0.73408   0.45322   0.48591   0.00000  Uiso   1.00
H169   H     0.28549   0.52017   0.58202   0.00000  Uiso   1.00
H170   H     0.34772   0.35750   0.55570   0.00000  Uiso   1.00
H171   H     0.32072   0.59311   0.66386   0.00000  Uiso   1.00
H172   H     0.22309   0.63587   0.52441   0.00000  Uiso   1.00
H173   H     0.36146   0.13623   0.52988   0.00000  Uiso   1.00
H174   H     0.30452   0.63306   0.75793   0.00000  Uiso   1.00
H175   H     0.09865   0.72323   0.46388   0.00000  Uiso   1.00
O176   O     0.21243   0.88852   0.52406   0.00000  Uiso   1.00
O177   O     0.13773   0.54035   0.82325   0.00000  Uiso   1.00
O178   O     0.86763   0.65865   0.43746   0.00000  Uiso   1.00
N179   N     0.07414   0.95209   0.55033   0.00000  Uiso   1.00
N180   N     0.02092   0.41658   0.76355   0.00000  Uiso   1.00
N181   N     0.82844   0.50090   0.48864   0.00000  Uiso   1.00
N182   N     0.27031   0.09738   0.53848   0.00000  Uiso   1.00
N183   N     0.21710   0.56187   0.75169   0.00000  Uiso   1.00
N184   N     0.02461   0.64620   0.47678   0.00000  Uiso   1.00
C185   C     0.31980   0.04276   0.93520   0.00000  Uiso   1.00
C186   C     0.18560   0.96261   0.91809   0.00000  Uiso   1.00
C187   C     0.10110   0.00449   0.91032   0.00000  Uiso   1.00
C188   C     0.98280   0.91652   0.89469   0.00000  Uiso   1.00
C189   C     0.77935   0.81110   0.86930   0.00000  Uiso   1.00
C190   C     0.32827   0.97727   0.97686   0.00000  Uiso   1.00
C191   C     0.36373   0.03148   0.01849   0.00000  Uiso   1.00
C192   C     0.36554   0.95585   0.05233   0.00000  Uiso   1.00
C193   C     0.38366   0.87323   0.11817   0.00000  Uiso   1.00
C194   C     0.40454   0.03032   0.90109   0.00000  Uiso   1.00
C195   C     0.50416   0.12913   0.87903   0.00000  Uiso   1.00
C196   C     0.57020   0.09816   0.84908   0.00000  Uiso   1.00
C197   C     0.70675   0.09790   0.79728   0.00000  Uiso   1.00
C198   C     0.25998   0.81207   0.92125   0.00000  Uiso   1.00
C199   C     0.15311   0.83730   0.91052   0.00000  Uiso   1.00
C200   C     0.03491   0.74925   0.89489   0.00000  Uiso   1.00
C201   C     0.95025   0.79099   0.88710   0.00000  Uiso   1.00
C202   C     0.29577   0.85197   0.96928   0.00000  Uiso   1.00
C203   C     0.29754   0.77624   0.00307   0.00000  Uiso   1.00
C204   C     0.33299   0.83032   0.04474   0.00000  Uiso   1.00
C205   C     0.37204   0.90501   0.89351   0.00000  Uiso   1.00
C206   C     0.43795   0.87389   0.86360   0.00000  Uiso   1.00
C207   C     0.53765   0.97263   0.84149   0.00000  Uiso   1.00
H208   H     0.34511   0.14032   0.94110   0.00000  Uiso   1.00
H209   H     0.12628   0.10146   0.91619   0.00000  Uiso   1.00
H210   H     0.38889   0.12846   0.02434   0.00000  Uiso   1.00
H211   H     0.52928   0.22609   0.88490   0.00000  Uiso   1.00
H212   H     0.86933   0.00312   0.88525   0.00000  Uiso   1.00
H213   H     0.42308   0.06004   0.11330   0.00000  Uiso   1.00
H214   H     0.71914   0.26592   0.81925   0.00000  Uiso   1.00
H215   H     0.23468   0.71451   0.91536   0.00000  Uiso   1.00
H216   H     0.00979   0.65228   0.88903   0.00000  Uiso   1.00
H217   H     0.27239   0.67928   0.99719   0.00000  Uiso   1.00
H218   H     0.41278   0.77691   0.85774   0.00000  Uiso   1.00
H219   H     0.77478   0.63854   0.86321   0.00000  Uiso   1.00
H220   H     0.32853   0.69548   0.09126   0.00000  Uiso   1.00
H221   H     0.62458   0.90135   0.79721   0.00000  Uiso   1.00
O222   O     0.67610   0.78757   0.85740   0.00000  Uiso   1.00
O223   O     0.40262   0.86227   0.15658   0.00000  Uiso   1.00
O224   O     0.79103   0.13237   0.77079   0.00000  Uiso   1.00
N225   N     0.87795   0.92586   0.88367   0.00000  Uiso   1.00
N226   N     0.39565   0.97908   0.09688   0.00000  Uiso   1.00
N227   N     0.67246   0.17156   0.82198   0.00000  Uiso   1.00
N228   N     0.82707   0.72969   0.87181   0.00000  Uiso   1.00
N229   N     0.34477   0.78290   0.08502   0.00000  Uiso   1.00
N230   N     0.62158   0.97539   0.81012   0.00000  Uiso   1.00
C231   C     0.72296   0.68020   0.26853   0.00000  Uiso   1.00
C232   C     0.77701   0.81440   0.25142   0.00000  Uiso   1.00
C233   C     0.90338   0.89890   0.24365   0.00000  Uiso   1.00
C234   C     0.93371   0.01720   0.22802   0.00000  Uiso   1.00
C235   C     0.03176   0.22065   0.20263   0.00000  Uiso   1.00
C236   C     0.64900   0.67173   0.31019   0.00000  Uiso   1.00
C237   C     0.66775   0.63627   0.35183   0.00000  Uiso   1.00
C238   C     0.59031   0.63446   0.38566   0.00000  Uiso   1.00
C239   C     0.48957   0.61634   0.45151   0.00000  Uiso   1.00
C240   C     0.62578   0.59546   0.23442   0.00000  Uiso   1.00
C241   C     0.62497   0.49584   0.21236   0.00000  Uiso   1.00
C242   C     0.52796   0.42980   0.18241   0.00000  Uiso   1.00
C243   C     0.39116   0.29325   0.13061   0.00000  Uiso   1.00
C244   C     0.55209   0.74002   0.25458   0.00000  Uiso   1.00
C245   C     0.68419   0.84689   0.24385   0.00000  Uiso   1.00
C246   C     0.71434   0.96509   0.22822   0.00000  Uiso   1.00
C247   C     0.84074   0.04975   0.22043   0.00000  Uiso   1.00
C248   C     0.55620   0.70423   0.30262   0.00000  Uiso   1.00
C249   C     0.47871   0.70246   0.33640   0.00000  Uiso   1.00
C250   C     0.49733   0.66701   0.37808   0.00000  Uiso   1.00
C251   C     0.53297   0.62796   0.22685   0.00000  Uiso   1.00
C252   C     0.43593   0.56205   0.19693   0.00000  Uiso   1.00
C253   C     0.43498   0.46235   0.17482   0.00000  Uiso   1.00
H254   H     0.79521   0.65489   0.27443   0.00000  Uiso   1.00
H255   H     0.97518   0.87372   0.24952   0.00000  Uiso   1.00
H256   H     0.73957   0.61111   0.35768   0.00000  Uiso   1.00
H257   H     0.69681   0.47072   0.21823   0.00000  Uiso   1.00
H258   H     0.13378   0.13067   0.21858   0.00000  Uiso   1.00
H259   H     0.63696   0.57692   0.44663   0.00000  Uiso   1.00
H260   H     0.54678   0.28086   0.15258   0.00000  Uiso   1.00
H261   H     0.47983   0.76532   0.24869   0.00000  Uiso   1.00
H262   H     0.64250   0.99021   0.22237   0.00000  Uiso   1.00
H263   H     0.40689   0.72761   0.33052   0.00000  Uiso   1.00
H264   H     0.36413   0.58722   0.19108   0.00000  Uiso   1.00
H265   H     0.86377   0.22522   0.19655   0.00000  Uiso   1.00
H266   H     0.36694   0.67147   0.42460   0.00000  Uiso   1.00
H267   H     0.27677   0.37542   0.13054   0.00000  Uiso   1.00
O268   O     0.11148   0.32390   0.19073   0.00000  Uiso   1.00
O269   O     0.45965   0.59738   0.48992   0.00000  Uiso   1.00
O270   O     0.34135   0.20897   0.10413   0.00000  Uiso   1.00
N271   N     0.04791   0.12205   0.21700   0.00000  Uiso   1.00
N272   N     0.58342   0.60435   0.43022   0.00000  Uiso   1.00
N273   N     0.49910   0.32754   0.15531   0.00000  Uiso   1.00
N274   N     0.90262   0.17293   0.20514   0.00000  Uiso   1.00
N275   N     0.43813   0.65523   0.41836   0.00000  Uiso   1.00
N276   N     0.35380   0.37842   0.14345   0.00000  Uiso   1.00
