data_job_04707
_audit_creation_date              2018-12-19
_audit_creation_method            'Materials Studio'
_symmetry_space_group_name_H-M    'P1'
_symmetry_Int_Tables_number       1
_symmetry_cell_setting            triclinic
loop_
_symmetry_equiv_pos_as_xyz
  x,y,z
_cell_length_a                    19.9730
_cell_length_b                    16.2422
_cell_length_c                    25.8220
_cell_angle_alpha                 90.0000
_cell_angle_beta                  142.3491
_cell_angle_gamma                 90.0000
loop_
_atom_site_label
_atom_site_type_symbol
_atom_site_fract_x
_atom_site_fract_y
_atom_site_fract_z
_atom_site_U_iso_or_equiv
_atom_site_adp_type
_atom_site_occupancy
C1     C     0.52505   0.21545   0.95993   0.00000  Uiso   1.00
C2     C     0.44255   0.23555   0.95193   0.00000  Uiso   1.00
C3     C     0.33140   0.21750   0.88268   0.00000  Uiso   1.00
C4     C     0.26977   0.24099   0.88766   0.00000  Uiso   1.00
C5     C     0.13437   0.26613   0.86431   0.00000  Uiso   1.00
C6     C     0.57838   0.29703   0.97777   0.00000  Uiso   1.00
C7     C     0.58144   0.33067   0.93027   0.00000  Uiso   1.00
C8     C     0.63417   0.40591   0.95701   0.00000  Uiso   1.00
C9     C     0.70971   0.52648   0.97383   0.00000  Uiso   1.00
C10    C     0.61467   0.16435   0.04052   0.00000  Uiso   1.00
C11    C     0.64828   0.08644   0.04578   0.00000  Uiso   1.00
C12    C     0.73158   0.04998   0.12536   0.00000  Uiso   1.00
C13    C     0.86348   0.96454   0.23961   0.00000  Uiso   1.00
C14    C     0.61326   0.28925   0.09191   0.00000  Uiso   1.00
C15    C     0.49046   0.27563   0.02362   0.00000  Uiso   1.00
C16    C     0.42899   0.29915   0.02870   0.00000  Uiso   1.00
C17    C     0.31777   0.28114   0.95948   0.00000  Uiso   1.00
C18    C     0.62629   0.33712   0.04946   0.00000  Uiso   1.00
C19    C     0.67903   0.41232   0.07629   0.00000  Uiso   1.00
C20    C     0.68217   0.44607   0.02883   0.00000  Uiso   1.00
C21    C     0.66258   0.20443   0.11221   0.00000  Uiso   1.00
C22    C     0.74586   0.16809   0.19180   0.00000  Uiso   1.00
C23    C     0.77958   0.09013   0.19718   0.00000  Uiso   1.00
H24    H     0.48775   0.18425   0.90412   0.00000  Uiso   1.00
H25    H     0.29434   0.18649   0.82721   0.00000  Uiso   1.00
H26    H     0.54436   0.29963   0.87480   0.00000  Uiso   1.00
H27    H     0.61118   0.05544   0.99029   0.00000  Uiso   1.00
H28    H     0.10104   0.20667   0.77355   0.00000  Uiso   1.00
H29    H     0.62825   0.44523   0.87390   0.00000  Uiso   1.00
H30    H     0.76915   0.93030   0.11745   0.00000  Uiso   1.00
H31    H     0.65056   0.32046   0.14772   0.00000  Uiso   1.00
H32    H     0.46609   0.33017   0.08419   0.00000  Uiso   1.00
H33    H     0.71610   0.44332   0.13177   0.00000  Uiso   1.00
H34    H     0.78292   0.19912   0.24726   0.00000  Uiso   1.00
H35    H     0.24044   0.32330   0.98212   0.00000  Uiso   1.00
H36    H     0.76764   0.56186   0.08247   0.00000  Uiso   1.00
H37    H     0.90854   0.04693   0.32602   0.00000  Uiso   1.00
O38    O     0.04644   0.26894   0.83163   0.00000  Uiso   1.00
O39    O     0.73813   0.58191   0.96329   0.00000  Uiso   1.00
O40    O     0.92299   0.90634   0.28282   0.00000  Uiso   1.00
N41    N     0.15917   0.23277   0.83136   0.00000  Uiso   1.00
N42    N     0.65206   0.45582   0.92518   0.00000  Uiso   1.00
N43    N     0.78381   0.97441   0.15288   0.00000  Uiso   1.00
N44    N     0.23418   0.29553   0.94359   0.00000  Uiso   1.00
N45    N     0.72706   0.51857   0.03740   0.00000  Uiso   1.00
N46    N     0.85882   0.03717   0.26511   0.00000  Uiso   1.00
C47    C     0.02505   0.71545   0.95993   0.00000  Uiso   1.00
C48    C     0.94255   0.73555   0.95193   0.00000  Uiso   1.00
C49    C     0.83140   0.71750   0.88268   0.00000  Uiso   1.00
C50    C     0.76977   0.74099   0.88766   0.00000  Uiso   1.00
C51    C     0.63437   0.76613   0.86431   0.00000  Uiso   1.00
C52    C     0.07838   0.79703   0.97777   0.00000  Uiso   1.00
C53    C     0.08144   0.83067   0.93027   0.00000  Uiso   1.00
C54    C     0.13417   0.90591   0.95701   0.00000  Uiso   1.00
C55    C     0.20971   0.02648   0.97383   0.00000  Uiso   1.00
C56    C     0.11467   0.66435   0.04052   0.00000  Uiso   1.00
C57    C     0.14828   0.58644   0.04578   0.00000  Uiso   1.00
C58    C     0.23158   0.54998   0.12536   0.00000  Uiso   1.00
C59    C     0.36348   0.46454   0.23961   0.00000  Uiso   1.00
C60    C     0.11326   0.78925   0.09191   0.00000  Uiso   1.00
C61    C     0.99046   0.77563   0.02362   0.00000  Uiso   1.00
C62    C     0.92899   0.79915   0.02870   0.00000  Uiso   1.00
C63    C     0.81777   0.78114   0.95948   0.00000  Uiso   1.00
C64    C     0.12629   0.83712   0.04946   0.00000  Uiso   1.00
C65    C     0.17903   0.91232   0.07629   0.00000  Uiso   1.00
C66    C     0.18217   0.94607   0.02883   0.00000  Uiso   1.00
C67    C     0.16258   0.70443   0.11221   0.00000  Uiso   1.00
C68    C     0.24586   0.66809   0.19180   0.00000  Uiso   1.00
C69    C     0.27958   0.59013   0.19718   0.00000  Uiso   1.00
H70    H     0.98775   0.68425   0.90412   0.00000  Uiso   1.00
H71    H     0.79434   0.68649   0.82721   0.00000  Uiso   1.00
H72    H     0.04436   0.79963   0.87480   0.00000  Uiso   1.00
H73    H     0.11118   0.55544   0.99029   0.00000  Uiso   1.00
H74    H     0.60104   0.70667   0.77355   0.00000  Uiso   1.00
H75    H     0.12825   0.94523   0.87390   0.00000  Uiso   1.00
H76    H     0.26915   0.43030   0.11745   0.00000  Uiso   1.00
H77    H     0.15056   0.82046   0.14772   0.00000  Uiso   1.00
H78    H     0.96609   0.83017   0.08419   0.00000  Uiso   1.00
H79    H     0.21610   0.94332   0.13177   0.00000  Uiso   1.00
H80    H     0.28292   0.69912   0.24726   0.00000  Uiso   1.00
H81    H     0.74044   0.82330   0.98212   0.00000  Uiso   1.00
H82    H     0.26764   0.06186   0.08247   0.00000  Uiso   1.00
H83    H     0.40854   0.54693   0.32602   0.00000  Uiso   1.00
O84    O     0.54644   0.76894   0.83163   0.00000  Uiso   1.00
O85    O     0.23813   0.08191   0.96329   0.00000  Uiso   1.00
O86    O     0.42299   0.40634   0.28282   0.00000  Uiso   1.00
N87    N     0.65917   0.73277   0.83136   0.00000  Uiso   1.00
N88    N     0.15206   0.95582   0.92518   0.00000  Uiso   1.00
N89    N     0.28381   0.47441   0.15288   0.00000  Uiso   1.00
N90    N     0.73418   0.79553   0.94359   0.00000  Uiso   1.00
N91    N     0.22706   0.01857   0.03740   0.00000  Uiso   1.00
N92    N     0.35882   0.53717   0.26511   0.00000  Uiso   1.00
C93    C     0.47495   0.21545   0.54007   0.00000  Uiso   1.00
C94    C     0.55745   0.23555   0.54807   0.00000  Uiso   1.00
C95    C     0.66860   0.21750   0.61732   0.00000  Uiso   1.00
C96    C     0.73023   0.24099   0.61234   0.00000  Uiso   1.00
C97    C     0.86563   0.26613   0.63569   0.00000  Uiso   1.00
C98    C     0.42162   0.29703   0.52223   0.00000  Uiso   1.00
C99    C     0.41856   0.33067   0.56973   0.00000  Uiso   1.00
C100   C     0.36583   0.40591   0.54299   0.00000  Uiso   1.00
C101   C     0.29029   0.52648   0.52617   0.00000  Uiso   1.00
C102   C     0.38533   0.16435   0.45948   0.00000  Uiso   1.00
C103   C     0.35172   0.08644   0.45422   0.00000  Uiso   1.00
C104   C     0.26842   0.04998   0.37464   0.00000  Uiso   1.00
C105   C     0.13652   0.96454   0.26039   0.00000  Uiso   1.00
C106   C     0.38674   0.28925   0.40809   0.00000  Uiso   1.00
C107   C     0.50954   0.27563   0.47638   0.00000  Uiso   1.00
C108   C     0.57101   0.29915   0.47130   0.00000  Uiso   1.00
C109   C     0.68223   0.28114   0.54052   0.00000  Uiso   1.00
C110   C     0.37371   0.33712   0.45054   0.00000  Uiso   1.00
C111   C     0.32097   0.41232   0.42371   0.00000  Uiso   1.00
C112   C     0.31783   0.44607   0.47117   0.00000  Uiso   1.00
C113   C     0.33742   0.20443   0.38779   0.00000  Uiso   1.00
C114   C     0.25414   0.16809   0.30820   0.00000  Uiso   1.00
C115   C     0.22042   0.09013   0.30282   0.00000  Uiso   1.00
H116   H     0.51225   0.18425   0.59588   0.00000  Uiso   1.00
H117   H     0.70566   0.18649   0.67279   0.00000  Uiso   1.00
H118   H     0.45564   0.29963   0.62520   0.00000  Uiso   1.00
H119   H     0.38882   0.05544   0.50971   0.00000  Uiso   1.00
H120   H     0.89896   0.20667   0.72645   0.00000  Uiso   1.00
H121   H     0.37175   0.44523   0.62610   0.00000  Uiso   1.00
H122   H     0.23085   0.93030   0.38255   0.00000  Uiso   1.00
H123   H     0.34944   0.32046   0.35228   0.00000  Uiso   1.00
H124   H     0.53391   0.33017   0.41581   0.00000  Uiso   1.00
H125   H     0.28390   0.44332   0.36823   0.00000  Uiso   1.00
H126   H     0.21708   0.19912   0.25274   0.00000  Uiso   1.00
H127   H     0.75956   0.32330   0.51788   0.00000  Uiso   1.00
H128   H     0.23236   0.56186   0.41753   0.00000  Uiso   1.00
H129   H     0.09146   0.04693   0.17398   0.00000  Uiso   1.00
O130   O     0.95356   0.26894   0.66837   0.00000  Uiso   1.00
O131   O     0.26187   0.58191   0.53671   0.00000  Uiso   1.00
O132   O     0.07701   0.90634   0.21718   0.00000  Uiso   1.00
N133   N     0.84083   0.23277   0.66864   0.00000  Uiso   1.00
N134   N     0.34794   0.45582   0.57482   0.00000  Uiso   1.00
N135   N     0.21619   0.97441   0.34712   0.00000  Uiso   1.00
N136   N     0.76582   0.29553   0.55641   0.00000  Uiso   1.00
N137   N     0.27294   0.51857   0.46260   0.00000  Uiso   1.00
N138   N     0.14118   0.03717   0.23489   0.00000  Uiso   1.00
C139   C     0.97495   0.71545   0.54007   0.00000  Uiso   1.00
C140   C     0.05745   0.73555   0.54807   0.00000  Uiso   1.00
C141   C     0.16860   0.71750   0.61732   0.00000  Uiso   1.00
C142   C     0.23023   0.74099   0.61234   0.00000  Uiso   1.00
C143   C     0.36563   0.76613   0.63569   0.00000  Uiso   1.00
C144   C     0.92162   0.79703   0.52223   0.00000  Uiso   1.00
C145   C     0.91856   0.83067   0.56973   0.00000  Uiso   1.00
C146   C     0.86583   0.90591   0.54299   0.00000  Uiso   1.00
C147   C     0.79029   0.02648   0.52617   0.00000  Uiso   1.00
C148   C     0.88533   0.66435   0.45948   0.00000  Uiso   1.00
C149   C     0.85172   0.58644   0.45422   0.00000  Uiso   1.00
C150   C     0.76842   0.54998   0.37464   0.00000  Uiso   1.00
C151   C     0.63652   0.46454   0.26039   0.00000  Uiso   1.00
C152   C     0.88674   0.78925   0.40809   0.00000  Uiso   1.00
C153   C     0.00954   0.77563   0.47638   0.00000  Uiso   1.00
C154   C     0.07101   0.79915   0.47130   0.00000  Uiso   1.00
C155   C     0.18223   0.78114   0.54052   0.00000  Uiso   1.00
C156   C     0.87371   0.83712   0.45054   0.00000  Uiso   1.00
C157   C     0.82097   0.91232   0.42371   0.00000  Uiso   1.00
C158   C     0.81783   0.94607   0.47117   0.00000  Uiso   1.00
C159   C     0.83742   0.70443   0.38779   0.00000  Uiso   1.00
C160   C     0.75414   0.66809   0.30820   0.00000  Uiso   1.00
C161   C     0.72042   0.59013   0.30282   0.00000  Uiso   1.00
H162   H     0.01225   0.68425   0.59588   0.00000  Uiso   1.00
H163   H     0.20566   0.68649   0.67279   0.00000  Uiso   1.00
H164   H     0.95564   0.79963   0.62520   0.00000  Uiso   1.00
H165   H     0.88882   0.55544   0.50971   0.00000  Uiso   1.00
H166   H     0.39896   0.70667   0.72645   0.00000  Uiso   1.00
H167   H     0.87175   0.94523   0.62610   0.00000  Uiso   1.00
H168   H     0.73085   0.43030   0.38255   0.00000  Uiso   1.00
H169   H     0.84944   0.82046   0.35228   0.00000  Uiso   1.00
H170   H     0.03391   0.83017   0.41581   0.00000  Uiso   1.00
H171   H     0.78390   0.94332   0.36823   0.00000  Uiso   1.00
H172   H     0.71708   0.69912   0.25274   0.00000  Uiso   1.00
H173   H     0.25956   0.82330   0.51788   0.00000  Uiso   1.00
H174   H     0.73236   0.06186   0.41753   0.00000  Uiso   1.00
H175   H     0.59146   0.54693   0.17398   0.00000  Uiso   1.00
O176   O     0.45356   0.76894   0.66837   0.00000  Uiso   1.00
O177   O     0.76187   0.08191   0.53671   0.00000  Uiso   1.00
O178   O     0.57701   0.40634   0.21718   0.00000  Uiso   1.00
N179   N     0.34083   0.73277   0.66864   0.00000  Uiso   1.00
N180   N     0.84794   0.95582   0.57482   0.00000  Uiso   1.00
N181   N     0.71619   0.47441   0.34712   0.00000  Uiso   1.00
N182   N     0.26582   0.79553   0.55641   0.00000  Uiso   1.00
N183   N     0.77294   0.01857   0.46260   0.00000  Uiso   1.00
N184   N     0.64118   0.53717   0.23489   0.00000  Uiso   1.00
C185   C     0.47495   0.78455   0.04007   0.00000  Uiso   1.00
C186   C     0.55745   0.76445   0.04807   0.00000  Uiso   1.00
C187   C     0.66860   0.78250   0.11732   0.00000  Uiso   1.00
C188   C     0.73023   0.75901   0.11234   0.00000  Uiso   1.00
C189   C     0.86563   0.73387   0.13569   0.00000  Uiso   1.00
C190   C     0.42162   0.70297   0.02223   0.00000  Uiso   1.00
C191   C     0.41856   0.66933   0.06973   0.00000  Uiso   1.00
C192   C     0.36583   0.59409   0.04299   0.00000  Uiso   1.00
C193   C     0.29029   0.47352   0.02617   0.00000  Uiso   1.00
C194   C     0.38533   0.83565   0.95948   0.00000  Uiso   1.00
C195   C     0.35172   0.91356   0.95422   0.00000  Uiso   1.00
C196   C     0.26842   0.95002   0.87464   0.00000  Uiso   1.00
C197   C     0.13652   0.03546   0.76039   0.00000  Uiso   1.00
C198   C     0.38674   0.71075   0.90809   0.00000  Uiso   1.00
C199   C     0.50954   0.72437   0.97638   0.00000  Uiso   1.00
C200   C     0.57101   0.70085   0.97130   0.00000  Uiso   1.00
C201   C     0.68223   0.71886   0.04052   0.00000  Uiso   1.00
C202   C     0.37371   0.66288   0.95054   0.00000  Uiso   1.00
C203   C     0.32097   0.58768   0.92371   0.00000  Uiso   1.00
C204   C     0.31783   0.55393   0.97117   0.00000  Uiso   1.00
C205   C     0.33742   0.79557   0.88779   0.00000  Uiso   1.00
C206   C     0.25414   0.83191   0.80820   0.00000  Uiso   1.00
C207   C     0.22042   0.90987   0.80282   0.00000  Uiso   1.00
H208   H     0.51225   0.81575   0.09588   0.00000  Uiso   1.00
H209   H     0.70566   0.81351   0.17279   0.00000  Uiso   1.00
H210   H     0.45564   0.70037   0.12520   0.00000  Uiso   1.00
H211   H     0.38882   0.94456   0.00971   0.00000  Uiso   1.00
H212   H     0.89896   0.79333   0.22645   0.00000  Uiso   1.00
H213   H     0.37175   0.55477   0.12610   0.00000  Uiso   1.00
H214   H     0.23085   0.06970   0.88255   0.00000  Uiso   1.00
H215   H     0.34944   0.67954   0.85228   0.00000  Uiso   1.00
H216   H     0.53391   0.66983   0.91581   0.00000  Uiso   1.00
H217   H     0.28390   0.55668   0.86823   0.00000  Uiso   1.00
H218   H     0.21708   0.80088   0.75274   0.00000  Uiso   1.00
H219   H     0.75956   0.67670   0.01788   0.00000  Uiso   1.00
H220   H     0.23236   0.43814   0.91753   0.00000  Uiso   1.00
H221   H     0.09146   0.95307   0.67398   0.00000  Uiso   1.00
O222   O     0.95356   0.73106   0.16837   0.00000  Uiso   1.00
O223   O     0.26187   0.41809   0.03671   0.00000  Uiso   1.00
O224   O     0.07701   0.09366   0.71718   0.00000  Uiso   1.00
N225   N     0.84083   0.76723   0.16864   0.00000  Uiso   1.00
N226   N     0.34794   0.54418   0.07482   0.00000  Uiso   1.00
N227   N     0.21619   0.02559   0.84712   0.00000  Uiso   1.00
N228   N     0.76582   0.70447   0.05641   0.00000  Uiso   1.00
N229   N     0.27294   0.48143   0.96260   0.00000  Uiso   1.00
N230   N     0.14118   0.96283   0.73489   0.00000  Uiso   1.00
C231   C     0.97495   0.28455   0.04007   0.00000  Uiso   1.00
C232   C     0.05745   0.26445   0.04807   0.00000  Uiso   1.00
C233   C     0.16860   0.28250   0.11732   0.00000  Uiso   1.00
C234   C     0.23023   0.25901   0.11234   0.00000  Uiso   1.00
C235   C     0.36563   0.23387   0.13569   0.00000  Uiso   1.00
C236   C     0.92162   0.20297   0.02223   0.00000  Uiso   1.00
C237   C     0.91856   0.16933   0.06973   0.00000  Uiso   1.00
C238   C     0.86583   0.09409   0.04299   0.00000  Uiso   1.00
C239   C     0.79029   0.97352   0.02617   0.00000  Uiso   1.00
C240   C     0.88533   0.33565   0.95948   0.00000  Uiso   1.00
C241   C     0.85172   0.41356   0.95422   0.00000  Uiso   1.00
C242   C     0.76842   0.45002   0.87464   0.00000  Uiso   1.00
C243   C     0.63652   0.53546   0.76039   0.00000  Uiso   1.00
C244   C     0.88674   0.21075   0.90809   0.00000  Uiso   1.00
C245   C     0.00954   0.22437   0.97638   0.00000  Uiso   1.00
C246   C     0.07101   0.20085   0.97130   0.00000  Uiso   1.00
C247   C     0.18223   0.21886   0.04052   0.00000  Uiso   1.00
C248   C     0.87371   0.16288   0.95054   0.00000  Uiso   1.00
C249   C     0.82097   0.08768   0.92371   0.00000  Uiso   1.00
C250   C     0.81783   0.05393   0.97117   0.00000  Uiso   1.00
C251   C     0.83742   0.29557   0.88779   0.00000  Uiso   1.00
C252   C     0.75414   0.33191   0.80820   0.00000  Uiso   1.00
C253   C     0.72042   0.40987   0.80282   0.00000  Uiso   1.00
H254   H     0.01225   0.31575   0.09588   0.00000  Uiso   1.00
H255   H     0.20566   0.31351   0.17279   0.00000  Uiso   1.00
H256   H     0.95564   0.20037   0.12520   0.00000  Uiso   1.00
H257   H     0.88882   0.44456   0.00971   0.00000  Uiso   1.00
H258   H     0.39896   0.29333   0.22645   0.00000  Uiso   1.00
H259   H     0.87175   0.05477   0.12610   0.00000  Uiso   1.00
H260   H     0.73085   0.56970   0.88255   0.00000  Uiso   1.00
H261   H     0.84944   0.17954   0.85228   0.00000  Uiso   1.00
H262   H     0.03391   0.16983   0.91581   0.00000  Uiso   1.00
H263   H     0.78390   0.05668   0.86823   0.00000  Uiso   1.00
H264   H     0.71708   0.30088   0.75274   0.00000  Uiso   1.00
H265   H     0.25956   0.17670   0.01788   0.00000  Uiso   1.00
H266   H     0.73236   0.93814   0.91753   0.00000  Uiso   1.00
H267   H     0.59146   0.45307   0.67398   0.00000  Uiso   1.00
O268   O     0.45356   0.23106   0.16837   0.00000  Uiso   1.00
O269   O     0.76187   0.91809   0.03671   0.00000  Uiso   1.00
O270   O     0.57701   0.59366   0.71718   0.00000  Uiso   1.00
N271   N     0.34083   0.26723   0.16864   0.00000  Uiso   1.00
N272   N     0.84794   0.04418   0.07482   0.00000  Uiso   1.00
N273   N     0.71619   0.52559   0.84712   0.00000  Uiso   1.00
N274   N     0.26582   0.20447   0.05641   0.00000  Uiso   1.00
N275   N     0.77294   0.98143   0.96260   0.00000  Uiso   1.00
N276   N     0.64118   0.46283   0.73489   0.00000  Uiso   1.00
C277   C     0.52505   0.78455   0.45993   0.00000  Uiso   1.00
C278   C     0.44255   0.76445   0.45193   0.00000  Uiso   1.00
C279   C     0.33140   0.78250   0.38268   0.00000  Uiso   1.00
C280   C     0.26977   0.75901   0.38766   0.00000  Uiso   1.00
C281   C     0.13437   0.73387   0.36431   0.00000  Uiso   1.00
C282   C     0.57838   0.70297   0.47777   0.00000  Uiso   1.00
C283   C     0.58144   0.66933   0.43027   0.00000  Uiso   1.00
C284   C     0.63417   0.59409   0.45701   0.00000  Uiso   1.00
C285   C     0.70971   0.47352   0.47383   0.00000  Uiso   1.00
C286   C     0.61467   0.83565   0.54052   0.00000  Uiso   1.00
C287   C     0.64828   0.91356   0.54578   0.00000  Uiso   1.00
C288   C     0.73158   0.95002   0.62536   0.00000  Uiso   1.00
C289   C     0.86348   0.03546   0.73961   0.00000  Uiso   1.00
C290   C     0.61326   0.71075   0.59191   0.00000  Uiso   1.00
C291   C     0.49046   0.72437   0.52362   0.00000  Uiso   1.00
C292   C     0.42899   0.70085   0.52870   0.00000  Uiso   1.00
C293   C     0.31777   0.71886   0.45948   0.00000  Uiso   1.00
C294   C     0.62629   0.66288   0.54946   0.00000  Uiso   1.00
C295   C     0.67903   0.58768   0.57629   0.00000  Uiso   1.00
C296   C     0.68217   0.55393   0.52883   0.00000  Uiso   1.00
C297   C     0.66258   0.79557   0.61221   0.00000  Uiso   1.00
C298   C     0.74586   0.83191   0.69180   0.00000  Uiso   1.00
C299   C     0.77958   0.90987   0.69718   0.00000  Uiso   1.00
H300   H     0.48775   0.81575   0.40412   0.00000  Uiso   1.00
H301   H     0.29434   0.81351   0.32721   0.00000  Uiso   1.00
H302   H     0.54436   0.70037   0.37480   0.00000  Uiso   1.00
H303   H     0.61118   0.94456   0.49029   0.00000  Uiso   1.00
H304   H     0.10104   0.79333   0.27355   0.00000  Uiso   1.00
H305   H     0.62825   0.55477   0.37390   0.00000  Uiso   1.00
H306   H     0.76915   0.06970   0.61745   0.00000  Uiso   1.00
H307   H     0.65056   0.67954   0.64772   0.00000  Uiso   1.00
H308   H     0.46609   0.66983   0.58419   0.00000  Uiso   1.00
H309   H     0.71610   0.55668   0.63177   0.00000  Uiso   1.00
H310   H     0.78292   0.80088   0.74726   0.00000  Uiso   1.00
H311   H     0.24044   0.67670   0.48212   0.00000  Uiso   1.00
H312   H     0.76764   0.43814   0.58247   0.00000  Uiso   1.00
H313   H     0.90854   0.95307   0.82602   0.00000  Uiso   1.00
O314   O     0.04644   0.73106   0.33163   0.00000  Uiso   1.00
O315   O     0.73813   0.41809   0.46329   0.00000  Uiso   1.00
O316   O     0.92299   0.09366   0.78282   0.00000  Uiso   1.00
N317   N     0.15917   0.76723   0.33136   0.00000  Uiso   1.00
N318   N     0.65206   0.54418   0.42518   0.00000  Uiso   1.00
N319   N     0.78381   0.02559   0.65288   0.00000  Uiso   1.00
N320   N     0.23418   0.70447   0.44359   0.00000  Uiso   1.00
N321   N     0.72706   0.48143   0.53740   0.00000  Uiso   1.00
N322   N     0.85882   0.96283   0.76511   0.00000  Uiso   1.00
C323   C     0.02505   0.28455   0.45993   0.00000  Uiso   1.00
C324   C     0.94255   0.26445   0.45193   0.00000  Uiso   1.00
C325   C     0.83140   0.28250   0.38268   0.00000  Uiso   1.00
C326   C     0.76977   0.25901   0.38766   0.00000  Uiso   1.00
C327   C     0.63437   0.23387   0.36431   0.00000  Uiso   1.00
C328   C     0.07838   0.20297   0.47777   0.00000  Uiso   1.00
C329   C     0.08144   0.16933   0.43027   0.00000  Uiso   1.00
C330   C     0.13417   0.09409   0.45701   0.00000  Uiso   1.00
C331   C     0.20971   0.97352   0.47383   0.00000  Uiso   1.00
C332   C     0.11467   0.33565   0.54052   0.00000  Uiso   1.00
C333   C     0.14828   0.41356   0.54578   0.00000  Uiso   1.00
C334   C     0.23158   0.45002   0.62536   0.00000  Uiso   1.00
C335   C     0.36348   0.53546   0.73961   0.00000  Uiso   1.00
C336   C     0.11326   0.21075   0.59191   0.00000  Uiso   1.00
C337   C     0.99046   0.22437   0.52362   0.00000  Uiso   1.00
C338   C     0.92899   0.20085   0.52870   0.00000  Uiso   1.00
C339   C     0.81777   0.21886   0.45948   0.00000  Uiso   1.00
C340   C     0.12629   0.16288   0.54946   0.00000  Uiso   1.00
C341   C     0.17903   0.08768   0.57629   0.00000  Uiso   1.00
C342   C     0.18217   0.05393   0.52883   0.00000  Uiso   1.00
C343   C     0.16258   0.29557   0.61221   0.00000  Uiso   1.00
C344   C     0.24586   0.33191   0.69180   0.00000  Uiso   1.00
C345   C     0.27958   0.40987   0.69718   0.00000  Uiso   1.00
H346   H     0.98775   0.31575   0.40412   0.00000  Uiso   1.00
H347   H     0.79434   0.31351   0.32721   0.00000  Uiso   1.00
H348   H     0.04436   0.20037   0.37480   0.00000  Uiso   1.00
H349   H     0.11118   0.44456   0.49029   0.00000  Uiso   1.00
H350   H     0.60104   0.29333   0.27355   0.00000  Uiso   1.00
H351   H     0.12825   0.05477   0.37390   0.00000  Uiso   1.00
H352   H     0.26915   0.56970   0.61745   0.00000  Uiso   1.00
H353   H     0.15056   0.17954   0.64772   0.00000  Uiso   1.00
H354   H     0.96609   0.16983   0.58419   0.00000  Uiso   1.00
H355   H     0.21610   0.05668   0.63177   0.00000  Uiso   1.00
H356   H     0.28292   0.30088   0.74726   0.00000  Uiso   1.00
H357   H     0.74044   0.17670   0.48212   0.00000  Uiso   1.00
H358   H     0.26764   0.93814   0.58247   0.00000  Uiso   1.00
H359   H     0.40854   0.45307   0.82602   0.00000  Uiso   1.00
O360   O     0.54644   0.23106   0.33163   0.00000  Uiso   1.00
O361   O     0.23813   0.91809   0.46329   0.00000  Uiso   1.00
O362   O     0.42299   0.59366   0.78282   0.00000  Uiso   1.00
N363   N     0.65917   0.26723   0.33136   0.00000  Uiso   1.00
N364   N     0.15206   0.04418   0.42518   0.00000  Uiso   1.00
N365   N     0.28381   0.52559   0.65288   0.00000  Uiso   1.00
N366   N     0.73418   0.20447   0.44359   0.00000  Uiso   1.00
N367   N     0.22706   0.98143   0.53740   0.00000  Uiso   1.00
N368   N     0.35882   0.46283   0.76511   0.00000  Uiso   1.00
