data_job_05363
_audit_creation_date              2018-12-19
_audit_creation_method            'Materials Studio'
_symmetry_space_group_name_H-M    'P1'
_symmetry_Int_Tables_number       1
_symmetry_cell_setting            triclinic
loop_
_symmetry_equiv_pos_as_xyz
  x,y,z
_cell_length_a                    12.5404
_cell_length_b                    12.5404
_cell_length_c                    57.0665
_cell_angle_alpha                 90.0000
_cell_angle_beta                  90.0000
_cell_angle_gamma                 120.0000
loop_
_atom_site_label
_atom_site_type_symbol
_atom_site_fract_x
_atom_site_fract_y
_atom_site_fract_z
_atom_site_U_iso_or_equiv
_atom_site_adp_type
_atom_site_occupancy
C1     C     0.12528   0.77488   0.35297   0.00000  Uiso   1.00
C2     C     0.17051   0.68949   0.36172   0.00000  Uiso   1.00
C3     C     0.11063   0.59508   0.37787   0.00000  Uiso   1.00
C4     C     0.16708   0.52745   0.38360   0.00000  Uiso   1.00
C5     C     0.22026   0.39096   0.39874   0.00000  Uiso   1.00
C6     C     0.22862   0.90547   0.35812   0.00000  Uiso   1.00
C7     C     0.21758   0.99266   0.37123   0.00000  Uiso   1.00
C8     C     0.32294   0.10684   0.37392   0.00000  Uiso   1.00
C9     C     0.46631   0.30569   0.38345   0.00000  Uiso   1.00
C10    C     0.11839   0.76242   0.32635   0.00000  Uiso   1.00
C11    C     0.01467   0.72936   0.31276   0.00000  Uiso   1.00
C12    C     0.02724   0.72314   0.28870   0.00000  Uiso   1.00
C13    C     0.99946   0.69988   0.24890   0.00000  Uiso   1.00
C14    C     0.33201   0.82265   0.33442   0.00000  Uiso   1.00
C15    C     0.28281   0.71544   0.35165   0.00000  Uiso   1.00
C16    C     0.33936   0.64793   0.35735   0.00000  Uiso   1.00
C17    C     0.27957   0.55344   0.37350   0.00000  Uiso   1.00
C18    C     0.34091   0.93142   0.34804   0.00000  Uiso   1.00
C19    C     0.44631   0.04550   0.35071   0.00000  Uiso   1.00
C20    C     0.43544   0.13284   0.36383   0.00000  Uiso   1.00
C21    C     0.23068   0.78836   0.31628   0.00000  Uiso   1.00
C22    C     0.24340   0.78220   0.29223   0.00000  Uiso   1.00
C23    C     0.13973   0.74913   0.27861   0.00000  Uiso   1.00
H24    H     0.03786   0.75469   0.36081   0.00000  Uiso   1.00
H25    H     0.02373   0.57504   0.38567   0.00000  Uiso   1.00
H26    H     0.13067   0.97255   0.37902   0.00000  Uiso   1.00
H27    H     0.92779   0.70929   0.32056   0.00000  Uiso   1.00
H28    H     0.05762   0.38734   0.40879   0.00000  Uiso   1.00
H29    H     0.28308   0.22553   0.39478   0.00000  Uiso   1.00
H30    H     0.85528   0.67040   0.27149   0.00000  Uiso   1.00
H31    H     0.41944   0.84285   0.32657   0.00000  Uiso   1.00
H32    H     0.42626   0.66803   0.34955   0.00000  Uiso   1.00
H33    H     0.53319   0.06555   0.34291   0.00000  Uiso   1.00
H34    H     0.33031   0.80229   0.28444   0.00000  Uiso   1.00
H35    H     0.38432   0.46282   0.37947   0.00000  Uiso   1.00
H36    H     0.60978   0.30102   0.36546   0.00000  Uiso   1.00
H37    H     0.18198   0.74588   0.24218   0.00000  Uiso   1.00
O38    O     0.21859   0.30852   0.40987   0.00000  Uiso   1.00
O39    O     0.51438   0.40820   0.39149   0.00000  Uiso   1.00
O40    O     0.95311   0.67987   0.22974   0.00000  Uiso   1.00
N41    N     0.13356   0.42908   0.39873   0.00000  Uiso   1.00
N42    N     0.34436   0.21273   0.38564   0.00000  Uiso   1.00
N43    N     0.94441   0.69376   0.27037   0.00000  Uiso   1.00
N44    N     0.30936   0.46969   0.38296   0.00000  Uiso   1.00
N45    N     0.52015   0.25335   0.36986   0.00000  Uiso   1.00
N46    N     0.12021   0.73437   0.25460   0.00000  Uiso   1.00
C47    C     0.22512   0.35040   0.01963   0.00000  Uiso   1.00
C48    C     0.31051   0.48102   0.02839   0.00000  Uiso   1.00
C49    C     0.40492   0.51555   0.04454   0.00000  Uiso   1.00
C50    C     0.47255   0.63963   0.05027   0.00000  Uiso   1.00
C51    C     0.60904   0.82930   0.06540   0.00000  Uiso   1.00
C52    C     0.09453   0.32315   0.02478   0.00000  Uiso   1.00
C53    C     0.00734   0.22492   0.03790   0.00000  Uiso   1.00
C54    C     0.89316   0.21610   0.04059   0.00000  Uiso   1.00
C55    C     0.69431   0.16063   0.05011   0.00000  Uiso   1.00
C56    C     0.23758   0.35597   0.99302   0.00000  Uiso   1.00
C57    C     0.27064   0.28531   0.97942   0.00000  Uiso   1.00
C58    C     0.27686   0.30410   0.95537   0.00000  Uiso   1.00
C59    C     0.30012   0.29958   0.91557   0.00000  Uiso   1.00
C60    C     0.17735   0.50937   0.00108   0.00000  Uiso   1.00
C61    C     0.28456   0.56736   0.01831   0.00000  Uiso   1.00
C62    C     0.35207   0.69143   0.02402   0.00000  Uiso   1.00
C63    C     0.44656   0.72613   0.04017   0.00000  Uiso   1.00
C64    C     0.06858   0.40949   0.01471   0.00000  Uiso   1.00
C65    C     0.95450   0.40080   0.01738   0.00000  Uiso   1.00
C66    C     0.86716   0.30260   0.03049   0.00000  Uiso   1.00
C67    C     0.21164   0.44231   0.98294   0.00000  Uiso   1.00
C68    C     0.21780   0.46120   0.95890   0.00000  Uiso   1.00
C69    C     0.25087   0.39060   0.94527   0.00000  Uiso   1.00
H70    H     0.24531   0.28317   0.02748   0.00000  Uiso   1.00
H71    H     0.42496   0.44869   0.05233   0.00000  Uiso   1.00
H72    H     0.02745   0.15811   0.04569   0.00000  Uiso   1.00
H73    H     0.29071   0.21850   0.98723   0.00000  Uiso   1.00
H74    H     0.61266   0.67028   0.07545   0.00000  Uiso   1.00
H75    H     0.77447   0.05755   0.06144   0.00000  Uiso   1.00
H76    H     0.32960   0.18488   0.93816   0.00000  Uiso   1.00
H77    H     0.15715   0.57659   0.99324   0.00000  Uiso   1.00
H78    H     0.33197   0.75822   0.01622   0.00000  Uiso   1.00
H79    H     0.93445   0.46764   0.00958   0.00000  Uiso   1.00
H80    H     0.19771   0.52803   0.95111   0.00000  Uiso   1.00
H81    H     0.53718   0.92150   0.04614   0.00000  Uiso   1.00
H82    H     0.69898   0.30877   0.03213   0.00000  Uiso   1.00
H83    H     0.25412   0.43611   0.90884   0.00000  Uiso   1.00
O84    O     0.69148   0.91007   0.07654   0.00000  Uiso   1.00
O85    O     0.59180   0.10618   0.05815   0.00000  Uiso   1.00
O86    O     0.32013   0.27325   0.89640   0.00000  Uiso   1.00
N87    N     0.57092   0.70448   0.06540   0.00000  Uiso   1.00
N88    N     0.78727   0.13163   0.05230   0.00000  Uiso   1.00
N89    N     0.30624   0.25065   0.93704   0.00000  Uiso   1.00
N90    N     0.53031   0.83966   0.04963   0.00000  Uiso   1.00
N91    N     0.74665   0.26681   0.03653   0.00000  Uiso   1.00
N92    N     0.26563   0.38583   0.92127   0.00000  Uiso   1.00
C93    C     0.64960   0.87472   0.68630   0.00000  Uiso   1.00
C94    C     0.51898   0.82949   0.69505   0.00000  Uiso   1.00
C95    C     0.48445   0.88937   0.71120   0.00000  Uiso   1.00
C96    C     0.36037   0.83292   0.71693   0.00000  Uiso   1.00
C97    C     0.17070   0.77974   0.73207   0.00000  Uiso   1.00
C98    C     0.67685   0.77138   0.69145   0.00000  Uiso   1.00
C99    C     0.77508   0.78242   0.70457   0.00000  Uiso   1.00
C100   C     0.78390   0.67706   0.70725   0.00000  Uiso   1.00
C101   C     0.83937   0.53369   0.71678   0.00000  Uiso   1.00
C102   C     0.64403   0.88161   0.65968   0.00000  Uiso   1.00
C103   C     0.71469   0.98533   0.64609   0.00000  Uiso   1.00
C104   C     0.69590   0.97276   0.62203   0.00000  Uiso   1.00
C105   C     0.70042   0.00054   0.58224   0.00000  Uiso   1.00
C106   C     0.49063   0.66799   0.66775   0.00000  Uiso   1.00
C107   C     0.43264   0.71719   0.68498   0.00000  Uiso   1.00
C108   C     0.30857   0.66064   0.69068   0.00000  Uiso   1.00
C109   C     0.27387   0.72043   0.70684   0.00000  Uiso   1.00
C110   C     0.59051   0.65909   0.68138   0.00000  Uiso   1.00
C111   C     0.59920   0.55369   0.68404   0.00000  Uiso   1.00
C112   C     0.69740   0.56456   0.69716   0.00000  Uiso   1.00
C113   C     0.55769   0.76932   0.64961   0.00000  Uiso   1.00
C114   C     0.53880   0.75660   0.62557   0.00000  Uiso   1.00
C115   C     0.60940   0.86027   0.61194   0.00000  Uiso   1.00
H116   H     0.71683   0.96214   0.69414   0.00000  Uiso   1.00
H117   H     0.55131   0.97627   0.71900   0.00000  Uiso   1.00
H118   H     0.84189   0.86933   0.71236   0.00000  Uiso   1.00
H119   H     0.78150   0.07221   0.65389   0.00000  Uiso   1.00
H120   H     0.32972   0.94238   0.74212   0.00000  Uiso   1.00
H121   H     0.94245   0.71692   0.72811   0.00000  Uiso   1.00
H122   H     0.81512   0.14472   0.60482   0.00000  Uiso   1.00
H123   H     0.42341   0.58056   0.65991   0.00000  Uiso   1.00
H124   H     0.24178   0.57374   0.68288   0.00000  Uiso   1.00
H125   H     0.53236   0.46681   0.67624   0.00000  Uiso   1.00
H126   H     0.47197   0.66969   0.61778   0.00000  Uiso   1.00
H127   H     0.07850   0.61568   0.71281   0.00000  Uiso   1.00
H128   H     0.69123   0.39022   0.69880   0.00000  Uiso   1.00
H129   H     0.56389   0.81802   0.57551   0.00000  Uiso   1.00
O130   O     0.08993   0.78141   0.74320   0.00000  Uiso   1.00
O131   O     0.89382   0.48562   0.72482   0.00000  Uiso   1.00
O132   O     0.72675   0.04689   0.56307   0.00000  Uiso   1.00
N133   N     0.29552   0.86644   0.73206   0.00000  Uiso   1.00
N134   N     0.86837   0.65564   0.71897   0.00000  Uiso   1.00
N135   N     0.74935   0.05559   0.60371   0.00000  Uiso   1.00
N136   N     0.16034   0.69064   0.71629   0.00000  Uiso   1.00
N137   N     0.73319   0.47985   0.70320   0.00000  Uiso   1.00
N138   N     0.61417   0.87979   0.58793   0.00000  Uiso   1.00
C139   C     0.87472   0.22512   0.85297   0.00000  Uiso   1.00
C140   C     0.82949   0.31051   0.86172   0.00000  Uiso   1.00
C141   C     0.88937   0.40492   0.87787   0.00000  Uiso   1.00
C142   C     0.83292   0.47255   0.88360   0.00000  Uiso   1.00
C143   C     0.77974   0.60904   0.89874   0.00000  Uiso   1.00
C144   C     0.77138   0.09453   0.85812   0.00000  Uiso   1.00
C145   C     0.78242   0.00734   0.87123   0.00000  Uiso   1.00
C146   C     0.67706   0.89316   0.87392   0.00000  Uiso   1.00
C147   C     0.53369   0.69431   0.88345   0.00000  Uiso   1.00
C148   C     0.88161   0.23758   0.82635   0.00000  Uiso   1.00
C149   C     0.98533   0.27064   0.81276   0.00000  Uiso   1.00
C150   C     0.97276   0.27686   0.78870   0.00000  Uiso   1.00
C151   C     0.00054   0.30012   0.74890   0.00000  Uiso   1.00
C152   C     0.66799   0.17735   0.83442   0.00000  Uiso   1.00
C153   C     0.71719   0.28456   0.85165   0.00000  Uiso   1.00
C154   C     0.66064   0.35207   0.85735   0.00000  Uiso   1.00
C155   C     0.72043   0.44656   0.87350   0.00000  Uiso   1.00
C156   C     0.65909   0.06858   0.84804   0.00000  Uiso   1.00
C157   C     0.55369   0.95450   0.85071   0.00000  Uiso   1.00
C158   C     0.56456   0.86716   0.86383   0.00000  Uiso   1.00
C159   C     0.76932   0.21164   0.81628   0.00000  Uiso   1.00
C160   C     0.75660   0.21780   0.79223   0.00000  Uiso   1.00
C161   C     0.86027   0.25087   0.77861   0.00000  Uiso   1.00
H162   H     0.96214   0.24531   0.86081   0.00000  Uiso   1.00
H163   H     0.97627   0.42496   0.88567   0.00000  Uiso   1.00
H164   H     0.86933   0.02745   0.87902   0.00000  Uiso   1.00
H165   H     0.07221   0.29071   0.82056   0.00000  Uiso   1.00
H166   H     0.94238   0.61266   0.90879   0.00000  Uiso   1.00
H167   H     0.71692   0.77447   0.89478   0.00000  Uiso   1.00
H168   H     0.14472   0.32960   0.77149   0.00000  Uiso   1.00
H169   H     0.58056   0.15715   0.82657   0.00000  Uiso   1.00
H170   H     0.57374   0.33197   0.84955   0.00000  Uiso   1.00
H171   H     0.46681   0.93445   0.84291   0.00000  Uiso   1.00
H172   H     0.66969   0.19771   0.78444   0.00000  Uiso   1.00
H173   H     0.61568   0.53718   0.87947   0.00000  Uiso   1.00
H174   H     0.39022   0.69898   0.86546   0.00000  Uiso   1.00
H175   H     0.81802   0.25412   0.74218   0.00000  Uiso   1.00
O176   O     0.78141   0.69148   0.90987   0.00000  Uiso   1.00
O177   O     0.48562   0.59180   0.89149   0.00000  Uiso   1.00
O178   O     0.04689   0.32013   0.72974   0.00000  Uiso   1.00
N179   N     0.86644   0.57092   0.89873   0.00000  Uiso   1.00
N180   N     0.65564   0.78727   0.88564   0.00000  Uiso   1.00
N181   N     0.05559   0.30624   0.77037   0.00000  Uiso   1.00
N182   N     0.69064   0.53031   0.88296   0.00000  Uiso   1.00
N183   N     0.47985   0.74665   0.86986   0.00000  Uiso   1.00
N184   N     0.87979   0.26563   0.75460   0.00000  Uiso   1.00
C185   C     0.77488   0.64960   0.51963   0.00000  Uiso   1.00
C186   C     0.68949   0.51898   0.52839   0.00000  Uiso   1.00
C187   C     0.59508   0.48445   0.54454   0.00000  Uiso   1.00
C188   C     0.52745   0.36037   0.55027   0.00000  Uiso   1.00
C189   C     0.39096   0.17070   0.56540   0.00000  Uiso   1.00
C190   C     0.90547   0.67685   0.52478   0.00000  Uiso   1.00
C191   C     0.99266   0.77508   0.53790   0.00000  Uiso   1.00
C192   C     0.10684   0.78390   0.54059   0.00000  Uiso   1.00
C193   C     0.30569   0.83937   0.55011   0.00000  Uiso   1.00
C194   C     0.76242   0.64403   0.49302   0.00000  Uiso   1.00
C195   C     0.72936   0.71469   0.47942   0.00000  Uiso   1.00
C196   C     0.72314   0.69590   0.45537   0.00000  Uiso   1.00
C197   C     0.69988   0.70042   0.41557   0.00000  Uiso   1.00
C198   C     0.82265   0.49063   0.50108   0.00000  Uiso   1.00
C199   C     0.71544   0.43264   0.51831   0.00000  Uiso   1.00
C200   C     0.64793   0.30857   0.52402   0.00000  Uiso   1.00
C201   C     0.55344   0.27387   0.54017   0.00000  Uiso   1.00
C202   C     0.93142   0.59051   0.51471   0.00000  Uiso   1.00
C203   C     0.04550   0.59920   0.51738   0.00000  Uiso   1.00
C204   C     0.13284   0.69740   0.53049   0.00000  Uiso   1.00
C205   C     0.78836   0.55769   0.48294   0.00000  Uiso   1.00
C206   C     0.78220   0.53880   0.45890   0.00000  Uiso   1.00
C207   C     0.74913   0.60940   0.44527   0.00000  Uiso   1.00
H208   H     0.75469   0.71683   0.52748   0.00000  Uiso   1.00
H209   H     0.57504   0.55131   0.55233   0.00000  Uiso   1.00
H210   H     0.97255   0.84189   0.54569   0.00000  Uiso   1.00
H211   H     0.70929   0.78150   0.48723   0.00000  Uiso   1.00
H212   H     0.38734   0.32972   0.57545   0.00000  Uiso   1.00
H213   H     0.22553   0.94245   0.56144   0.00000  Uiso   1.00
H214   H     0.67040   0.81512   0.43816   0.00000  Uiso   1.00
H215   H     0.84285   0.42341   0.49324   0.00000  Uiso   1.00
H216   H     0.66803   0.24178   0.51622   0.00000  Uiso   1.00
H217   H     0.06555   0.53236   0.50958   0.00000  Uiso   1.00
H218   H     0.80229   0.47197   0.45111   0.00000  Uiso   1.00
H219   H     0.46282   0.07850   0.54614   0.00000  Uiso   1.00
H220   H     0.30102   0.69123   0.53213   0.00000  Uiso   1.00
H221   H     0.74588   0.56389   0.40884   0.00000  Uiso   1.00
O222   O     0.30852   0.08993   0.57654   0.00000  Uiso   1.00
O223   O     0.40820   0.89382   0.55815   0.00000  Uiso   1.00
O224   O     0.67987   0.72675   0.39640   0.00000  Uiso   1.00
N225   N     0.42908   0.29552   0.56540   0.00000  Uiso   1.00
N226   N     0.21273   0.86837   0.55230   0.00000  Uiso   1.00
N227   N     0.69376   0.74935   0.43704   0.00000  Uiso   1.00
N228   N     0.46969   0.16034   0.54963   0.00000  Uiso   1.00
N229   N     0.25335   0.73319   0.53653   0.00000  Uiso   1.00
N230   N     0.73437   0.61417   0.42127   0.00000  Uiso   1.00
C231   C     0.35040   0.12528   0.18630   0.00000  Uiso   1.00
C232   C     0.48102   0.17051   0.19505   0.00000  Uiso   1.00
C233   C     0.51555   0.11063   0.21120   0.00000  Uiso   1.00
C234   C     0.63963   0.16708   0.21693   0.00000  Uiso   1.00
C235   C     0.82930   0.22026   0.23207   0.00000  Uiso   1.00
C236   C     0.32315   0.22862   0.19145   0.00000  Uiso   1.00
C237   C     0.22492   0.21758   0.20457   0.00000  Uiso   1.00
C238   C     0.21610   0.32294   0.20725   0.00000  Uiso   1.00
C239   C     0.16063   0.46631   0.21678   0.00000  Uiso   1.00
C240   C     0.35597   0.11839   0.15968   0.00000  Uiso   1.00
C241   C     0.28531   0.01467   0.14609   0.00000  Uiso   1.00
C242   C     0.30410   0.02724   0.12203   0.00000  Uiso   1.00
C243   C     0.29958   0.99946   0.08224   0.00000  Uiso   1.00
C244   C     0.50937   0.33201   0.16775   0.00000  Uiso   1.00
C245   C     0.56736   0.28281   0.18498   0.00000  Uiso   1.00
C246   C     0.69143   0.33936   0.19068   0.00000  Uiso   1.00
C247   C     0.72613   0.27957   0.20684   0.00000  Uiso   1.00
C248   C     0.40949   0.34091   0.18138   0.00000  Uiso   1.00
C249   C     0.40080   0.44631   0.18404   0.00000  Uiso   1.00
C250   C     0.30260   0.43544   0.19716   0.00000  Uiso   1.00
C251   C     0.44231   0.23068   0.14961   0.00000  Uiso   1.00
C252   C     0.46120   0.24340   0.12557   0.00000  Uiso   1.00
C253   C     0.39060   0.13973   0.11194   0.00000  Uiso   1.00
H254   H     0.28317   0.03786   0.19414   0.00000  Uiso   1.00
H255   H     0.44869   0.02373   0.21900   0.00000  Uiso   1.00
H256   H     0.15811   0.13067   0.21236   0.00000  Uiso   1.00
H257   H     0.21850   0.92779   0.15389   0.00000  Uiso   1.00
H258   H     0.67028   0.05762   0.24212   0.00000  Uiso   1.00
H259   H     0.05755   0.28308   0.22811   0.00000  Uiso   1.00
H260   H     0.18488   0.85528   0.10482   0.00000  Uiso   1.00
H261   H     0.57659   0.41944   0.15991   0.00000  Uiso   1.00
H262   H     0.75822   0.42626   0.18288   0.00000  Uiso   1.00
H263   H     0.46764   0.53319   0.17624   0.00000  Uiso   1.00
H264   H     0.52803   0.33031   0.11778   0.00000  Uiso   1.00
H265   H     0.92150   0.38432   0.21281   0.00000  Uiso   1.00
H266   H     0.30877   0.60978   0.19880   0.00000  Uiso   1.00
H267   H     0.43611   0.18198   0.07551   0.00000  Uiso   1.00
O268   O     0.91007   0.21859   0.24320   0.00000  Uiso   1.00
O269   O     0.10618   0.51438   0.22482   0.00000  Uiso   1.00
O270   O     0.27325   0.95311   0.06307   0.00000  Uiso   1.00
N271   N     0.70448   0.13356   0.23206   0.00000  Uiso   1.00
N272   N     0.13163   0.34436   0.21897   0.00000  Uiso   1.00
N273   N     0.25065   0.94441   0.10371   0.00000  Uiso   1.00
N274   N     0.83966   0.30936   0.21629   0.00000  Uiso   1.00
N275   N     0.26681   0.52015   0.20320   0.00000  Uiso   1.00
N276   N     0.38583   0.12021   0.08793   0.00000  Uiso   1.00
C277   C     0.77488   0.12528   0.31370   0.00000  Uiso   1.00
C278   C     0.68949   0.17051   0.30495   0.00000  Uiso   1.00
C279   C     0.59508   0.11063   0.28880   0.00000  Uiso   1.00
C280   C     0.52745   0.16708   0.28307   0.00000  Uiso   1.00
C281   C     0.39096   0.22026   0.26793   0.00000  Uiso   1.00
C282   C     0.90547   0.22862   0.30855   0.00000  Uiso   1.00
C283   C     0.99266   0.21758   0.29543   0.00000  Uiso   1.00
C284   C     0.10684   0.32294   0.29275   0.00000  Uiso   1.00
C285   C     0.30569   0.46631   0.28322   0.00000  Uiso   1.00
C286   C     0.76242   0.11839   0.34032   0.00000  Uiso   1.00
C287   C     0.72936   0.01467   0.35391   0.00000  Uiso   1.00
C288   C     0.72314   0.02724   0.37797   0.00000  Uiso   1.00
C289   C     0.69988   0.99946   0.41776   0.00000  Uiso   1.00
C290   C     0.82265   0.33201   0.33225   0.00000  Uiso   1.00
C291   C     0.71544   0.28281   0.31502   0.00000  Uiso   1.00
C292   C     0.64793   0.33936   0.30932   0.00000  Uiso   1.00
C293   C     0.55344   0.27957   0.29316   0.00000  Uiso   1.00
C294   C     0.93142   0.34091   0.31862   0.00000  Uiso   1.00
C295   C     0.04550   0.44631   0.31596   0.00000  Uiso   1.00
C296   C     0.13284   0.43544   0.30284   0.00000  Uiso   1.00
C297   C     0.78836   0.23068   0.35039   0.00000  Uiso   1.00
C298   C     0.78220   0.24340   0.37443   0.00000  Uiso   1.00
C299   C     0.74913   0.13973   0.38806   0.00000  Uiso   1.00
H300   H     0.75469   0.03786   0.30586   0.00000  Uiso   1.00
H301   H     0.57504   0.02373   0.28100   0.00000  Uiso   1.00
H302   H     0.97255   0.13067   0.28764   0.00000  Uiso   1.00
H303   H     0.70929   0.92779   0.34611   0.00000  Uiso   1.00
H304   H     0.38734   0.05762   0.25788   0.00000  Uiso   1.00
H305   H     0.22553   0.28308   0.27189   0.00000  Uiso   1.00
H306   H     0.67040   0.85528   0.39518   0.00000  Uiso   1.00
H307   H     0.84285   0.41944   0.34009   0.00000  Uiso   1.00
H308   H     0.66803   0.42626   0.31712   0.00000  Uiso   1.00
H309   H     0.06555   0.53319   0.32376   0.00000  Uiso   1.00
H310   H     0.80229   0.33031   0.38222   0.00000  Uiso   1.00
H311   H     0.46282   0.38432   0.28719   0.00000  Uiso   1.00
H312   H     0.30102   0.60978   0.30120   0.00000  Uiso   1.00
H313   H     0.74588   0.18198   0.42449   0.00000  Uiso   1.00
O314   O     0.30852   0.21859   0.25680   0.00000  Uiso   1.00
O315   O     0.40820   0.51438   0.27518   0.00000  Uiso   1.00
O316   O     0.67987   0.95311   0.43693   0.00000  Uiso   1.00
N317   N     0.42908   0.13356   0.26794   0.00000  Uiso   1.00
N318   N     0.21273   0.34436   0.28103   0.00000  Uiso   1.00
N319   N     0.69376   0.94441   0.39629   0.00000  Uiso   1.00
N320   N     0.46969   0.30936   0.28371   0.00000  Uiso   1.00
N321   N     0.25335   0.52015   0.29680   0.00000  Uiso   1.00
N322   N     0.73437   0.12021   0.41207   0.00000  Uiso   1.00
C323   C     0.35040   0.22512   0.64703   0.00000  Uiso   1.00
C324   C     0.48102   0.31051   0.63828   0.00000  Uiso   1.00
C325   C     0.51555   0.40492   0.62213   0.00000  Uiso   1.00
C326   C     0.63963   0.47255   0.61640   0.00000  Uiso   1.00
C327   C     0.82930   0.60904   0.60126   0.00000  Uiso   1.00
C328   C     0.32315   0.09453   0.64188   0.00000  Uiso   1.00
C329   C     0.22492   0.00734   0.62877   0.00000  Uiso   1.00
C330   C     0.21610   0.89316   0.62608   0.00000  Uiso   1.00
C331   C     0.16063   0.69431   0.61655   0.00000  Uiso   1.00
C332   C     0.35597   0.23758   0.67365   0.00000  Uiso   1.00
C333   C     0.28531   0.27064   0.68724   0.00000  Uiso   1.00
C334   C     0.30410   0.27686   0.71130   0.00000  Uiso   1.00
C335   C     0.29958   0.30012   0.75110   0.00000  Uiso   1.00
C336   C     0.50937   0.17735   0.66558   0.00000  Uiso   1.00
C337   C     0.56736   0.28456   0.64835   0.00000  Uiso   1.00
C338   C     0.69143   0.35207   0.64265   0.00000  Uiso   1.00
C339   C     0.72613   0.44656   0.62650   0.00000  Uiso   1.00
C340   C     0.40949   0.06858   0.65196   0.00000  Uiso   1.00
C341   C     0.40080   0.95450   0.64929   0.00000  Uiso   1.00
C342   C     0.30260   0.86716   0.63617   0.00000  Uiso   1.00
C343   C     0.44231   0.21164   0.68372   0.00000  Uiso   1.00
C344   C     0.46120   0.21780   0.70777   0.00000  Uiso   1.00
C345   C     0.39060   0.25087   0.72139   0.00000  Uiso   1.00
H346   H     0.28317   0.24531   0.63919   0.00000  Uiso   1.00
H347   H     0.44869   0.42496   0.61433   0.00000  Uiso   1.00
H348   H     0.15811   0.02745   0.62098   0.00000  Uiso   1.00
H349   H     0.21850   0.29071   0.67944   0.00000  Uiso   1.00
H350   H     0.67028   0.61266   0.59121   0.00000  Uiso   1.00
H351   H     0.05755   0.77447   0.60522   0.00000  Uiso   1.00
H352   H     0.18488   0.32960   0.72851   0.00000  Uiso   1.00
H353   H     0.57659   0.15715   0.67343   0.00000  Uiso   1.00
H354   H     0.75822   0.33197   0.65045   0.00000  Uiso   1.00
H355   H     0.46764   0.93445   0.65709   0.00000  Uiso   1.00
H356   H     0.52803   0.19771   0.71556   0.00000  Uiso   1.00
H357   H     0.92150   0.53718   0.62053   0.00000  Uiso   1.00
H358   H     0.30877   0.69898   0.63454   0.00000  Uiso   1.00
H359   H     0.43611   0.25412   0.75782   0.00000  Uiso   1.00
O360   O     0.91007   0.69148   0.59013   0.00000  Uiso   1.00
O361   O     0.10618   0.59180   0.60851   0.00000  Uiso   1.00
O362   O     0.27325   0.32013   0.77026   0.00000  Uiso   1.00
N363   N     0.70448   0.57092   0.60127   0.00000  Uiso   1.00
N364   N     0.13163   0.78727   0.61436   0.00000  Uiso   1.00
N365   N     0.25065   0.30624   0.72963   0.00000  Uiso   1.00
N366   N     0.83966   0.53031   0.61704   0.00000  Uiso   1.00
N367   N     0.26681   0.74665   0.63014   0.00000  Uiso   1.00
N368   N     0.38583   0.26563   0.74540   0.00000  Uiso   1.00
C369   C     0.87472   0.64960   0.98037   0.00000  Uiso   1.00
C370   C     0.82949   0.51898   0.97161   0.00000  Uiso   1.00
C371   C     0.88937   0.48445   0.95546   0.00000  Uiso   1.00
C372   C     0.83292   0.36037   0.94973   0.00000  Uiso   1.00
C373   C     0.77974   0.17070   0.93460   0.00000  Uiso   1.00
C374   C     0.77138   0.67685   0.97522   0.00000  Uiso   1.00
C375   C     0.78242   0.77508   0.96210   0.00000  Uiso   1.00
C376   C     0.67706   0.78390   0.95941   0.00000  Uiso   1.00
C377   C     0.53369   0.83937   0.94989   0.00000  Uiso   1.00
C378   C     0.88161   0.64403   0.00698   0.00000  Uiso   1.00
C379   C     0.98533   0.71469   0.02058   0.00000  Uiso   1.00
C380   C     0.97276   0.69590   0.04463   0.00000  Uiso   1.00
C381   C     0.00054   0.70042   0.08443   0.00000  Uiso   1.00
C382   C     0.66799   0.49063   0.99892   0.00000  Uiso   1.00
C383   C     0.71719   0.43264   0.98169   0.00000  Uiso   1.00
C384   C     0.66064   0.30857   0.97598   0.00000  Uiso   1.00
C385   C     0.72043   0.27387   0.95983   0.00000  Uiso   1.00
C386   C     0.65909   0.59051   0.98529   0.00000  Uiso   1.00
C387   C     0.55369   0.59920   0.98262   0.00000  Uiso   1.00
C388   C     0.56456   0.69740   0.96951   0.00000  Uiso   1.00
C389   C     0.76932   0.55769   0.01706   0.00000  Uiso   1.00
C390   C     0.75660   0.53880   0.04110   0.00000  Uiso   1.00
C391   C     0.86027   0.60940   0.05473   0.00000  Uiso   1.00
H392   H     0.96214   0.71683   0.97252   0.00000  Uiso   1.00
H393   H     0.97627   0.55131   0.94767   0.00000  Uiso   1.00
H394   H     0.86933   0.84189   0.95431   0.00000  Uiso   1.00
H395   H     0.07221   0.78150   0.01277   0.00000  Uiso   1.00
H396   H     0.94238   0.32972   0.92455   0.00000  Uiso   1.00
H397   H     0.71692   0.94245   0.93856   0.00000  Uiso   1.00
H398   H     0.14472   0.81512   0.06184   0.00000  Uiso   1.00
H399   H     0.58056   0.42341   0.00676   0.00000  Uiso   1.00
H400   H     0.57374   0.24178   0.98378   0.00000  Uiso   1.00
H401   H     0.46681   0.53236   0.99042   0.00000  Uiso   1.00
H402   H     0.66969   0.47197   0.04889   0.00000  Uiso   1.00
H403   H     0.61568   0.07850   0.95386   0.00000  Uiso   1.00
H404   H     0.39022   0.69123   0.96787   0.00000  Uiso   1.00
H405   H     0.81802   0.56389   0.09116   0.00000  Uiso   1.00
O406   O     0.78141   0.08993   0.92346   0.00000  Uiso   1.00
O407   O     0.48562   0.89382   0.94185   0.00000  Uiso   1.00
O408   O     0.04689   0.72675   0.10360   0.00000  Uiso   1.00
N409   N     0.86644   0.29552   0.93460   0.00000  Uiso   1.00
N410   N     0.65564   0.86837   0.94770   0.00000  Uiso   1.00
N411   N     0.05559   0.74935   0.06296   0.00000  Uiso   1.00
N412   N     0.69064   0.16034   0.95037   0.00000  Uiso   1.00
N413   N     0.47985   0.73319   0.96347   0.00000  Uiso   1.00
N414   N     0.87979   0.61417   0.07873   0.00000  Uiso   1.00
C415   C     0.22512   0.87472   0.81370   0.00000  Uiso   1.00
C416   C     0.31051   0.82949   0.80495   0.00000  Uiso   1.00
C417   C     0.40492   0.88937   0.78880   0.00000  Uiso   1.00
C418   C     0.47255   0.83292   0.78307   0.00000  Uiso   1.00
C419   C     0.60904   0.77974   0.76793   0.00000  Uiso   1.00
C420   C     0.09453   0.77138   0.80855   0.00000  Uiso   1.00
C421   C     0.00734   0.78242   0.79543   0.00000  Uiso   1.00
C422   C     0.89316   0.67706   0.79275   0.00000  Uiso   1.00
C423   C     0.69431   0.53369   0.78322   0.00000  Uiso   1.00
C424   C     0.23758   0.88161   0.84032   0.00000  Uiso   1.00
C425   C     0.27064   0.98533   0.85391   0.00000  Uiso   1.00
C426   C     0.27686   0.97276   0.87797   0.00000  Uiso   1.00
C427   C     0.30012   0.00054   0.91776   0.00000  Uiso   1.00
C428   C     0.17735   0.66799   0.83225   0.00000  Uiso   1.00
C429   C     0.28456   0.71719   0.81502   0.00000  Uiso   1.00
C430   C     0.35207   0.66064   0.80932   0.00000  Uiso   1.00
C431   C     0.44656   0.72043   0.79316   0.00000  Uiso   1.00
C432   C     0.06858   0.65909   0.81862   0.00000  Uiso   1.00
C433   C     0.95450   0.55369   0.81596   0.00000  Uiso   1.00
C434   C     0.86716   0.56456   0.80284   0.00000  Uiso   1.00
C435   C     0.21164   0.76932   0.85039   0.00000  Uiso   1.00
C436   C     0.21780   0.75660   0.87443   0.00000  Uiso   1.00
C437   C     0.25087   0.86027   0.88806   0.00000  Uiso   1.00
H438   H     0.24531   0.96214   0.80586   0.00000  Uiso   1.00
H439   H     0.42496   0.97627   0.78100   0.00000  Uiso   1.00
H440   H     0.02745   0.86933   0.78764   0.00000  Uiso   1.00
H441   H     0.29071   0.07221   0.84611   0.00000  Uiso   1.00
H442   H     0.61266   0.94238   0.75788   0.00000  Uiso   1.00
H443   H     0.77447   0.71692   0.77189   0.00000  Uiso   1.00
H444   H     0.32960   0.14472   0.89518   0.00000  Uiso   1.00
H445   H     0.15715   0.58056   0.84009   0.00000  Uiso   1.00
H446   H     0.33197   0.57374   0.81712   0.00000  Uiso   1.00
H447   H     0.93445   0.46681   0.82376   0.00000  Uiso   1.00
H448   H     0.19771   0.66969   0.88222   0.00000  Uiso   1.00
H449   H     0.53718   0.61568   0.78719   0.00000  Uiso   1.00
H450   H     0.69898   0.39022   0.80120   0.00000  Uiso   1.00
H451   H     0.25412   0.81802   0.92449   0.00000  Uiso   1.00
O452   O     0.69148   0.78141   0.75680   0.00000  Uiso   1.00
O453   O     0.59180   0.48562   0.77518   0.00000  Uiso   1.00
O454   O     0.32013   0.04689   0.93693   0.00000  Uiso   1.00
N455   N     0.57092   0.86644   0.76794   0.00000  Uiso   1.00
N456   N     0.78727   0.65564   0.78103   0.00000  Uiso   1.00
N457   N     0.30624   0.05559   0.89629   0.00000  Uiso   1.00
N458   N     0.53031   0.69064   0.78371   0.00000  Uiso   1.00
N459   N     0.74665   0.47985   0.79680   0.00000  Uiso   1.00
N460   N     0.26563   0.87979   0.91207   0.00000  Uiso   1.00
C461   C     0.64960   0.77488   0.14703   0.00000  Uiso   1.00
C462   C     0.51898   0.68949   0.13828   0.00000  Uiso   1.00
C463   C     0.48445   0.59508   0.12213   0.00000  Uiso   1.00
C464   C     0.36037   0.52745   0.11640   0.00000  Uiso   1.00
C465   C     0.17070   0.39096   0.10126   0.00000  Uiso   1.00
C466   C     0.67685   0.90547   0.14188   0.00000  Uiso   1.00
C467   C     0.77508   0.99266   0.12877   0.00000  Uiso   1.00
C468   C     0.78390   0.10684   0.12608   0.00000  Uiso   1.00
C469   C     0.83937   0.30569   0.11655   0.00000  Uiso   1.00
C470   C     0.64403   0.76242   0.17365   0.00000  Uiso   1.00
C471   C     0.71469   0.72936   0.18724   0.00000  Uiso   1.00
C472   C     0.69590   0.72314   0.21130   0.00000  Uiso   1.00
C473   C     0.70042   0.69988   0.25110   0.00000  Uiso   1.00
C474   C     0.49063   0.82265   0.16558   0.00000  Uiso   1.00
C475   C     0.43264   0.71544   0.14835   0.00000  Uiso   1.00
C476   C     0.30857   0.64793   0.14265   0.00000  Uiso   1.00
C477   C     0.27387   0.55344   0.12650   0.00000  Uiso   1.00
C478   C     0.59051   0.93142   0.15196   0.00000  Uiso   1.00
C479   C     0.59920   0.04550   0.14929   0.00000  Uiso   1.00
C480   C     0.69740   0.13284   0.13617   0.00000  Uiso   1.00
C481   C     0.55769   0.78836   0.18372   0.00000  Uiso   1.00
C482   C     0.53880   0.78220   0.20777   0.00000  Uiso   1.00
C483   C     0.60940   0.74913   0.22139   0.00000  Uiso   1.00
H484   H     0.71683   0.75469   0.13919   0.00000  Uiso   1.00
H485   H     0.55131   0.57504   0.11433   0.00000  Uiso   1.00
H486   H     0.84189   0.97255   0.12098   0.00000  Uiso   1.00
H487   H     0.78150   0.70929   0.17944   0.00000  Uiso   1.00
H488   H     0.32972   0.38734   0.09121   0.00000  Uiso   1.00
H489   H     0.94245   0.22553   0.10522   0.00000  Uiso   1.00
H490   H     0.81512   0.67040   0.22851   0.00000  Uiso   1.00
H491   H     0.42341   0.84285   0.17343   0.00000  Uiso   1.00
H492   H     0.24178   0.66803   0.15045   0.00000  Uiso   1.00
H493   H     0.53236   0.06555   0.15709   0.00000  Uiso   1.00
H494   H     0.47197   0.80229   0.21556   0.00000  Uiso   1.00
H495   H     0.07850   0.46282   0.12053   0.00000  Uiso   1.00
H496   H     0.69123   0.30102   0.13454   0.00000  Uiso   1.00
H497   H     0.56389   0.74588   0.25782   0.00000  Uiso   1.00
O498   O     0.08993   0.30852   0.09013   0.00000  Uiso   1.00
O499   O     0.89382   0.40820   0.10851   0.00000  Uiso   1.00
O500   O     0.72675   0.67987   0.27026   0.00000  Uiso   1.00
N501   N     0.29552   0.42908   0.10127   0.00000  Uiso   1.00
N502   N     0.86837   0.21273   0.11436   0.00000  Uiso   1.00
N503   N     0.74935   0.69376   0.22963   0.00000  Uiso   1.00
N504   N     0.16034   0.46969   0.11704   0.00000  Uiso   1.00
N505   N     0.73319   0.25335   0.13014   0.00000  Uiso   1.00
N506   N     0.61417   0.73437   0.24540   0.00000  Uiso   1.00
C507   C     0.12528   0.35040   0.48037   0.00000  Uiso   1.00
C508   C     0.17051   0.48102   0.47161   0.00000  Uiso   1.00
C509   C     0.11063   0.51555   0.45546   0.00000  Uiso   1.00
C510   C     0.16708   0.63963   0.44973   0.00000  Uiso   1.00
C511   C     0.22026   0.82930   0.43460   0.00000  Uiso   1.00
C512   C     0.22862   0.32315   0.47522   0.00000  Uiso   1.00
C513   C     0.21758   0.22492   0.46210   0.00000  Uiso   1.00
C514   C     0.32294   0.21610   0.45941   0.00000  Uiso   1.00
C515   C     0.46631   0.16063   0.44989   0.00000  Uiso   1.00
C516   C     0.11839   0.35597   0.50698   0.00000  Uiso   1.00
C517   C     0.01467   0.28531   0.52058   0.00000  Uiso   1.00
C518   C     0.02724   0.30410   0.54463   0.00000  Uiso   1.00
C519   C     0.99946   0.29958   0.58443   0.00000  Uiso   1.00
C520   C     0.33201   0.50937   0.49892   0.00000  Uiso   1.00
C521   C     0.28281   0.56736   0.48169   0.00000  Uiso   1.00
C522   C     0.33936   0.69143   0.47598   0.00000  Uiso   1.00
C523   C     0.27957   0.72613   0.45983   0.00000  Uiso   1.00
C524   C     0.34091   0.40949   0.48529   0.00000  Uiso   1.00
C525   C     0.44631   0.40080   0.48262   0.00000  Uiso   1.00
C526   C     0.43544   0.30260   0.46951   0.00000  Uiso   1.00
C527   C     0.23068   0.44231   0.51706   0.00000  Uiso   1.00
C528   C     0.24340   0.46120   0.54110   0.00000  Uiso   1.00
C529   C     0.13973   0.39060   0.55473   0.00000  Uiso   1.00
H530   H     0.03786   0.28317   0.47252   0.00000  Uiso   1.00
H531   H     0.02373   0.44869   0.44767   0.00000  Uiso   1.00
H532   H     0.13067   0.15811   0.45431   0.00000  Uiso   1.00
H533   H     0.92779   0.21850   0.51277   0.00000  Uiso   1.00
H534   H     0.05762   0.67028   0.42455   0.00000  Uiso   1.00
H535   H     0.28308   0.05755   0.43856   0.00000  Uiso   1.00
H536   H     0.85528   0.18488   0.56184   0.00000  Uiso   1.00
H537   H     0.41944   0.57659   0.50676   0.00000  Uiso   1.00
H538   H     0.42626   0.75822   0.48378   0.00000  Uiso   1.00
H539   H     0.53319   0.46764   0.49042   0.00000  Uiso   1.00
H540   H     0.33031   0.52803   0.54889   0.00000  Uiso   1.00
H541   H     0.38432   0.92150   0.45386   0.00000  Uiso   1.00
H542   H     0.60978   0.30877   0.46787   0.00000  Uiso   1.00
H543   H     0.18198   0.43611   0.59116   0.00000  Uiso   1.00
O544   O     0.21859   0.91007   0.42346   0.00000  Uiso   1.00
O545   O     0.51438   0.10618   0.44185   0.00000  Uiso   1.00
O546   O     0.95311   0.27325   0.60360   0.00000  Uiso   1.00
N547   N     0.13356   0.70448   0.43460   0.00000  Uiso   1.00
N548   N     0.34436   0.13163   0.44770   0.00000  Uiso   1.00
N549   N     0.94441   0.25065   0.56296   0.00000  Uiso   1.00
N550   N     0.30936   0.83966   0.45037   0.00000  Uiso   1.00
N551   N     0.52015   0.26681   0.46347   0.00000  Uiso   1.00
N552   N     0.12021   0.38583   0.57873   0.00000  Uiso   1.00
