data_job_04116
_audit_creation_date              2018-12-19
_audit_creation_method            'Materials Studio'
_symmetry_space_group_name_H-M    'P1'
_symmetry_Int_Tables_number       1
_symmetry_cell_setting            triclinic
loop_
_symmetry_equiv_pos_as_xyz
  x,y,z
_cell_length_a                    12.2632
_cell_length_b                    12.2632
_cell_length_c                    36.6211
_cell_angle_alpha                 90.0000
_cell_angle_beta                  90.0000
_cell_angle_gamma                 120.0000
loop_
_atom_site_label
_atom_site_type_symbol
_atom_site_fract_x
_atom_site_fract_y
_atom_site_fract_z
_atom_site_U_iso_or_equiv
_atom_site_adp_type
_atom_site_occupancy
C1     C     0.25441   0.21610   0.24628   0.00000  Uiso   1.00
C2     C     0.16368   0.25782   0.23244   0.00000  Uiso   1.00
C3     C     0.06560   0.19194   0.20804   0.00000  Uiso   1.00
C4     C     0.99332   0.24599   0.19878   0.00000  Uiso   1.00
C5     C     0.84868   0.29318   0.17506   0.00000  Uiso   1.00
C6     C     0.38622   0.32287   0.23703   0.00000  Uiso   1.00
C7     C     0.47526   0.31168   0.21650   0.00000  Uiso   1.00
C8     C     0.59032   0.42050   0.21110   0.00000  Uiso   1.00
C9     C     0.79121   0.56866   0.19453   0.00000  Uiso   1.00
C10    C     0.24489   0.21369   0.28782   0.00000  Uiso   1.00
C11    C     0.21512   0.11072   0.30999   0.00000  Uiso   1.00
C12    C     0.21121   0.12762   0.34736   0.00000  Uiso   1.00
C13    C     0.19266   0.10627   0.40963   0.00000  Uiso   1.00
C14    C     0.30046   0.42924   0.27322   0.00000  Uiso   1.00
C15    C     0.18870   0.37358   0.24707   0.00000  Uiso   1.00
C16    C     0.11654   0.42775   0.23785   0.00000  Uiso   1.00
C17    C     0.01837   0.36196   0.21344   0.00000  Uiso   1.00
C18    C     0.41124   0.43863   0.25166   0.00000  Uiso   1.00
C19    C     0.52620   0.54749   0.24630   0.00000  Uiso   1.00
C20    C     0.61538   0.53647   0.22576   0.00000  Uiso   1.00
C21    C     0.26989   0.32945   0.30245   0.00000  Uiso   1.00
C22    C     0.26605   0.34652   0.33979   0.00000  Uiso   1.00
C23    C     0.23627   0.24360   0.36201   0.00000  Uiso   1.00
H24    H     0.23495   0.12598   0.23488   0.00000  Uiso   1.00
H25    H     0.04628   0.10236   0.19672   0.00000  Uiso   1.00
H26    H     0.45588   0.22208   0.20518   0.00000  Uiso   1.00
H27    H     0.19577   0.02115   0.29865   0.00000  Uiso   1.00
H28    H     0.84817   0.12725   0.16086   0.00000  Uiso   1.00
H29    H     0.71184   0.37968   0.17870   0.00000  Uiso   1.00
H30    H     0.16336   0.95597   0.37581   0.00000  Uiso   1.00
H31    H     0.31993   0.51937   0.28461   0.00000  Uiso   1.00
H32    H     0.13592   0.51733   0.24918   0.00000  Uiso   1.00
H33    H     0.54552   0.63705   0.25763   0.00000  Uiso   1.00
H34    H     0.28541   0.43612   0.35111   0.00000  Uiso   1.00
H35    H     0.92093   0.46406   0.20343   0.00000  Uiso   1.00
H36    H     0.78460   0.71648   0.22127   0.00000  Uiso   1.00
H37    H     0.23611   0.29278   0.41838   0.00000  Uiso   1.00
O38    O     0.76200   0.28724   0.15793   0.00000  Uiso   1.00
O39    O     0.89510   0.61840   0.18134   0.00000  Uiso   1.00
O40    O     0.17549   0.06251   0.43994   0.00000  Uiso   1.00
N41    N     0.89053   0.20679   0.17575   0.00000  Uiso   1.00
N42    N     0.69800   0.44279   0.19242   0.00000  Uiso   1.00
N43    N     0.18525   0.04667   0.37670   0.00000  Uiso   1.00
N44    N     0.92968   0.38802   0.19865   0.00000  Uiso   1.00
N45    N     0.73715   0.62403   0.21533   0.00000  Uiso   1.00
N46    N     0.22440   0.22790   0.39961   0.00000  Uiso   1.00
C47    C     0.78390   0.03831   0.91294   0.00000  Uiso   1.00
C48    C     0.74218   0.90587   0.89911   0.00000  Uiso   1.00
C49    C     0.80806   0.87366   0.87471   0.00000  Uiso   1.00
C50    C     0.75401   0.74733   0.86545   0.00000  Uiso   1.00
C51    C     0.70682   0.55550   0.84173   0.00000  Uiso   1.00
C52    C     0.67713   0.06336   0.90370   0.00000  Uiso   1.00
C53    C     0.68832   0.16358   0.88316   0.00000  Uiso   1.00
C54    C     0.57950   0.16982   0.87777   0.00000  Uiso   1.00
C55    C     0.43134   0.22255   0.86120   0.00000  Uiso   1.00
C56    C     0.78631   0.03120   0.95448   0.00000  Uiso   1.00
C57    C     0.88928   0.10440   0.97665   0.00000  Uiso   1.00
C58    C     0.87238   0.08359   0.01402   0.00000  Uiso   1.00
C59    C     0.89373   0.08639   0.07630   0.00000  Uiso   1.00
C60    C     0.57076   0.87122   0.93988   0.00000  Uiso   1.00
C61    C     0.62642   0.81511   0.91374   0.00000  Uiso   1.00
C62    C     0.57225   0.68880   0.90452   0.00000  Uiso   1.00
C63    C     0.63804   0.65641   0.88011   0.00000  Uiso   1.00
C64    C     0.56137   0.97261   0.91833   0.00000  Uiso   1.00
C65    C     0.45251   0.97871   0.91297   0.00000  Uiso   1.00
C66    C     0.46353   0.07891   0.89243   0.00000  Uiso   1.00
C67    C     0.67055   0.94044   0.96912   0.00000  Uiso   1.00
C68    C     0.65348   0.91953   0.00646   0.00000  Uiso   1.00
C69    C     0.75640   0.99268   0.02868   0.00000  Uiso   1.00
H70    H     0.87402   0.10897   0.90155   0.00000  Uiso   1.00
H71    H     0.89764   0.94392   0.86339   0.00000  Uiso   1.00
H72    H     0.77792   0.23380   0.87185   0.00000  Uiso   1.00
H73    H     0.97885   0.17462   0.96532   0.00000  Uiso   1.00
H74    H     0.87275   0.72092   0.82753   0.00000  Uiso   1.00
H75    H     0.62032   0.33216   0.84536   0.00000  Uiso   1.00
H76    H     0.04403   0.20739   0.04247   0.00000  Uiso   1.00
H77    H     0.48063   0.80056   0.95128   0.00000  Uiso   1.00
H78    H     0.48267   0.61859   0.91584   0.00000  Uiso   1.00
H79    H     0.36295   0.90847   0.92430   0.00000  Uiso   1.00
H80    H     0.56388   0.84929   0.01777   0.00000  Uiso   1.00
H81    H     0.53594   0.45687   0.87010   0.00000  Uiso   1.00
H82    H     0.28352   0.06812   0.88794   0.00000  Uiso   1.00
H83    H     0.70722   0.94333   0.08505   0.00000  Uiso   1.00
O84    O     0.71276   0.47476   0.82460   0.00000  Uiso   1.00
O85    O     0.38160   0.27670   0.84801   0.00000  Uiso   1.00
O86    O     0.93749   0.11298   0.10661   0.00000  Uiso   1.00
N87    N     0.79321   0.68375   0.84241   0.00000  Uiso   1.00
N88    N     0.55721   0.25521   0.85909   0.00000  Uiso   1.00
N89    N     0.95333   0.13858   0.04337   0.00000  Uiso   1.00
N90    N     0.61198   0.54166   0.86532   0.00000  Uiso   1.00
N91    N     0.37597   0.11313   0.88199   0.00000  Uiso   1.00
N92    N     0.77210   0.99649   0.06628   0.00000  Uiso   1.00
C93    C     0.96169   0.74559   0.57961   0.00000  Uiso   1.00
C94    C     0.09413   0.83632   0.56577   0.00000  Uiso   1.00
C95    C     0.12634   0.93440   0.54138   0.00000  Uiso   1.00
C96    C     0.25267   0.00668   0.53212   0.00000  Uiso   1.00
C97    C     0.44450   0.15132   0.50839   0.00000  Uiso   1.00
C98    C     0.93664   0.61378   0.57036   0.00000  Uiso   1.00
C99    C     0.83642   0.52474   0.54983   0.00000  Uiso   1.00
C100   C     0.83018   0.40968   0.54444   0.00000  Uiso   1.00
C101   C     0.77745   0.20879   0.52786   0.00000  Uiso   1.00
C102   C     0.96880   0.75511   0.62115   0.00000  Uiso   1.00
C103   C     0.89560   0.78488   0.64332   0.00000  Uiso   1.00
C104   C     0.91641   0.78879   0.68069   0.00000  Uiso   1.00
C105   C     0.91361   0.80734   0.74297   0.00000  Uiso   1.00
C106   C     0.12878   0.69954   0.60655   0.00000  Uiso   1.00
C107   C     0.18489   0.81130   0.58041   0.00000  Uiso   1.00
C108   C     0.31120   0.88346   0.57118   0.00000  Uiso   1.00
C109   C     0.34359   0.98163   0.54678   0.00000  Uiso   1.00
C110   C     0.02739   0.58876   0.58500   0.00000  Uiso   1.00
C111   C     0.02129   0.47380   0.57964   0.00000  Uiso   1.00
C112   C     0.92109   0.38462   0.55910   0.00000  Uiso   1.00
C113   C     0.05956   0.73011   0.63578   0.00000  Uiso   1.00
C114   C     0.08047   0.73395   0.67312   0.00000  Uiso   1.00
C115   C     0.00732   0.76373   0.69535   0.00000  Uiso   1.00
H116   H     0.89103   0.76505   0.56822   0.00000  Uiso   1.00
H117   H     0.05608   0.95372   0.53006   0.00000  Uiso   1.00
H118   H     0.76620   0.54412   0.53851   0.00000  Uiso   1.00
H119   H     0.82538   0.80423   0.63199   0.00000  Uiso   1.00
H120   H     0.27908   0.15183   0.49419   0.00000  Uiso   1.00
H121   H     0.66784   0.28816   0.51203   0.00000  Uiso   1.00
H122   H     0.79261   0.83664   0.70914   0.00000  Uiso   1.00
H123   H     0.19944   0.68007   0.61794   0.00000  Uiso   1.00
H124   H     0.38141   0.86408   0.58251   0.00000  Uiso   1.00
H125   H     0.09153   0.45448   0.59097   0.00000  Uiso   1.00
H126   H     0.15071   0.71459   0.68444   0.00000  Uiso   1.00
H127   H     0.54313   0.07907   0.53676   0.00000  Uiso   1.00
H128   H     0.93188   0.21540   0.55460   0.00000  Uiso   1.00
H129   H     0.05667   0.76389   0.75171   0.00000  Uiso   1.00
O130   O     0.52524   0.23800   0.49126   0.00000  Uiso   1.00
O131   O     0.72330   0.10490   0.51467   0.00000  Uiso   1.00
O132   O     0.88702   0.82451   0.77327   0.00000  Uiso   1.00
N133   N     0.31625   0.10947   0.50908   0.00000  Uiso   1.00
N134   N     0.74479   0.30200   0.52575   0.00000  Uiso   1.00
N135   N     0.86142   0.81475   0.71003   0.00000  Uiso   1.00
N136   N     0.45834   0.07032   0.53199   0.00000  Uiso   1.00
N137   N     0.88687   0.26285   0.54866   0.00000  Uiso   1.00
N138   N     0.00351   0.77560   0.73294   0.00000  Uiso   1.00
C139   C     0.21610   0.25441   0.75372   0.00000  Uiso   1.00
C140   C     0.25782   0.16368   0.76756   0.00000  Uiso   1.00
C141   C     0.19194   0.06560   0.79196   0.00000  Uiso   1.00
C142   C     0.24599   0.99332   0.80122   0.00000  Uiso   1.00
C143   C     0.29318   0.84868   0.82494   0.00000  Uiso   1.00
C144   C     0.32287   0.38622   0.76297   0.00000  Uiso   1.00
C145   C     0.31168   0.47526   0.78350   0.00000  Uiso   1.00
C146   C     0.42050   0.59032   0.78890   0.00000  Uiso   1.00
C147   C     0.56866   0.79121   0.80547   0.00000  Uiso   1.00
C148   C     0.21369   0.24489   0.71218   0.00000  Uiso   1.00
C149   C     0.11072   0.21512   0.69001   0.00000  Uiso   1.00
C150   C     0.12762   0.21121   0.65264   0.00000  Uiso   1.00
C151   C     0.10627   0.19266   0.59037   0.00000  Uiso   1.00
C152   C     0.42924   0.30046   0.72678   0.00000  Uiso   1.00
C153   C     0.37358   0.18870   0.75293   0.00000  Uiso   1.00
C154   C     0.42775   0.11654   0.76215   0.00000  Uiso   1.00
C155   C     0.36196   0.01837   0.78656   0.00000  Uiso   1.00
C156   C     0.43863   0.41124   0.74834   0.00000  Uiso   1.00
C157   C     0.54749   0.52620   0.75370   0.00000  Uiso   1.00
C158   C     0.53647   0.61538   0.77424   0.00000  Uiso   1.00
C159   C     0.32945   0.26989   0.69755   0.00000  Uiso   1.00
C160   C     0.34652   0.26605   0.66021   0.00000  Uiso   1.00
C161   C     0.24360   0.23627   0.63799   0.00000  Uiso   1.00
H162   H     0.12598   0.23495   0.76512   0.00000  Uiso   1.00
H163   H     0.10236   0.04628   0.80328   0.00000  Uiso   1.00
H164   H     0.22208   0.45588   0.79482   0.00000  Uiso   1.00
H165   H     0.02115   0.19577   0.70135   0.00000  Uiso   1.00
H166   H     0.12725   0.84817   0.83914   0.00000  Uiso   1.00
H167   H     0.37968   0.71184   0.82130   0.00000  Uiso   1.00
H168   H     0.95597   0.16336   0.62419   0.00000  Uiso   1.00
H169   H     0.51937   0.31993   0.71539   0.00000  Uiso   1.00
H170   H     0.51733   0.13592   0.75082   0.00000  Uiso   1.00
H171   H     0.63705   0.54552   0.74237   0.00000  Uiso   1.00
H172   H     0.43612   0.28541   0.64889   0.00000  Uiso   1.00
H173   H     0.46406   0.92093   0.79657   0.00000  Uiso   1.00
H174   H     0.71648   0.78460   0.77873   0.00000  Uiso   1.00
H175   H     0.29278   0.23611   0.58162   0.00000  Uiso   1.00
O176   O     0.28724   0.76200   0.84207   0.00000  Uiso   1.00
O177   O     0.61840   0.89510   0.81866   0.00000  Uiso   1.00
O178   O     0.06251   0.17549   0.56006   0.00000  Uiso   1.00
N179   N     0.20679   0.89053   0.82425   0.00000  Uiso   1.00
N180   N     0.44279   0.69800   0.80758   0.00000  Uiso   1.00
N181   N     0.04667   0.18525   0.62330   0.00000  Uiso   1.00
N182   N     0.38802   0.92968   0.80135   0.00000  Uiso   1.00
N183   N     0.62403   0.73715   0.78467   0.00000  Uiso   1.00
N184   N     0.22790   0.22440   0.60039   0.00000  Uiso   1.00
C185   C     0.03831   0.78390   0.08706   0.00000  Uiso   1.00
C186   C     0.90587   0.74218   0.10089   0.00000  Uiso   1.00
C187   C     0.87366   0.80806   0.12529   0.00000  Uiso   1.00
C188   C     0.74733   0.75401   0.13455   0.00000  Uiso   1.00
C189   C     0.55550   0.70682   0.15827   0.00000  Uiso   1.00
C190   C     0.06336   0.67713   0.09630   0.00000  Uiso   1.00
C191   C     0.16358   0.68832   0.11684   0.00000  Uiso   1.00
C192   C     0.16982   0.57950   0.12223   0.00000  Uiso   1.00
C193   C     0.22255   0.43134   0.13880   0.00000  Uiso   1.00
C194   C     0.03120   0.78631   0.04552   0.00000  Uiso   1.00
C195   C     0.10440   0.88928   0.02335   0.00000  Uiso   1.00
C196   C     0.08359   0.87238   0.98598   0.00000  Uiso   1.00
C197   C     0.08639   0.89373   0.92370   0.00000  Uiso   1.00
C198   C     0.87122   0.57076   0.06012   0.00000  Uiso   1.00
C199   C     0.81511   0.62642   0.08626   0.00000  Uiso   1.00
C200   C     0.68880   0.57225   0.09548   0.00000  Uiso   1.00
C201   C     0.65641   0.63804   0.11989   0.00000  Uiso   1.00
C202   C     0.97261   0.56137   0.08167   0.00000  Uiso   1.00
C203   C     0.97871   0.45251   0.08703   0.00000  Uiso   1.00
C204   C     0.07891   0.46353   0.10757   0.00000  Uiso   1.00
C205   C     0.94044   0.67055   0.03088   0.00000  Uiso   1.00
C206   C     0.91953   0.65348   0.99354   0.00000  Uiso   1.00
C207   C     0.99268   0.75640   0.97132   0.00000  Uiso   1.00
H208   H     0.10897   0.87402   0.09845   0.00000  Uiso   1.00
H209   H     0.94392   0.89764   0.13661   0.00000  Uiso   1.00
H210   H     0.23380   0.77792   0.12815   0.00000  Uiso   1.00
H211   H     0.17462   0.97885   0.03468   0.00000  Uiso   1.00
H212   H     0.72092   0.87275   0.17247   0.00000  Uiso   1.00
H213   H     0.33216   0.62032   0.15464   0.00000  Uiso   1.00
H214   H     0.20739   0.04403   0.95753   0.00000  Uiso   1.00
H215   H     0.80056   0.48063   0.04872   0.00000  Uiso   1.00
H216   H     0.61859   0.48267   0.08416   0.00000  Uiso   1.00
H217   H     0.90847   0.36295   0.07570   0.00000  Uiso   1.00
H218   H     0.84929   0.56388   0.98223   0.00000  Uiso   1.00
H219   H     0.45687   0.53594   0.12990   0.00000  Uiso   1.00
H220   H     0.06812   0.28352   0.11206   0.00000  Uiso   1.00
H221   H     0.94333   0.70722   0.91495   0.00000  Uiso   1.00
O222   O     0.47476   0.71276   0.17540   0.00000  Uiso   1.00
O223   O     0.27670   0.38160   0.15199   0.00000  Uiso   1.00
O224   O     0.11298   0.93749   0.89339   0.00000  Uiso   1.00
N225   N     0.68375   0.79321   0.15759   0.00000  Uiso   1.00
N226   N     0.25521   0.55721   0.14091   0.00000  Uiso   1.00
N227   N     0.13858   0.95333   0.95663   0.00000  Uiso   1.00
N228   N     0.54166   0.61198   0.13468   0.00000  Uiso   1.00
N229   N     0.11313   0.37597   0.11801   0.00000  Uiso   1.00
N230   N     0.99649   0.77210   0.93372   0.00000  Uiso   1.00
C231   C     0.74559   0.96169   0.42039   0.00000  Uiso   1.00
C232   C     0.83632   0.09413   0.43423   0.00000  Uiso   1.00
C233   C     0.93440   0.12634   0.45862   0.00000  Uiso   1.00
C234   C     0.00668   0.25267   0.46788   0.00000  Uiso   1.00
C235   C     0.15132   0.44450   0.49161   0.00000  Uiso   1.00
C236   C     0.61378   0.93664   0.42964   0.00000  Uiso   1.00
C237   C     0.52474   0.83642   0.45017   0.00000  Uiso   1.00
C238   C     0.40968   0.83018   0.45556   0.00000  Uiso   1.00
C239   C     0.20879   0.77745   0.47214   0.00000  Uiso   1.00
C240   C     0.75511   0.96880   0.37885   0.00000  Uiso   1.00
C241   C     0.78488   0.89560   0.35668   0.00000  Uiso   1.00
C242   C     0.78879   0.91641   0.31931   0.00000  Uiso   1.00
C243   C     0.80734   0.91361   0.25703   0.00000  Uiso   1.00
C244   C     0.69954   0.12878   0.39345   0.00000  Uiso   1.00
C245   C     0.81130   0.18489   0.41959   0.00000  Uiso   1.00
C246   C     0.88346   0.31120   0.42882   0.00000  Uiso   1.00
C247   C     0.98163   0.34359   0.45322   0.00000  Uiso   1.00
C248   C     0.58876   0.02739   0.41500   0.00000  Uiso   1.00
C249   C     0.47380   0.02129   0.42036   0.00000  Uiso   1.00
C250   C     0.38462   0.92109   0.44090   0.00000  Uiso   1.00
C251   C     0.73011   0.05956   0.36422   0.00000  Uiso   1.00
C252   C     0.73395   0.08047   0.32688   0.00000  Uiso   1.00
C253   C     0.76373   0.00732   0.30465   0.00000  Uiso   1.00
H254   H     0.76505   0.89103   0.43178   0.00000  Uiso   1.00
H255   H     0.95372   0.05608   0.46994   0.00000  Uiso   1.00
H256   H     0.54412   0.76620   0.46149   0.00000  Uiso   1.00
H257   H     0.80423   0.82538   0.36801   0.00000  Uiso   1.00
H258   H     0.15183   0.27908   0.50581   0.00000  Uiso   1.00
H259   H     0.28816   0.66784   0.48797   0.00000  Uiso   1.00
H260   H     0.83664   0.79261   0.29086   0.00000  Uiso   1.00
H261   H     0.68007   0.19944   0.38206   0.00000  Uiso   1.00
H262   H     0.86408   0.38141   0.41749   0.00000  Uiso   1.00
H263   H     0.45448   0.09153   0.40903   0.00000  Uiso   1.00
H264   H     0.71459   0.15071   0.31556   0.00000  Uiso   1.00
H265   H     0.07907   0.54313   0.46324   0.00000  Uiso   1.00
H266   H     0.21540   0.93188   0.44540   0.00000  Uiso   1.00
H267   H     0.76389   0.05667   0.24829   0.00000  Uiso   1.00
O268   O     0.23800   0.52524   0.50874   0.00000  Uiso   1.00
O269   O     0.10490   0.72330   0.48533   0.00000  Uiso   1.00
O270   O     0.82451   0.88702   0.22673   0.00000  Uiso   1.00
N271   N     0.10947   0.31625   0.49092   0.00000  Uiso   1.00
N272   N     0.30200   0.74479   0.47425   0.00000  Uiso   1.00
N273   N     0.81475   0.86142   0.28997   0.00000  Uiso   1.00
N274   N     0.07032   0.45834   0.46801   0.00000  Uiso   1.00
N275   N     0.26285   0.88687   0.45134   0.00000  Uiso   1.00
N276   N     0.77560   0.00351   0.26706   0.00000  Uiso   1.00
