data_job_00398
_audit_creation_date              2018-12-19
_audit_creation_method            'Materials Studio'
_symmetry_space_group_name_H-M    'P1'
_symmetry_Int_Tables_number       1
_symmetry_cell_setting            triclinic
loop_
_symmetry_equiv_pos_as_xyz
  x,y,z
_cell_length_a                    23.5355
_cell_length_b                    7.4385
_cell_length_c                    25.8218
_cell_angle_alpha                 90.0000
_cell_angle_beta                  148.5959
_cell_angle_gamma                 90.0000
loop_
_atom_site_label
_atom_site_type_symbol
_atom_site_fract_x
_atom_site_fract_y
_atom_site_fract_z
_atom_site_U_iso_or_equiv
_atom_site_adp_type
_atom_site_occupancy
C1     C     0.84627   0.16737   0.23587   0.00000  Uiso   1.00
C2     C     0.76777   0.27617   0.20820   0.00000  Uiso   1.00
C3     C     0.66773   0.21702   0.14883   0.00000  Uiso   1.00
C4     C     0.60802   0.33686   0.13229   0.00000  Uiso   1.00
C5     C     0.48017   0.47956   0.08299   0.00000  Uiso   1.00
C6     C     0.86588   0.27905   0.20249   0.00000  Uiso   1.00
C7     C     0.84834   0.22230   0.13832   0.00000  Uiso   1.00
C8     C     0.87122   0.34457   0.11698   0.00000  Uiso   1.00
C9     C     0.89576   0.49168   0.05886   0.00000  Uiso   1.00
C10    C     0.95439   0.16484   0.34914   0.00000  Uiso   1.00
C11    C     0.01130   0.01206   0.40829   0.00000  Uiso   1.00
C12    C     0.10873   0.03818   0.51042   0.00000  Uiso   1.00
C13    C     0.27070   0.00797   0.68000   0.00000  Uiso   1.00
C14    C     0.91812   0.48540   0.31207   0.00000  Uiso   1.00
C15    C     0.80680   0.44891   0.24959   0.00000  Uiso   1.00
C16    C     0.74722   0.56888   0.23314   0.00000  Uiso   1.00
C17    C     0.64711   0.50991   0.17376   0.00000  Uiso   1.00
C18    C     0.90490   0.45179   0.24387   0.00000  Uiso   1.00
C19    C     0.92783   0.57416   0.22263   0.00000  Uiso   1.00
C20    C     0.91032   0.51762   0.15844   0.00000  Uiso   1.00
C21    C     0.99342   0.33758   0.39053   0.00000  Uiso   1.00
C22    C     0.09079   0.36393   0.49259   0.00000  Uiso   1.00
C23    C     0.14783   0.21123   0.55188   0.00000  Uiso   1.00
H24    H     0.81589   0.03289   0.20365   0.00000  Uiso   1.00
H25    H     0.63755   0.08333   0.11681   0.00000  Uiso   1.00
H26    H     0.81815   0.08861   0.10631   0.00000  Uiso   1.00
H27    H     0.98107   0.87841   0.37623   0.00000  Uiso   1.00
H28    H     0.45703   0.21546   0.03876   0.00000  Uiso   1.00
H29    H     0.83785   0.22657   0.01664   0.00000  Uiso   1.00
H30    H     0.18142   0.78332   0.58583   0.00000  Uiso   1.00
H31    H     0.94851   0.61989   0.34429   0.00000  Uiso   1.00
H32    H     0.77744   0.70255   0.26518   0.00000  Uiso   1.00
H33    H     0.95803   0.70783   0.25467   0.00000  Uiso   1.00
H34    H     0.12096   0.49763   0.52459   0.00000  Uiso   1.00
H35    H     0.57057   0.71804   0.15917   0.00000  Uiso   1.00
H36    H     0.95139   0.72915   0.13706   0.00000  Uiso   1.00
H37    H     0.29496   0.28590   0.70624   0.00000  Uiso   1.00
O38    O     0.39886   0.51056   0.04435   0.00000  Uiso   1.00
O39    O     0.89850   0.52511   0.01536   0.00000  Uiso   1.00
O40    O     0.34925   0.94358   0.76211   0.00000  Uiso   1.00
N41    N     0.50723   0.32239   0.07797   0.00000  Uiso   1.00
N42    N     0.86326   0.33278   0.05728   0.00000  Uiso   1.00
N43    N     0.18449   0.91838   0.58942   0.00000  Uiso   1.00
N44    N     0.56833   0.59282   0.14277   0.00000  Uiso   1.00
N45    N     0.92436   0.60322   0.12208   0.00000  Uiso   1.00
N46    N     0.24558   0.18882   0.65422   0.00000  Uiso   1.00
C47    C     0.34627   0.66737   0.23587   0.00000  Uiso   1.00
C48    C     0.26777   0.77617   0.20820   0.00000  Uiso   1.00
C49    C     0.16773   0.71702   0.14883   0.00000  Uiso   1.00
C50    C     0.10802   0.83686   0.13229   0.00000  Uiso   1.00
C51    C     0.98017   0.97956   0.08299   0.00000  Uiso   1.00
C52    C     0.36588   0.77905   0.20249   0.00000  Uiso   1.00
C53    C     0.34834   0.72230   0.13832   0.00000  Uiso   1.00
C54    C     0.37122   0.84457   0.11698   0.00000  Uiso   1.00
C55    C     0.39576   0.99168   0.05886   0.00000  Uiso   1.00
C56    C     0.45439   0.66484   0.34914   0.00000  Uiso   1.00
C57    C     0.51130   0.51206   0.40829   0.00000  Uiso   1.00
C58    C     0.60873   0.53818   0.51042   0.00000  Uiso   1.00
C59    C     0.77070   0.50797   0.68000   0.00000  Uiso   1.00
C60    C     0.41812   0.98540   0.31207   0.00000  Uiso   1.00
C61    C     0.30680   0.94891   0.24959   0.00000  Uiso   1.00
C62    C     0.24722   0.06888   0.23314   0.00000  Uiso   1.00
C63    C     0.14711   0.00991   0.17376   0.00000  Uiso   1.00
C64    C     0.40490   0.95179   0.24387   0.00000  Uiso   1.00
C65    C     0.42783   0.07416   0.22263   0.00000  Uiso   1.00
C66    C     0.41032   0.01762   0.15844   0.00000  Uiso   1.00
C67    C     0.49342   0.83758   0.39053   0.00000  Uiso   1.00
C68    C     0.59079   0.86393   0.49259   0.00000  Uiso   1.00
C69    C     0.64783   0.71123   0.55188   0.00000  Uiso   1.00
H70    H     0.31589   0.53289   0.20365   0.00000  Uiso   1.00
H71    H     0.13755   0.58333   0.11681   0.00000  Uiso   1.00
H72    H     0.31815   0.58861   0.10631   0.00000  Uiso   1.00
H73    H     0.48107   0.37841   0.37623   0.00000  Uiso   1.00
H74    H     0.95703   0.71546   0.03876   0.00000  Uiso   1.00
H75    H     0.33785   0.72657   0.01664   0.00000  Uiso   1.00
H76    H     0.68142   0.28332   0.58583   0.00000  Uiso   1.00
H77    H     0.44851   0.11989   0.34429   0.00000  Uiso   1.00
H78    H     0.27744   0.20255   0.26518   0.00000  Uiso   1.00
H79    H     0.45803   0.20783   0.25467   0.00000  Uiso   1.00
H80    H     0.62096   0.99763   0.52459   0.00000  Uiso   1.00
H81    H     0.07057   0.21804   0.15917   0.00000  Uiso   1.00
H82    H     0.45139   0.22915   0.13706   0.00000  Uiso   1.00
H83    H     0.79496   0.78590   0.70624   0.00000  Uiso   1.00
O84    O     0.89886   0.01056   0.04435   0.00000  Uiso   1.00
O85    O     0.39850   0.02511   0.01536   0.00000  Uiso   1.00
O86    O     0.84925   0.44358   0.76211   0.00000  Uiso   1.00
N87    N     0.00723   0.82239   0.07797   0.00000  Uiso   1.00
N88    N     0.36326   0.83278   0.05728   0.00000  Uiso   1.00
N89    N     0.68449   0.41838   0.58942   0.00000  Uiso   1.00
N90    N     0.06833   0.09282   0.14277   0.00000  Uiso   1.00
N91    N     0.42436   0.10322   0.12208   0.00000  Uiso   1.00
N92    N     0.74558   0.68882   0.65422   0.00000  Uiso   1.00
C93    C     0.15373   0.16737   0.76413   0.00000  Uiso   1.00
C94    C     0.23223   0.27617   0.79180   0.00000  Uiso   1.00
C95    C     0.33227   0.21702   0.85117   0.00000  Uiso   1.00
C96    C     0.39198   0.33686   0.86771   0.00000  Uiso   1.00
C97    C     0.51983   0.47956   0.91701   0.00000  Uiso   1.00
C98    C     0.13412   0.27905   0.79751   0.00000  Uiso   1.00
C99    C     0.15166   0.22230   0.86168   0.00000  Uiso   1.00
C100   C     0.12878   0.34457   0.88302   0.00000  Uiso   1.00
C101   C     0.10424   0.49168   0.94114   0.00000  Uiso   1.00
C102   C     0.04561   0.16484   0.65086   0.00000  Uiso   1.00
C103   C     0.98870   0.01206   0.59171   0.00000  Uiso   1.00
C104   C     0.89127   0.03818   0.48958   0.00000  Uiso   1.00
C105   C     0.72930   0.00797   0.32000   0.00000  Uiso   1.00
C106   C     0.08188   0.48540   0.68793   0.00000  Uiso   1.00
C107   C     0.19320   0.44891   0.75041   0.00000  Uiso   1.00
C108   C     0.25278   0.56888   0.76686   0.00000  Uiso   1.00
C109   C     0.35289   0.50991   0.82624   0.00000  Uiso   1.00
C110   C     0.09510   0.45179   0.75613   0.00000  Uiso   1.00
C111   C     0.07217   0.57416   0.77737   0.00000  Uiso   1.00
C112   C     0.08968   0.51762   0.84156   0.00000  Uiso   1.00
C113   C     0.00658   0.33758   0.60947   0.00000  Uiso   1.00
C114   C     0.90921   0.36393   0.50741   0.00000  Uiso   1.00
C115   C     0.85217   0.21123   0.44812   0.00000  Uiso   1.00
H116   H     0.18411   0.03289   0.79635   0.00000  Uiso   1.00
H117   H     0.36245   0.08333   0.88319   0.00000  Uiso   1.00
H118   H     0.18185   0.08861   0.89369   0.00000  Uiso   1.00
H119   H     0.01893   0.87841   0.62377   0.00000  Uiso   1.00
H120   H     0.54297   0.21546   0.96124   0.00000  Uiso   1.00
H121   H     0.16215   0.22657   0.98336   0.00000  Uiso   1.00
H122   H     0.81858   0.78332   0.41417   0.00000  Uiso   1.00
H123   H     0.05149   0.61989   0.65571   0.00000  Uiso   1.00
H124   H     0.22256   0.70255   0.73482   0.00000  Uiso   1.00
H125   H     0.04197   0.70783   0.74533   0.00000  Uiso   1.00
H126   H     0.87904   0.49763   0.47541   0.00000  Uiso   1.00
H127   H     0.42943   0.71804   0.84083   0.00000  Uiso   1.00
H128   H     0.04861   0.72915   0.86294   0.00000  Uiso   1.00
H129   H     0.70504   0.28590   0.29376   0.00000  Uiso   1.00
O130   O     0.60114   0.51056   0.95565   0.00000  Uiso   1.00
O131   O     0.10150   0.52511   0.98464   0.00000  Uiso   1.00
O132   O     0.65075   0.94358   0.23789   0.00000  Uiso   1.00
N133   N     0.49277   0.32239   0.92203   0.00000  Uiso   1.00
N134   N     0.13674   0.33278   0.94272   0.00000  Uiso   1.00
N135   N     0.81551   0.91838   0.41058   0.00000  Uiso   1.00
N136   N     0.43167   0.59282   0.85723   0.00000  Uiso   1.00
N137   N     0.07564   0.60322   0.87792   0.00000  Uiso   1.00
N138   N     0.75442   0.18882   0.34578   0.00000  Uiso   1.00
C139   C     0.65373   0.66737   0.76413   0.00000  Uiso   1.00
C140   C     0.73223   0.77617   0.79180   0.00000  Uiso   1.00
C141   C     0.83227   0.71702   0.85117   0.00000  Uiso   1.00
C142   C     0.89198   0.83686   0.86771   0.00000  Uiso   1.00
C143   C     0.01983   0.97956   0.91701   0.00000  Uiso   1.00
C144   C     0.63412   0.77905   0.79751   0.00000  Uiso   1.00
C145   C     0.65166   0.72230   0.86168   0.00000  Uiso   1.00
C146   C     0.62878   0.84457   0.88302   0.00000  Uiso   1.00
C147   C     0.60424   0.99168   0.94114   0.00000  Uiso   1.00
C148   C     0.54561   0.66484   0.65086   0.00000  Uiso   1.00
C149   C     0.48870   0.51206   0.59171   0.00000  Uiso   1.00
C150   C     0.39127   0.53818   0.48958   0.00000  Uiso   1.00
C151   C     0.22930   0.50797   0.32000   0.00000  Uiso   1.00
C152   C     0.58188   0.98540   0.68793   0.00000  Uiso   1.00
C153   C     0.69320   0.94891   0.75041   0.00000  Uiso   1.00
C154   C     0.75278   0.06888   0.76686   0.00000  Uiso   1.00
C155   C     0.85289   0.00991   0.82624   0.00000  Uiso   1.00
C156   C     0.59510   0.95179   0.75613   0.00000  Uiso   1.00
C157   C     0.57217   0.07416   0.77737   0.00000  Uiso   1.00
C158   C     0.58968   0.01762   0.84156   0.00000  Uiso   1.00
C159   C     0.50658   0.83758   0.60947   0.00000  Uiso   1.00
C160   C     0.40921   0.86393   0.50741   0.00000  Uiso   1.00
C161   C     0.35217   0.71123   0.44812   0.00000  Uiso   1.00
H162   H     0.68411   0.53289   0.79635   0.00000  Uiso   1.00
H163   H     0.86245   0.58333   0.88319   0.00000  Uiso   1.00
H164   H     0.68185   0.58861   0.89369   0.00000  Uiso   1.00
H165   H     0.51893   0.37841   0.62377   0.00000  Uiso   1.00
H166   H     0.04297   0.71546   0.96124   0.00000  Uiso   1.00
H167   H     0.66215   0.72657   0.98336   0.00000  Uiso   1.00
H168   H     0.31858   0.28332   0.41417   0.00000  Uiso   1.00
H169   H     0.55149   0.11989   0.65571   0.00000  Uiso   1.00
H170   H     0.72256   0.20255   0.73482   0.00000  Uiso   1.00
H171   H     0.54197   0.20783   0.74533   0.00000  Uiso   1.00
H172   H     0.37904   0.99763   0.47541   0.00000  Uiso   1.00
H173   H     0.92943   0.21804   0.84083   0.00000  Uiso   1.00
H174   H     0.54861   0.22915   0.86294   0.00000  Uiso   1.00
H175   H     0.20504   0.78590   0.29376   0.00000  Uiso   1.00
O176   O     0.10114   0.01056   0.95565   0.00000  Uiso   1.00
O177   O     0.60150   0.02511   0.98464   0.00000  Uiso   1.00
O178   O     0.15075   0.44358   0.23789   0.00000  Uiso   1.00
N179   N     0.99277   0.82239   0.92203   0.00000  Uiso   1.00
N180   N     0.63674   0.83278   0.94272   0.00000  Uiso   1.00
N181   N     0.31551   0.41838   0.41058   0.00000  Uiso   1.00
N182   N     0.93167   0.09282   0.85723   0.00000  Uiso   1.00
N183   N     0.57564   0.10322   0.87792   0.00000  Uiso   1.00
N184   N     0.25442   0.68882   0.34578   0.00000  Uiso   1.00
