data_job_06965
_audit_creation_date              2018-12-19
_audit_creation_method            'Materials Studio'
_symmetry_space_group_name_H-M    'P1'
_symmetry_Int_Tables_number       1
_symmetry_cell_setting            triclinic
loop_
_symmetry_equiv_pos_as_xyz
  x,y,z
_cell_length_a                    26.0261
_cell_length_b                    23.4891
_cell_length_c                    21.8998
_cell_angle_alpha                 100.3390
_cell_angle_beta                  100.8290
_cell_angle_gamma                 112.4850
loop_
_atom_site_label
_atom_site_type_symbol
_atom_site_fract_x
_atom_site_fract_y
_atom_site_fract_z
_atom_site_U_iso_or_equiv
_atom_site_adp_type
_atom_site_occupancy
C1     C     0.56945   0.35368   0.89917   0.00000  Uiso   1.00
C2     C     0.52353   0.37861   0.88538   0.00000  Uiso   1.00
C3     C     0.46466   0.34111   0.85666   0.00000  Uiso   1.00
C4     C     0.42980   0.37305   0.84825   0.00000  Uiso   1.00
C5     C     0.35497   0.40156   0.82382   0.00000  Uiso   1.00
C6     C     0.61437   0.38533   0.86537   0.00000  Uiso   1.00
C7     C     0.63189   0.35348   0.81983   0.00000  Uiso   1.00
C8     C     0.67351   0.39109   0.79459   0.00000  Uiso   1.00
C9     C     0.73974   0.43003   0.73913   0.00000  Uiso   1.00
C10    C     0.59977   0.38169   0.97153   0.00000  Uiso   1.00
C11    C     0.60501   0.34678   0.01524   0.00000  Uiso   1.00
C12    C     0.63435   0.38132   0.07937   0.00000  Uiso   1.00
C13    C     0.67790   0.41461   0.18874   0.00000  Uiso   1.00
C14    C     0.61223   0.47711   0.93532   0.00000  Uiso   1.00
C15    C     0.54677   0.44565   0.90502   0.00000  Uiso   1.00
C16    C     0.51199   0.47766   0.89665   0.00000  Uiso   1.00
C17    C     0.45308   0.44021   0.86792   0.00000  Uiso   1.00
C18    C     0.63761   0.45237   0.88501   0.00000  Uiso   1.00
C19    C     0.67922   0.49004   0.85983   0.00000  Uiso   1.00
C20    C     0.69679   0.45825   0.81426   0.00000  Uiso   1.00
C21    C     0.62300   0.44873   0.99117   0.00000  Uiso   1.00
C22    C     0.65234   0.48334   0.05524   0.00000  Uiso   1.00
C23    C     0.65762   0.44848   0.09904   0.00000  Uiso   1.00
H24    H     0.55136   0.30149   0.88388   0.00000  Uiso   1.00
H25    H     0.44670   0.28922   0.84146   0.00000  Uiso   1.00
H26    H     0.61390   0.30160   0.80465   0.00000  Uiso   1.00
H27    H     0.58703   0.29490   0.00003   0.00000  Uiso   1.00
H28    H     0.34090   0.30519   0.80307   0.00000  Uiso   1.00
H29    H     0.69348   0.33128   0.72546   0.00000  Uiso   1.00
H30    H     0.63681   0.31715   0.13746   0.00000  Uiso   1.00
H31    H     0.63032   0.52931   0.95061   0.00000  Uiso   1.00
H32    H     0.52998   0.52954   0.91185   0.00000  Uiso   1.00
H33    H     0.69719   0.54192   0.87504   0.00000  Uiso   1.00
H34    H     0.67031   0.53522   0.07042   0.00000  Uiso   1.00
H35    H     0.40850   0.50024   0.86020   0.00000  Uiso   1.00
H36    H     0.76108   0.52633   0.78259   0.00000  Uiso   1.00
H37    H     0.70441   0.51220   0.19459   0.00000  Uiso   1.00
O38    O     0.30727   0.39876   0.80491   0.00000  Uiso   1.00
O39    O     0.76985   0.43299   0.70311   0.00000  Uiso   1.00
O40    O     0.69550   0.41445   0.24364   0.00000  Uiso   1.00
N41    N     0.37058   0.35106   0.82185   0.00000  Uiso   1.00
N42    N     0.70021   0.37546   0.74928   0.00000  Uiso   1.00
N43    N     0.64724   0.36225   0.13446   0.00000  Uiso   1.00
N44    N     0.40695   0.45602   0.85259   0.00000  Uiso   1.00
N45    N     0.73659   0.48041   0.78002   0.00000  Uiso   1.00
N46    N     0.68362   0.46720   0.16520   0.00000  Uiso   1.00
C47    C     0.92556   0.58728   0.31248   0.00000  Uiso   1.00
C48    C     0.92283   0.54700   0.36023   0.00000  Uiso   1.00
C49    C     0.89943   0.48055   0.34411   0.00000  Uiso   1.00
C50    C     0.90108   0.45274   0.39486   0.00000  Uiso   1.00
C51    C     0.89314   0.38451   0.45919   0.00000  Uiso   1.00
C52    C     0.89507   0.62881   0.33152   0.00000  Uiso   1.00
C53    C     0.84833   0.63115   0.29125   0.00000  Uiso   1.00
C54    C     0.82662   0.67223   0.31783   0.00000  Uiso   1.00
C55    C     0.77561   0.73105   0.33756   0.00000  Uiso   1.00
C56    C     0.98930   0.63316   0.32710   0.00000  Uiso   1.00
C57    C     0.02179   0.63918   0.28312   0.00000  Uiso   1.00
C58    C     0.07941   0.68393   0.30598   0.00000  Uiso   1.00
C59    C     0.17471   0.74950   0.31886   0.00000  Uiso   1.00
C60    C     0.97012   0.65606   0.43127   0.00000  Uiso   1.00
C61    C     0.94703   0.58436   0.42475   0.00000  Uiso   1.00
C62    C     0.94873   0.55665   0.47554   0.00000  Uiso   1.00
C63    C     0.92533   0.49017   0.45950   0.00000  Uiso   1.00
C64    C     0.91927   0.66617   0.39604   0.00000  Uiso   1.00
C65    C     0.89763   0.70725   0.42268   0.00000  Uiso   1.00
C66    C     0.85087   0.70965   0.38246   0.00000  Uiso   1.00
C67    C     0.01351   0.67052   0.39163   0.00000  Uiso   1.00
C68    C     0.07109   0.71527   0.41456   0.00000  Uiso   1.00
C69    C     0.10366   0.72135   0.37062   0.00000  Uiso   1.00
H70    H     0.90671   0.55819   0.26225   0.00000  Uiso   1.00
H71    H     0.88070   0.45165   0.29417   0.00000  Uiso   1.00
H72    H     0.82961   0.60224   0.24132   0.00000  Uiso   1.00
H73    H     0.00305   0.61026   0.23320   0.00000  Uiso   1.00
H74    H     0.86250   0.35001   0.35802   0.00000  Uiso   1.00
H75    H     0.75481   0.66755   0.24657   0.00000  Uiso   1.00
H76    H     0.12052   0.68446   0.22944   0.00000  Uiso   1.00
H77    H     0.98896   0.68514   0.48151   0.00000  Uiso   1.00
H78    H     0.96746   0.58557   0.52547   0.00000  Uiso   1.00
H79    H     0.91637   0.73616   0.47261   0.00000  Uiso   1.00
H80    H     0.08980   0.74417   0.46449   0.00000  Uiso   1.00
H81    H     0.93292   0.45870   0.54575   0.00000  Uiso   1.00
H82    H     0.82522   0.77624   0.43430   0.00000  Uiso   1.00
H83    H     0.19094   0.79315   0.41717   0.00000  Uiso   1.00
O84    O     0.88206   0.33656   0.47685   0.00000  Uiso   1.00
O85    O     0.74078   0.75316   0.33062   0.00000  Uiso   1.00
O86    O     0.22058   0.77535   0.30815   0.00000  Uiso   1.00
N87    N     0.88204   0.38926   0.39617   0.00000  Uiso   1.00
N88    N     0.78134   0.68613   0.29197   0.00000  Uiso   1.00
N89    N     0.12325   0.70195   0.27595   0.00000  Uiso   1.00
N90    N     0.91993   0.44774   0.49718   0.00000  Uiso   1.00
N91    N     0.81923   0.74461   0.39299   0.00000  Uiso   1.00
N92    N     0.16114   0.76043   0.37697   0.00000  Uiso   1.00
C93    C     0.35094   0.92001   0.61040   0.00000  Uiso   1.00
C94    C     0.36753   0.89271   0.55260   0.00000  Uiso   1.00
C95    C     0.33086   0.86111   0.49035   0.00000  Uiso   1.00
C96    C     0.35431   0.83974   0.44425   0.00000  Uiso   1.00
C97    C     0.37122   0.79581   0.35213   0.00000  Uiso   1.00
C98    C     0.36535   0.88896   0.66257   0.00000  Uiso   1.00
C99    C     0.32684   0.85421   0.69280   0.00000  Uiso   1.00
C100   C     0.34846   0.82969   0.73929   0.00000  Uiso   1.00
C101   C     0.36199   0.77998   0.81794   0.00000  Uiso   1.00
C102   C     0.39318   0.99084   0.63577   0.00000  Uiso   1.00
C103   C     0.37808   0.04177   0.64347   0.00000  Uiso   1.00
C104   C     0.42313   0.10303   0.66741   0.00000  Uiso   1.00
C105   C     0.47988   0.21152   0.70443   0.00000  Uiso   1.00
C106   C     0.45779   0.93824   0.63921   0.00000  Uiso   1.00
C107   C     0.42556   0.90261   0.56825   0.00000  Uiso   1.00
C108   C     0.44907   0.88128   0.52223   0.00000  Uiso   1.00
C109   C     0.41245   0.84966   0.45993   0.00000  Uiso   1.00
C110   C     0.42338   0.89885   0.67822   0.00000  Uiso   1.00
C111   C     0.44506   0.87438   0.72468   0.00000  Uiso   1.00
C112   C     0.40660   0.83961   0.75496   0.00000  Uiso   1.00
C113   C     0.45122   0.00075   0.65141   0.00000  Uiso   1.00
C114   C     0.49630   0.06194   0.67534   0.00000  Uiso   1.00
C115   C     0.48127   0.11295   0.68308   0.00000  Uiso   1.00
H116   H     0.30576   0.91230   0.59822   0.00000  Uiso   1.00
H117   H     0.28595   0.85345   0.47827   0.00000  Uiso   1.00
H118   H     0.28193   0.84657   0.68069   0.00000  Uiso   1.00
H119   H     0.33316   0.03409   0.63136   0.00000  Uiso   1.00
H120   H     0.28957   0.79256   0.35218   0.00000  Uiso   1.00
H121   H     0.28111   0.77805   0.77901   0.00000  Uiso   1.00
H122   H     0.38914   0.17349   0.67500   0.00000  Uiso   1.00
H123   H     0.50298   0.94594   0.65139   0.00000  Uiso   1.00
H124   H     0.49399   0.88895   0.53435   0.00000  Uiso   1.00
H125   H     0.48997   0.88206   0.73677   0.00000  Uiso   1.00
H126   H     0.54120   0.06958   0.68745   0.00000  Uiso   1.00
H127   H     0.45842   0.82136   0.39770   0.00000  Uiso   1.00
H128   H     0.44996   0.80686   0.82454   0.00000  Uiso   1.00
H129   H     0.55799   0.20230   0.72053   0.00000  Uiso   1.00
O130   O     0.36452   0.76884   0.29700   0.00000  Uiso   1.00
O131   O     0.35342   0.74982   0.85699   0.00000  Uiso   1.00
O132   O     0.49515   0.26863   0.72053   0.00000  Uiso   1.00
N133   N     0.33054   0.80717   0.37895   0.00000  Uiso   1.00
N134   N     0.32263   0.79360   0.77801   0.00000  Uiso   1.00
N135   N     0.42363   0.16330   0.68079   0.00000  Uiso   1.00
N136   N     0.42140   0.82267   0.40345   0.00000  Uiso   1.00
N137   N     0.41349   0.80910   0.80251   0.00000  Uiso   1.00
N138   N     0.51449   0.17880   0.70528   0.00000  Uiso   1.00
C139   C     0.09145   0.45667   0.90753   0.00000  Uiso   1.00
C140   C     0.09348   0.47136   0.97889   0.00000  Uiso   1.00
C141   C     0.04585   0.45936   0.00297   0.00000  Uiso   1.00
C142   C     0.05681   0.47629   0.06978   0.00000  Uiso   1.00
C143   C     0.05135   0.49483   0.17432   0.00000  Uiso   1.00
C144   C     0.12270   0.41387   0.89851   0.00000  Uiso   1.00
C145   C     0.09964   0.35354   0.85501   0.00000  Uiso   1.00
C146   C     0.13519   0.32207   0.85415   0.00000  Uiso   1.00
C147   C     0.17511   0.25136   0.83387   0.00000  Uiso   1.00
C148   C     0.12955   0.51999   0.89714   0.00000  Uiso   1.00
C149   C     0.11226   0.54888   0.85248   0.00000  Uiso   1.00
C150   C     0.15358   0.60675   0.85046   0.00000  Uiso   1.00
C151   C     0.20414   0.70082   0.82806   0.00000  Uiso   1.00
C152   C     0.19560   0.50806   0.98334   0.00000  Uiso   1.00
C153   C     0.15005   0.49928   0.02006   0.00000  Uiso   1.00
C154   C     0.16108   0.51623   0.08685   0.00000  Uiso   1.00
C155   C     0.11348   0.50426   0.11103   0.00000  Uiso   1.00
C156   C     0.17926   0.44178   0.93969   0.00000  Uiso   1.00
C157   C     0.21486   0.41040   0.93889   0.00000  Uiso   1.00
C158   C     0.19186   0.35003   0.89540   0.00000  Uiso   1.00
C159   C     0.18612   0.54791   0.93832   0.00000  Uiso   1.00
C160   C     0.22748   0.60574   0.93637   0.00000  Uiso   1.00
C161   C     0.21025   0.63472   0.89171   0.00000  Uiso   1.00
H162   H     0.04741   0.43493   0.87547   0.00000  Uiso   1.00
H163   H     0.00208   0.43775   0.97109   0.00000  Uiso   1.00
H164   H     0.05586   0.33195   0.82315   0.00000  Uiso   1.00
H165   H     0.06848   0.52726   0.82063   0.00000  Uiso   1.00
H166   H     0.97677   0.45317   0.09526   0.00000  Uiso   1.00
H167   H     0.09017   0.23008   0.78330   0.00000  Uiso   1.00
H168   H     0.11678   0.64194   0.77798   0.00000  Uiso   1.00
H169   H     0.23964   0.52980   0.01540   0.00000  Uiso   1.00
H170   H     0.20486   0.53783   0.11871   0.00000  Uiso   1.00
H171   H     0.25864   0.43202   0.97076   0.00000  Uiso   1.00
H172   H     0.27125   0.62733   0.96824   0.00000  Uiso   1.00
H173   H     0.14135   0.53439   0.21507   0.00000  Uiso   1.00
H174   H     0.25475   0.31130   0.90311   0.00000  Uiso   1.00
H175   H     0.28136   0.72316   0.89779   0.00000  Uiso   1.00
O176   O     0.03271   0.49733   0.22060   0.00000  Uiso   1.00
O177   O     0.18149   0.20465   0.81131   0.00000  Uiso   1.00
O178   O     0.21639   0.74500   0.80433   0.00000  Uiso   1.00
N179   N     0.02028   0.47120   0.10929   0.00000  Uiso   1.00
N180   N     0.12630   0.26261   0.81762   0.00000  Uiso   1.00
N181   N     0.15118   0.64766   0.81264   0.00000  Uiso   1.00
N182   N     0.10884   0.51490   0.17375   0.00000  Uiso   1.00
N183   N     0.21486   0.30632   0.88209   0.00000  Uiso   1.00
N184   N     0.23974   0.69137   0.87711   0.00000  Uiso   1.00
C185   C     0.38366   0.86422   0.11622   0.00000  Uiso   1.00
C186   C     0.37158   0.89213   0.06038   0.00000  Uiso   1.00
C187   C     0.33375   0.85746   0.99923   0.00000  Uiso   1.00
C188   C     0.32875   0.89186   0.95488   0.00000  Uiso   1.00
C189   C     0.30513   0.92506   0.86571   0.00000  Uiso   1.00
C190   C     0.37044   0.89930   0.17245   0.00000  Uiso   1.00
C191   C     0.33167   0.87065   0.20553   0.00000  Uiso   1.00
C192   C     0.32573   0.91108   0.25553   0.00000  Uiso   1.00
C193   C     0.30039   0.95540   0.34037   0.00000  Uiso   1.00
C194   C     0.44898   0.88534   0.13639   0.00000  Uiso   1.00
C195   C     0.47625   0.84497   0.13917   0.00000  Uiso   1.00
C196   C     0.53643   0.87366   0.15882   0.00000  Uiso   1.00
C197   C     0.63303   0.89632   0.18768   0.00000  Uiso   1.00
C198   C     0.44206   0.98697   0.14621   0.00000  Uiso   1.00
C199   C     0.40329   0.95880   0.07667   0.00000  Uiso   1.00
C200   C     0.39835   0.99327   0.03241   0.00000  Uiso   1.00
C201   C     0.36052   0.95865   0.97120   0.00000  Uiso   1.00
C202   C     0.40216   0.96597   0.18874   0.00000  Uiso   1.00
C203   C     0.39627   0.00645   0.23871   0.00000  Uiso   1.00
C204   C     0.35750   0.97787   0.27185   0.00000  Uiso   1.00
C205   C     0.48070   0.95202   0.15268   0.00000  Uiso   1.00
C206   C     0.54085   0.98077   0.17234   0.00000  Uiso   1.00
C207   C     0.56820   0.94045   0.17514   0.00000  Uiso   1.00
H208   H     0.35897   0.81231   0.10354   0.00000  Uiso   1.00
H209   H     0.30921   0.80586   0.98664   0.00000  Uiso   1.00
H210   H     0.30714   0.81905   0.19291   0.00000  Uiso   1.00
H211   H     0.45169   0.79338   0.12656   0.00000  Uiso   1.00
H212   H     0.26800   0.82812   0.86422   0.00000  Uiso   1.00
H213   H     0.26366   0.85592   0.29918   0.00000  Uiso   1.00
H214   H     0.56848   0.80178   0.15925   0.00000  Uiso   1.00
H215   H     0.46675   0.03887   0.15890   0.00000  Uiso   1.00
H216   H     0.42290   0.04486   0.04503   0.00000  Uiso   1.00
H217   H     0.42083   0.05804   0.25130   0.00000  Uiso   1.00
H218   H     0.56538   0.03237   0.18495   0.00000  Uiso   1.00
H219   H     0.36028   0.02210   0.91161   0.00000  Uiso   1.00
H220   H     0.35593   0.04990   0.34657   0.00000  Uiso   1.00
H221   H     0.66075   0.99576   0.20664   0.00000  Uiso   1.00
O222   O     0.28333   0.92496   0.81202   0.00000  Uiso   1.00
O223   O     0.27764   0.96143   0.38267   0.00000  Uiso   1.00
O224   O     0.67755   0.89040   0.19909   0.00000  Uiso   1.00
N225   N     0.29575   0.87295   0.89100   0.00000  Uiso   1.00
N226   N     0.29167   0.89894   0.29765   0.00000  Uiso   1.00
N227   N     0.57666   0.84833   0.16685   0.00000  Uiso   1.00
N228   N     0.34540   0.97733   0.91650   0.00000  Uiso   1.00
N229   N     0.34133   0.00332   0.32315   0.00000  Uiso   1.00
N230   N     0.62631   0.95271   0.19235   0.00000  Uiso   1.00
C231   C     0.86507   0.07421   0.39319   0.00000  Uiso   1.00
C232   C     0.89865   0.03573   0.37613   0.00000  Uiso   1.00
C233   C     0.87498   0.97434   0.33457   0.00000  Uiso   1.00
C234   C     0.91298   0.94740   0.32529   0.00000  Uiso   1.00
C235   C     0.95606   0.88260   0.29403   0.00000  Uiso   1.00
C236   C     0.89318   0.13697   0.37608   0.00000  Uiso   1.00
C237   C     0.86491   0.16071   0.33448   0.00000  Uiso   1.00
C238   C     0.89830   0.21900   0.32518   0.00000  Uiso   1.00
C239   C     0.93288   0.31140   0.29387   0.00000  Uiso   1.00
C240   C     0.87848   0.09194   0.46672   0.00000  Uiso   1.00
C241   C     0.83785   0.07783   0.50134   0.00000  Uiso   1.00
C242   C     0.85887   0.09821   0.56835   0.00000  Uiso   1.00
C243   C     0.87062   0.12069   0.67778   0.00000  Uiso   1.00
C244   C     0.97463   0.13552   0.45063   0.00000  Uiso   1.00
C245   C     0.95816   0.06904   0.40732   0.00000  Uiso   1.00
C246   C     0.99620   0.04218   0.39812   0.00000  Uiso   1.00
C247   C     0.97259   0.98076   0.35655   0.00000  Uiso   1.00
C248   C     0.95268   0.17028   0.40727   0.00000  Uiso   1.00
C249   C     0.98612   0.22854   0.39803   0.00000  Uiso   1.00
C250   C     0.95791   0.25236   0.35643   0.00000  Uiso   1.00
C251   C     0.93799   0.12524   0.49792   0.00000  Uiso   1.00
C252   C     0.95907   0.14566   0.56489   0.00000  Uiso   1.00
C253   C     0.91848   0.13157   0.59960   0.00000  Uiso   1.00
H254   H     0.81875   0.04829   0.36890   0.00000  Uiso   1.00
H255   H     0.82893   0.94859   0.31043   0.00000  Uiso   1.00
H256   H     0.81886   0.13493   0.31035   0.00000  Uiso   1.00
H257   H     0.79181   0.05206   0.47718   0.00000  Uiso   1.00
H258   H     0.86647   0.85276   0.25934   0.00000  Uiso   1.00
H259   H     0.84522   0.24568   0.25920   0.00000  Uiso   1.00
H260   H     0.78818   0.07092   0.61099   0.00000  Uiso   1.00
H261   H     0.02096   0.16145   0.47492   0.00000  Uiso   1.00
H262   H     0.04224   0.06796   0.42227   0.00000  Uiso   1.00
H263   H     0.03217   0.25430   0.42219   0.00000  Uiso   1.00
H264   H     0.00512   0.17142   0.58901   0.00000  Uiso   1.00
H265   H     0.03960   0.94964   0.35011   0.00000  Uiso   1.00
H266   H     0.01836   0.34256   0.34997   0.00000  Uiso   1.00
H267   H     0.96131   0.16780   0.70176   0.00000  Uiso   1.00
O268   O     0.96339   0.83766   0.26816   0.00000  Uiso   1.00
O269   O     0.93551   0.35317   0.26798   0.00000  Uiso   1.00
O270   O     0.86067   0.12389   0.72952   0.00000  Uiso   1.00
N271   N     0.90429   0.88838   0.28794   0.00000  Uiso   1.00
N272   N     0.88443   0.25574   0.28780   0.00000  Uiso   1.00
N273   N     0.83110   0.09237   0.61669   0.00000  Uiso   1.00
N274   N     0.99745   0.94051   0.33678   0.00000  Uiso   1.00
N275   N     0.97759   0.30787   0.33664   0.00000  Uiso   1.00
N276   N     0.92426   0.14450   0.66553   0.00000  Uiso   1.00
C277   C     0.43055   0.64632   0.10083   0.00000  Uiso   1.00
C278   C     0.47647   0.62139   0.11462   0.00000  Uiso   1.00
C279   C     0.53534   0.65889   0.14334   0.00000  Uiso   1.00
C280   C     0.57020   0.62695   0.15175   0.00000  Uiso   1.00
C281   C     0.64503   0.59844   0.17618   0.00000  Uiso   1.00
C282   C     0.38563   0.61467   0.13463   0.00000  Uiso   1.00
C283   C     0.36811   0.64652   0.18017   0.00000  Uiso   1.00
C284   C     0.32649   0.60891   0.20541   0.00000  Uiso   1.00
C285   C     0.26026   0.56997   0.26087   0.00000  Uiso   1.00
C286   C     0.40023   0.61831   0.02847   0.00000  Uiso   1.00
C287   C     0.39499   0.65322   0.98476   0.00000  Uiso   1.00
C288   C     0.36565   0.61868   0.92063   0.00000  Uiso   1.00
C289   C     0.32210   0.58539   0.81126   0.00000  Uiso   1.00
C290   C     0.38777   0.52289   0.06468   0.00000  Uiso   1.00
C291   C     0.45323   0.55435   0.09498   0.00000  Uiso   1.00
C292   C     0.48801   0.52234   0.10335   0.00000  Uiso   1.00
C293   C     0.54692   0.55979   0.13208   0.00000  Uiso   1.00
C294   C     0.36239   0.54763   0.11499   0.00000  Uiso   1.00
C295   C     0.32078   0.50996   0.14017   0.00000  Uiso   1.00
C296   C     0.30321   0.54175   0.18574   0.00000  Uiso   1.00
C297   C     0.37700   0.55127   0.00883   0.00000  Uiso   1.00
C298   C     0.34766   0.51666   0.94476   0.00000  Uiso   1.00
C299   C     0.34238   0.55152   0.90096   0.00000  Uiso   1.00
H300   H     0.44864   0.69851   0.11612   0.00000  Uiso   1.00
H301   H     0.55330   0.71078   0.15854   0.00000  Uiso   1.00
H302   H     0.38610   0.69840   0.19535   0.00000  Uiso   1.00
H303   H     0.41297   0.70510   0.99997   0.00000  Uiso   1.00
H304   H     0.65910   0.69481   0.19693   0.00000  Uiso   1.00
H305   H     0.30652   0.66872   0.27454   0.00000  Uiso   1.00
H306   H     0.36319   0.68285   0.86254   0.00000  Uiso   1.00
H307   H     0.36968   0.47069   0.04939   0.00000  Uiso   1.00
H308   H     0.47002   0.47046   0.08815   0.00000  Uiso   1.00
H309   H     0.30281   0.45808   0.12496   0.00000  Uiso   1.00
H310   H     0.32969   0.46478   0.92958   0.00000  Uiso   1.00
H311   H     0.59150   0.49976   0.13980   0.00000  Uiso   1.00
H312   H     0.23892   0.47367   0.21741   0.00000  Uiso   1.00
H313   H     0.29559   0.48780   0.80541   0.00000  Uiso   1.00
O314   O     0.69273   0.60124   0.19509   0.00000  Uiso   1.00
O315   O     0.23015   0.56701   0.29689   0.00000  Uiso   1.00
O316   O     0.30450   0.58555   0.75636   0.00000  Uiso   1.00
N317   N     0.62942   0.64894   0.17815   0.00000  Uiso   1.00
N318   N     0.29979   0.62454   0.25072   0.00000  Uiso   1.00
N319   N     0.35276   0.63775   0.86554   0.00000  Uiso   1.00
N320   N     0.59305   0.54398   0.14741   0.00000  Uiso   1.00
N321   N     0.26341   0.51959   0.21998   0.00000  Uiso   1.00
N322   N     0.31638   0.53280   0.83480   0.00000  Uiso   1.00
C323   C     0.07444   0.41272   0.68752   0.00000  Uiso   1.00
C324   C     0.07717   0.45300   0.63977   0.00000  Uiso   1.00
C325   C     0.10057   0.51945   0.65589   0.00000  Uiso   1.00
C326   C     0.09892   0.54726   0.60514   0.00000  Uiso   1.00
C327   C     0.10686   0.61549   0.54081   0.00000  Uiso   1.00
C328   C     0.10493   0.37119   0.66848   0.00000  Uiso   1.00
C329   C     0.15167   0.36885   0.70875   0.00000  Uiso   1.00
C330   C     0.17338   0.32777   0.68217   0.00000  Uiso   1.00
C331   C     0.22439   0.26895   0.66244   0.00000  Uiso   1.00
C332   C     0.01070   0.36684   0.67290   0.00000  Uiso   1.00
C333   C     0.97821   0.36082   0.71688   0.00000  Uiso   1.00
C334   C     0.92059   0.31607   0.69402   0.00000  Uiso   1.00
C335   C     0.82529   0.25050   0.68114   0.00000  Uiso   1.00
C336   C     0.02988   0.34394   0.56873   0.00000  Uiso   1.00
C337   C     0.05297   0.41564   0.57525   0.00000  Uiso   1.00
C338   C     0.05127   0.44335   0.52446   0.00000  Uiso   1.00
C339   C     0.07467   0.50983   0.54050   0.00000  Uiso   1.00
C340   C     0.08073   0.33383   0.60396   0.00000  Uiso   1.00
C341   C     0.10237   0.29275   0.57732   0.00000  Uiso   1.00
C342   C     0.14913   0.29035   0.61754   0.00000  Uiso   1.00
C343   C     0.98649   0.32948   0.60837   0.00000  Uiso   1.00
C344   C     0.92891   0.28473   0.58544   0.00000  Uiso   1.00
C345   C     0.89634   0.27865   0.62938   0.00000  Uiso   1.00
H346   H     0.09329   0.44181   0.73775   0.00000  Uiso   1.00
H347   H     0.11930   0.54835   0.70583   0.00000  Uiso   1.00
H348   H     0.17039   0.39776   0.75868   0.00000  Uiso   1.00
H349   H     0.99695   0.38974   0.76680   0.00000  Uiso   1.00
H350   H     0.13750   0.64999   0.64198   0.00000  Uiso   1.00
H351   H     0.24519   0.33245   0.75343   0.00000  Uiso   1.00
H352   H     0.87948   0.31554   0.77056   0.00000  Uiso   1.00
H353   H     0.01104   0.31486   0.51849   0.00000  Uiso   1.00
H354   H     0.03254   0.41443   0.47453   0.00000  Uiso   1.00
H355   H     0.08363   0.26384   0.52739   0.00000  Uiso   1.00
H356   H     0.91020   0.25583   0.53551   0.00000  Uiso   1.00
H357   H     0.06708   0.54130   0.45425   0.00000  Uiso   1.00
H358   H     0.17478   0.22376   0.56570   0.00000  Uiso   1.00
H359   H     0.80906   0.20685   0.58283   0.00000  Uiso   1.00
O360   O     0.11794   0.66344   0.52315   0.00000  Uiso   1.00
O361   O     0.25922   0.24684   0.66938   0.00000  Uiso   1.00
O362   O     0.77942   0.22465   0.69185   0.00000  Uiso   1.00
N363   N     0.11796   0.61074   0.60383   0.00000  Uiso   1.00
N364   N     0.21866   0.31387   0.70803   0.00000  Uiso   1.00
N365   N     0.87675   0.29805   0.72405   0.00000  Uiso   1.00
N366   N     0.08007   0.55226   0.50282   0.00000  Uiso   1.00
N367   N     0.18077   0.25539   0.60701   0.00000  Uiso   1.00
N368   N     0.83886   0.23957   0.62303   0.00000  Uiso   1.00
C369   C     0.64906   0.07999   0.38960   0.00000  Uiso   1.00
C370   C     0.63247   0.10729   0.44740   0.00000  Uiso   1.00
C371   C     0.66914   0.13889   0.50965   0.00000  Uiso   1.00
C372   C     0.64569   0.16026   0.55575   0.00000  Uiso   1.00
C373   C     0.62878   0.20419   0.64787   0.00000  Uiso   1.00
C374   C     0.63465   0.11104   0.33743   0.00000  Uiso   1.00
C375   C     0.67316   0.14579   0.30720   0.00000  Uiso   1.00
C376   C     0.65154   0.17031   0.26071   0.00000  Uiso   1.00
C377   C     0.63801   0.22002   0.18206   0.00000  Uiso   1.00
C378   C     0.60682   0.00916   0.36423   0.00000  Uiso   1.00
C379   C     0.62192   0.95823   0.35653   0.00000  Uiso   1.00
C380   C     0.57687   0.89697   0.33259   0.00000  Uiso   1.00
C381   C     0.52012   0.78848   0.29557   0.00000  Uiso   1.00
C382   C     0.54221   0.06176   0.36079   0.00000  Uiso   1.00
C383   C     0.57444   0.09739   0.43175   0.00000  Uiso   1.00
C384   C     0.55093   0.11872   0.47777   0.00000  Uiso   1.00
C385   C     0.58755   0.15034   0.54007   0.00000  Uiso   1.00
C386   C     0.57662   0.10115   0.32178   0.00000  Uiso   1.00
C387   C     0.55494   0.12562   0.27532   0.00000  Uiso   1.00
C388   C     0.59340   0.16039   0.24504   0.00000  Uiso   1.00
C389   C     0.54878   0.99925   0.34859   0.00000  Uiso   1.00
C390   C     0.50370   0.93806   0.32466   0.00000  Uiso   1.00
C391   C     0.51873   0.88705   0.31692   0.00000  Uiso   1.00
H392   H     0.69424   0.08770   0.40178   0.00000  Uiso   1.00
H393   H     0.71405   0.14655   0.52173   0.00000  Uiso   1.00
H394   H     0.71807   0.15343   0.31931   0.00000  Uiso   1.00
H395   H     0.66684   0.96591   0.36864   0.00000  Uiso   1.00
H396   H     0.71043   0.20744   0.64782   0.00000  Uiso   1.00
H397   H     0.71889   0.22195   0.22099   0.00000  Uiso   1.00
H398   H     0.61086   0.82651   0.32500   0.00000  Uiso   1.00
H399   H     0.49702   0.05406   0.34861   0.00000  Uiso   1.00
H400   H     0.50601   0.11105   0.46565   0.00000  Uiso   1.00
H401   H     0.51003   0.11794   0.26323   0.00000  Uiso   1.00
H402   H     0.45880   0.93042   0.31255   0.00000  Uiso   1.00
H403   H     0.54158   0.17864   0.60230   0.00000  Uiso   1.00
H404   H     0.55004   0.19314   0.17546   0.00000  Uiso   1.00
H405   H     0.44201   0.79770   0.27947   0.00000  Uiso   1.00
O406   O     0.63548   0.23116   0.70300   0.00000  Uiso   1.00
O407   O     0.64658   0.25018   0.14301   0.00000  Uiso   1.00
O408   O     0.50485   0.73137   0.27947   0.00000  Uiso   1.00
N409   N     0.66946   0.19283   0.62105   0.00000  Uiso   1.00
N410   N     0.67737   0.20640   0.22199   0.00000  Uiso   1.00
N411   N     0.57637   0.83670   0.31921   0.00000  Uiso   1.00
N412   N     0.57860   0.17733   0.59655   0.00000  Uiso   1.00
N413   N     0.58651   0.19090   0.19749   0.00000  Uiso   1.00
N414   N     0.48551   0.82120   0.29472   0.00000  Uiso   1.00
C415   C     0.90855   0.54333   0.09247   0.00000  Uiso   1.00
C416   C     0.90652   0.52864   0.02111   0.00000  Uiso   1.00
C417   C     0.95415   0.54064   0.99703   0.00000  Uiso   1.00
C418   C     0.94319   0.52371   0.93022   0.00000  Uiso   1.00
C419   C     0.94865   0.50517   0.82568   0.00000  Uiso   1.00
C420   C     0.87730   0.58613   0.10149   0.00000  Uiso   1.00
C421   C     0.90036   0.64646   0.14499   0.00000  Uiso   1.00
C422   C     0.86481   0.67793   0.14585   0.00000  Uiso   1.00
C423   C     0.82489   0.74864   0.16613   0.00000  Uiso   1.00
C424   C     0.87045   0.48001   0.10286   0.00000  Uiso   1.00
C425   C     0.88774   0.45112   0.14752   0.00000  Uiso   1.00
C426   C     0.84642   0.39325   0.14954   0.00000  Uiso   1.00
C427   C     0.79586   0.29918   0.17194   0.00000  Uiso   1.00
C428   C     0.80440   0.49194   0.01666   0.00000  Uiso   1.00
C429   C     0.84995   0.50072   0.97994   0.00000  Uiso   1.00
C430   C     0.83892   0.48377   0.91315   0.00000  Uiso   1.00
C431   C     0.88652   0.49574   0.88897   0.00000  Uiso   1.00
C432   C     0.82074   0.55822   0.06031   0.00000  Uiso   1.00
C433   C     0.78514   0.58960   0.06111   0.00000  Uiso   1.00
C434   C     0.80814   0.64997   0.10460   0.00000  Uiso   1.00
C435   C     0.81388   0.45209   0.06168   0.00000  Uiso   1.00
C436   C     0.77252   0.39426   0.06363   0.00000  Uiso   1.00
C437   C     0.78975   0.36528   0.10829   0.00000  Uiso   1.00
H438   H     0.95259   0.56507   0.12453   0.00000  Uiso   1.00
H439   H     0.99792   0.56225   0.02891   0.00000  Uiso   1.00
H440   H     0.94414   0.66805   0.17685   0.00000  Uiso   1.00
H441   H     0.93152   0.47274   0.17937   0.00000  Uiso   1.00
H442   H     0.02323   0.54683   0.90474   0.00000  Uiso   1.00
H443   H     0.90983   0.76992   0.21670   0.00000  Uiso   1.00
H444   H     0.88322   0.35806   0.22202   0.00000  Uiso   1.00
H445   H     0.76036   0.47020   0.98460   0.00000  Uiso   1.00
H446   H     0.79514   0.46217   0.88129   0.00000  Uiso   1.00
H447   H     0.74136   0.56798   0.02924   0.00000  Uiso   1.00
H448   H     0.72875   0.37267   0.03176   0.00000  Uiso   1.00
H449   H     0.85865   0.46561   0.78493   0.00000  Uiso   1.00
H450   H     0.74525   0.68870   0.09689   0.00000  Uiso   1.00
H451   H     0.71864   0.27684   0.10221   0.00000  Uiso   1.00
O452   O     0.96729   0.50267   0.77940   0.00000  Uiso   1.00
O453   O     0.81851   0.79535   0.18869   0.00000  Uiso   1.00
O454   O     0.78361   0.25500   0.19567   0.00000  Uiso   1.00
N455   N     0.97972   0.52880   0.89071   0.00000  Uiso   1.00
N456   N     0.87370   0.73739   0.18238   0.00000  Uiso   1.00
N457   N     0.84882   0.35234   0.18736   0.00000  Uiso   1.00
N458   N     0.89116   0.48510   0.82625   0.00000  Uiso   1.00
N459   N     0.78514   0.69368   0.11791   0.00000  Uiso   1.00
N460   N     0.76026   0.30863   0.12289   0.00000  Uiso   1.00
C461   C     0.61634   0.13578   0.88378   0.00000  Uiso   1.00
C462   C     0.62842   0.10787   0.93962   0.00000  Uiso   1.00
C463   C     0.66625   0.14254   0.00077   0.00000  Uiso   1.00
C464   C     0.67125   0.10814   0.04512   0.00000  Uiso   1.00
C465   C     0.69487   0.07494   0.13429   0.00000  Uiso   1.00
C466   C     0.62956   0.10070   0.82755   0.00000  Uiso   1.00
C467   C     0.66833   0.12935   0.79447   0.00000  Uiso   1.00
C468   C     0.67427   0.08892   0.74447   0.00000  Uiso   1.00
C469   C     0.69961   0.04460   0.65963   0.00000  Uiso   1.00
C470   C     0.55102   0.11466   0.86361   0.00000  Uiso   1.00
C471   C     0.52375   0.15503   0.86083   0.00000  Uiso   1.00
C472   C     0.46357   0.12634   0.84118   0.00000  Uiso   1.00
C473   C     0.36697   0.10368   0.81232   0.00000  Uiso   1.00
C474   C     0.55794   0.01303   0.85379   0.00000  Uiso   1.00
C475   C     0.59671   0.04120   0.92333   0.00000  Uiso   1.00
C476   C     0.60165   0.00673   0.96759   0.00000  Uiso   1.00
C477   C     0.63948   0.04135   0.02880   0.00000  Uiso   1.00
C478   C     0.59784   0.03403   0.81126   0.00000  Uiso   1.00
C479   C     0.60373   0.99355   0.76129   0.00000  Uiso   1.00
C480   C     0.64250   0.02213   0.72815   0.00000  Uiso   1.00
C481   C     0.51930   0.04798   0.84732   0.00000  Uiso   1.00
C482   C     0.45915   0.01923   0.82766   0.00000  Uiso   1.00
C483   C     0.43180   0.05955   0.82486   0.00000  Uiso   1.00
H484   H     0.64103   0.18769   0.89646   0.00000  Uiso   1.00
H485   H     0.69079   0.19414   0.01336   0.00000  Uiso   1.00
H486   H     0.69286   0.18095   0.80709   0.00000  Uiso   1.00
H487   H     0.54831   0.20662   0.87344   0.00000  Uiso   1.00
H488   H     0.73200   0.17188   0.13578   0.00000  Uiso   1.00
H489   H     0.73634   0.14408   0.70082   0.00000  Uiso   1.00
H490   H     0.43152   0.19822   0.84075   0.00000  Uiso   1.00
H491   H     0.53325   0.96113   0.84110   0.00000  Uiso   1.00
H492   H     0.57710   0.95514   0.95497   0.00000  Uiso   1.00
H493   H     0.57917   0.94196   0.74870   0.00000  Uiso   1.00
H494   H     0.43462   0.96763   0.81505   0.00000  Uiso   1.00
H495   H     0.63972   0.97790   0.08839   0.00000  Uiso   1.00
H496   H     0.64407   0.95010   0.65343   0.00000  Uiso   1.00
H497   H     0.33925   0.00424   0.79336   0.00000  Uiso   1.00
O498   O     0.71667   0.07504   0.18798   0.00000  Uiso   1.00
O499   O     0.72236   0.03857   0.61733   0.00000  Uiso   1.00
O500   O     0.32245   0.10960   0.80091   0.00000  Uiso   1.00
N501   N     0.70425   0.12705   0.10900   0.00000  Uiso   1.00
N502   N     0.70833   0.10106   0.70235   0.00000  Uiso   1.00
N503   N     0.42334   0.15167   0.83315   0.00000  Uiso   1.00
N504   N     0.65460   0.02267   0.08350   0.00000  Uiso   1.00
N505   N     0.65867   0.99668   0.67685   0.00000  Uiso   1.00
N506   N     0.37369   0.04729   0.80765   0.00000  Uiso   1.00
C507   C     0.13493   0.92579   0.60681   0.00000  Uiso   1.00
C508   C     0.10135   0.96427   0.62387   0.00000  Uiso   1.00
C509   C     0.12502   0.02566   0.66543   0.00000  Uiso   1.00
C510   C     0.08702   0.05260   0.67471   0.00000  Uiso   1.00
C511   C     0.04394   0.11740   0.70597   0.00000  Uiso   1.00
C512   C     0.10682   0.86303   0.62392   0.00000  Uiso   1.00
C513   C     0.13509   0.83929   0.66552   0.00000  Uiso   1.00
C514   C     0.10170   0.78100   0.67482   0.00000  Uiso   1.00
C515   C     0.06712   0.68860   0.70613   0.00000  Uiso   1.00
C516   C     0.12152   0.90806   0.53328   0.00000  Uiso   1.00
C517   C     0.16215   0.92217   0.49866   0.00000  Uiso   1.00
C518   C     0.14113   0.90179   0.43165   0.00000  Uiso   1.00
C519   C     0.12938   0.87931   0.32222   0.00000  Uiso   1.00
C520   C     0.02537   0.86448   0.54937   0.00000  Uiso   1.00
C521   C     0.04184   0.93096   0.59268   0.00000  Uiso   1.00
C522   C     0.00380   0.95782   0.60188   0.00000  Uiso   1.00
C523   C     0.02741   0.01924   0.64345   0.00000  Uiso   1.00
C524   C     0.04732   0.82972   0.59273   0.00000  Uiso   1.00
C525   C     0.01388   0.77146   0.60197   0.00000  Uiso   1.00
C526   C     0.04209   0.74764   0.64357   0.00000  Uiso   1.00
C527   C     0.06201   0.87476   0.50208   0.00000  Uiso   1.00
C528   C     0.04093   0.85434   0.43511   0.00000  Uiso   1.00
C529   C     0.08152   0.86843   0.40040   0.00000  Uiso   1.00
H530   H     0.18125   0.95171   0.63110   0.00000  Uiso   1.00
H531   H     0.17107   0.05141   0.68957   0.00000  Uiso   1.00
H532   H     0.18114   0.86507   0.68965   0.00000  Uiso   1.00
H533   H     0.20819   0.94794   0.52282   0.00000  Uiso   1.00
H534   H     0.13353   0.14724   0.74066   0.00000  Uiso   1.00
H535   H     0.15478   0.75432   0.74080   0.00000  Uiso   1.00
H536   H     0.21182   0.92908   0.38901   0.00000  Uiso   1.00
H537   H     0.97904   0.83855   0.52508   0.00000  Uiso   1.00
H538   H     0.95776   0.93204   0.57773   0.00000  Uiso   1.00
H539   H     0.96783   0.74570   0.57781   0.00000  Uiso   1.00
H540   H     0.99488   0.82858   0.41099   0.00000  Uiso   1.00
H541   H     0.96040   0.05036   0.64989   0.00000  Uiso   1.00
H542   H     0.98164   0.65744   0.65003   0.00000  Uiso   1.00
H543   H     0.03869   0.83220   0.29824   0.00000  Uiso   1.00
O544   O     0.03661   0.16234   0.73184   0.00000  Uiso   1.00
O545   O     0.06449   0.64683   0.73202   0.00000  Uiso   1.00
O546   O     0.13933   0.87611   0.27048   0.00000  Uiso   1.00
N547   N     0.09571   0.11162   0.71206   0.00000  Uiso   1.00
N548   N     0.11557   0.74426   0.71220   0.00000  Uiso   1.00
N549   N     0.16890   0.90763   0.38331   0.00000  Uiso   1.00
N550   N     0.00255   0.05949   0.66322   0.00000  Uiso   1.00
N551   N     0.02241   0.69213   0.66336   0.00000  Uiso   1.00
N552   N     0.07574   0.85550   0.33447   0.00000  Uiso   1.00
