data_job_03840
_audit_creation_date              2018-12-19
_audit_creation_method            'Materials Studio'
_symmetry_space_group_name_H-M    'P1'
_symmetry_Int_Tables_number       1
_symmetry_cell_setting            triclinic
loop_
_symmetry_equiv_pos_as_xyz
  x,y,z
_cell_length_a                    9.6039
_cell_length_b                    11.4126
_cell_length_c                    14.3220
_cell_angle_alpha                 110.6042
_cell_angle_beta                  75.3871
_cell_angle_gamma                 83.1492
loop_
_atom_site_label
_atom_site_type_symbol
_atom_site_fract_x
_atom_site_fract_y
_atom_site_fract_z
_atom_site_U_iso_or_equiv
_atom_site_adp_type
_atom_site_occupancy
C1     C     0.54786   0.41909   0.21928   0.00000  Uiso   1.00
C2     C     0.70461   0.43008   0.21913   0.00000  Uiso   1.00
C3     C     0.74971   0.54392   0.25690   0.00000  Uiso   1.00
C4     C     0.89792   0.53356   0.24966   0.00000  Uiso   1.00
C5     C     0.12620   0.56887   0.25599   0.00000  Uiso   1.00
C6     C     0.55967   0.34161   0.10532   0.00000  Uiso   1.00
C7     C     0.48290   0.38106   0.04742   0.00000  Uiso   1.00
C8     C     0.50910   0.29622   0.94437   0.00000  Uiso   1.00
C9     C     0.51228   0.19414   0.77404   0.00000  Uiso   1.00
C10    C     0.50473   0.33426   0.27852   0.00000  Uiso   1.00
C11    C     0.38174   0.36751   0.36622   0.00000  Uiso   1.00
C12    C     0.36166   0.27646   0.40898   0.00000  Uiso   1.00
C13    C     0.27953   0.16297   0.50756   0.00000  Uiso   1.00
C14    C     0.73088   0.19828   0.13923   0.00000  Uiso   1.00
C15    C     0.80401   0.31014   0.17565   0.00000  Uiso   1.00
C16    C     0.95220   0.29961   0.16835   0.00000  Uiso   1.00
C17    C     0.99751   0.41341   0.20611   0.00000  Uiso   1.00
C18    C     0.65908   0.22168   0.06184   0.00000  Uiso   1.00
C19    C     0.68539   0.13676   0.95886   0.00000  Uiso   1.00
C20    C     0.60869   0.17607   0.90081   0.00000  Uiso   1.00
C21    C     0.60414   0.21433   0.23504   0.00000  Uiso   1.00
C22    C     0.58423   0.12321   0.27767   0.00000  Uiso   1.00
C23    C     0.46124   0.15631   0.36542   0.00000  Uiso   1.00
H24    H     0.47047   0.51247   0.25312   0.00000  Uiso   1.00
H25    H     0.67275   0.63672   0.29054   0.00000  Uiso   1.00
H26    H     0.40597   0.47388   0.08108   0.00000  Uiso   1.00
H27    H     0.30484   0.46033   0.39984   0.00000  Uiso   1.00
H28    H     0.94086   0.72158   0.31281   0.00000  Uiso   1.00
H29    H     0.37831   0.37820   0.87118   0.00000  Uiso   1.00
H30    H     0.16504   0.34964   0.54335   0.00000  Uiso   1.00
H31    H     0.80827   0.10490   0.10538   0.00000  Uiso   1.00
H32    H     0.02910   0.20678   0.13470   0.00000  Uiso   1.00
H33    H     0.76232   0.04395   0.92524   0.00000  Uiso   1.00
H34    H     0.66118   0.03040   0.24400   0.00000  Uiso   1.00
H35    H     0.23009   0.37263   0.18632   0.00000  Uiso   1.00
H36    H     0.66753   0.02926   0.74469   0.00000  Uiso   1.00
H37    H     0.45427   0.00069   0.41686   0.00000  Uiso   1.00
O38    O     0.22466   0.62148   0.27148   0.00000  Uiso   1.00
O39    O     0.48659   0.17098   0.69209   0.00000  Uiso   1.00
O40    O     0.20679   0.13351   0.57396   0.00000  Uiso   1.00
N41    N     0.97862   0.62547   0.27904   0.00000  Uiso   1.00
N42    N     0.45269   0.30445   0.86614   0.00000  Uiso   1.00
N43    N     0.25327   0.27773   0.49454   0.00000  Uiso   1.00
N44    N     0.13425   0.43770   0.21098   0.00000  Uiso   1.00
N45    N     0.60832   0.11668   0.79808   0.00000  Uiso   1.00
N46    N     0.40890   0.08996   0.42648   0.00000  Uiso   1.00
C47    C     0.45214   0.58091   0.78072   0.00000  Uiso   1.00
C48    C     0.29539   0.56992   0.78087   0.00000  Uiso   1.00
C49    C     0.25029   0.45608   0.74310   0.00000  Uiso   1.00
C50    C     0.10208   0.46644   0.75034   0.00000  Uiso   1.00
C51    C     0.87380   0.43113   0.74401   0.00000  Uiso   1.00
C52    C     0.44033   0.65839   0.89468   0.00000  Uiso   1.00
C53    C     0.51710   0.61894   0.95258   0.00000  Uiso   1.00
C54    C     0.49090   0.70378   0.05563   0.00000  Uiso   1.00
C55    C     0.48772   0.80586   0.22596   0.00000  Uiso   1.00
C56    C     0.49527   0.66574   0.72148   0.00000  Uiso   1.00
C57    C     0.61826   0.63249   0.63378   0.00000  Uiso   1.00
C58    C     0.63834   0.72354   0.59102   0.00000  Uiso   1.00
C59    C     0.72047   0.83703   0.49244   0.00000  Uiso   1.00
C60    C     0.26912   0.80172   0.86077   0.00000  Uiso   1.00
C61    C     0.19599   0.68986   0.82435   0.00000  Uiso   1.00
C62    C     0.04780   0.70039   0.83165   0.00000  Uiso   1.00
C63    C     0.00249   0.58659   0.79389   0.00000  Uiso   1.00
C64    C     0.34092   0.77832   0.93816   0.00000  Uiso   1.00
C65    C     0.31461   0.86324   0.04114   0.00000  Uiso   1.00
C66    C     0.39131   0.82393   0.09919   0.00000  Uiso   1.00
C67    C     0.39586   0.78567   0.76496   0.00000  Uiso   1.00
C68    C     0.41577   0.87679   0.72233   0.00000  Uiso   1.00
C69    C     0.53876   0.84369   0.63458   0.00000  Uiso   1.00
H70    H     0.52953   0.48753   0.74688   0.00000  Uiso   1.00
H71    H     0.32725   0.36328   0.70946   0.00000  Uiso   1.00
H72    H     0.59403   0.52612   0.91892   0.00000  Uiso   1.00
H73    H     0.69516   0.53967   0.60016   0.00000  Uiso   1.00
H74    H     0.05914   0.27842   0.68719   0.00000  Uiso   1.00
H75    H     0.62169   0.62180   0.12882   0.00000  Uiso   1.00
H76    H     0.83496   0.65036   0.45665   0.00000  Uiso   1.00
H77    H     0.19173   0.89510   0.89462   0.00000  Uiso   1.00
H78    H     0.97090   0.79322   0.86530   0.00000  Uiso   1.00
H79    H     0.23768   0.95605   0.07476   0.00000  Uiso   1.00
H80    H     0.33882   0.96960   0.75600   0.00000  Uiso   1.00
H81    H     0.76991   0.62737   0.81368   0.00000  Uiso   1.00
H82    H     0.33247   0.97074   0.25531   0.00000  Uiso   1.00
H83    H     0.54573   0.99931   0.58314   0.00000  Uiso   1.00
O84    O     0.77534   0.37852   0.72852   0.00000  Uiso   1.00
O85    O     0.51341   0.82902   0.30791   0.00000  Uiso   1.00
O86    O     0.79321   0.86649   0.42604   0.00000  Uiso   1.00
N87    N     0.02138   0.37453   0.72096   0.00000  Uiso   1.00
N88    N     0.54731   0.69555   0.13386   0.00000  Uiso   1.00
N89    N     0.74673   0.72227   0.50546   0.00000  Uiso   1.00
N90    N     0.86575   0.56230   0.78902   0.00000  Uiso   1.00
N91    N     0.39168   0.88332   0.20192   0.00000  Uiso   1.00
N92    N     0.59110   0.91004   0.57352   0.00000  Uiso   1.00
