data_job_02695
_audit_creation_date              2018-12-19
_audit_creation_method            'Materials Studio'
_symmetry_space_group_name_H-M    'P1'
_symmetry_Int_Tables_number       1
_symmetry_cell_setting            triclinic
loop_
_symmetry_equiv_pos_as_xyz
  x,y,z
_cell_length_a                    20.4100
_cell_length_b                    20.4100
_cell_length_c                    32.8958
_cell_angle_alpha                 90.0000
_cell_angle_beta                  90.0000
_cell_angle_gamma                 120.0000
loop_
_atom_site_label
_atom_site_type_symbol
_atom_site_fract_x
_atom_site_fract_y
_atom_site_fract_z
_atom_site_U_iso_or_equiv
_atom_site_adp_type
_atom_site_occupancy
C1     C     0.03170   0.38074   0.42484   0.00000  Uiso   1.00
C2     C     0.04888   0.34142   0.45919   0.00000  Uiso   1.00
C3     C     0.07246   0.28880   0.45446   0.00000  Uiso   1.00
C4     C     0.08519   0.25935   0.48968   0.00000  Uiso   1.00
C5     C     0.11342   0.19486   0.53716   0.00000  Uiso   1.00
C6     C     0.95079   0.36367   0.43180   0.00000  Uiso   1.00
C7     C     0.89191   0.32977   0.40403   0.00000  Uiso   1.00
C8     C     0.82207   0.31906   0.41619   0.00000  Uiso   1.00
C9     C     0.69804   0.28916   0.42112   0.00000  Uiso   1.00
C10    C     0.08219   0.46540   0.43217   0.00000  Uiso   1.00
C11    C     0.13377   0.51705   0.40471   0.00000  Uiso   1.00
C12    C     0.17455   0.59200   0.41718   0.00000  Uiso   1.00
C13    C     0.25453   0.72006   0.42269   0.00000  Uiso   1.00
C14    C     0.01238   0.42200   0.49582   0.00000  Uiso   1.00
C15    C     0.03838   0.36383   0.49774   0.00000  Uiso   1.00
C16    C     0.05109   0.33445   0.53298   0.00000  Uiso   1.00
C17    C     0.07469   0.28180   0.52830   0.00000  Uiso   1.00
C18    C     0.94030   0.38608   0.47035   0.00000  Uiso   1.00
C19    C     0.87054   0.37542   0.48255   0.00000  Uiso   1.00
C20    C     0.81156   0.34151   0.45481   0.00000  Uiso   1.00
C21    C     0.07170   0.48781   0.47072   0.00000  Uiso   1.00
C22    C     0.11240   0.56270   0.48323   0.00000  Uiso   1.00
C23    C     0.16404   0.61445   0.45580   0.00000  Uiso   1.00
H24    H     0.03986   0.36329   0.39483   0.00000  Uiso   1.00
H25    H     0.08056   0.27147   0.42462   0.00000  Uiso   1.00
H26    H     0.90005   0.31244   0.37420   0.00000  Uiso   1.00
H27    H     0.14187   0.49969   0.37488   0.00000  Uiso   1.00
H28    H     0.12104   0.17953   0.47465   0.00000  Uiso   1.00
H29    H     0.74041   0.26595   0.36832   0.00000  Uiso   1.00
H30    H     0.25034   0.66080   0.36976   0.00000  Uiso   1.00
H31    H     0.00421   0.43945   0.52583   0.00000  Uiso   1.00
H32    H     0.04296   0.35180   0.56281   0.00000  Uiso   1.00
H33    H     0.86244   0.39277   0.51239   0.00000  Uiso   1.00
H34    H     0.10427   0.58002   0.51307   0.00000  Uiso   1.00
H35    H     0.09051   0.24473   0.58681   0.00000  Uiso   1.00
H36    H     0.70988   0.33115   0.48048   0.00000  Uiso   1.00
H37    H     0.21982   0.72600   0.48192   0.00000  Uiso   1.00
O38    O     0.13188   0.15308   0.55270   0.00000  Uiso   1.00
O39    O     0.63252   0.26647   0.41319   0.00000  Uiso   1.00
O40    O     0.30154   0.78450   0.41508   0.00000  Uiso   1.00
N41    N     0.10855   0.20691   0.49597   0.00000  Uiso   1.00
N42    N     0.75268   0.28770   0.39657   0.00000  Uiso   1.00
N43    N     0.22942   0.65685   0.39790   0.00000  Uiso   1.00
N44    N     0.09213   0.24200   0.55633   0.00000  Uiso   1.00
N45    N     0.73626   0.32278   0.45692   0.00000  Uiso   1.00
N46    N     0.21299   0.69194   0.45826   0.00000  Uiso   1.00
C47    C     0.97847   0.63456   0.93863   0.00000  Uiso   1.00
C48    C     0.95246   0.67022   0.97091   0.00000  Uiso   1.00
C49    C     0.95299   0.73820   0.96711   0.00000  Uiso   1.00
C50    C     0.92691   0.76111   0.00009   0.00000  Uiso   1.00
C51    C     0.89047   0.82313   0.04482   0.00000  Uiso   1.00
C52    C     0.03913   0.62283   0.95876   0.00000  Uiso   1.00
C53    C     0.11253   0.65096   0.94475   0.00000  Uiso   1.00
C54    C     0.15941   0.63397   0.96750   0.00000  Uiso   1.00
C55    C     0.25751   0.62237   0.99336   0.00000  Uiso   1.00
C56    C     0.91143   0.55566   0.93097   0.00000  Uiso   1.00
C57    C     0.87746   0.52730   0.89360   0.00000  Uiso   1.00
C58    C     0.81683   0.45375   0.89295   0.00000  Uiso   1.00
C59    C     0.71666   0.33785   0.87567   0.00000  Uiso   1.00
C60    C     0.93121   0.55435   0.00394   0.00000  Uiso   1.00
C61    C     0.92679   0.62665   0.00638   0.00000  Uiso   1.00
C62    C     0.90070   0.64946   0.03937   0.00000  Uiso   1.00
C63    C     0.90119   0.71746   0.03563   0.00000  Uiso   1.00
C64    C     0.01347   0.57927   0.99423   0.00000  Uiso   1.00
C65    C     0.06024   0.56222   0.01701   0.00000  Uiso   1.00
C66    C     0.13369   0.59032   0.00304   0.00000  Uiso   1.00
C67    C     0.88576   0.51209   0.96645   0.00000  Uiso   1.00
C68    C     0.82518   0.43856   0.96586   0.00000  Uiso   1.00
C69    C     0.79112   0.41010   0.92849   0.00000  Uiso   1.00
H70    H     0.99846   0.66848   0.91101   0.00000  Uiso   1.00
H71    H     0.97287   0.77191   0.93965   0.00000  Uiso   1.00
H72    H     0.13238   0.68467   0.91729   0.00000  Uiso   1.00
H73    H     0.89734   0.56103   0.86615   0.00000  Uiso   1.00
H74    H     0.93320   0.86738   0.98706   0.00000  Uiso   1.00
H75    H     0.26953   0.68341   0.93991   0.00000  Uiso   1.00
H76    H     0.77392   0.42270   0.83206   0.00000  Uiso   1.00
H77    H     0.91122   0.52043   0.03156   0.00000  Uiso   1.00
H78    H     0.88084   0.61573   0.06682   0.00000  Uiso   1.00
H79    H     0.04036   0.52850   0.04446   0.00000  Uiso   1.00
H80    H     0.80533   0.40487   0.99332   0.00000  Uiso   1.00
H81    H     0.85851   0.74062   0.09028   0.00000  Uiso   1.00
H82    H     0.19485   0.55666   0.04312   0.00000  Uiso   1.00
H83    H     0.69924   0.29595   0.93528   0.00000  Uiso   1.00
O84    O     0.87747   0.86938   0.05970   0.00000  Uiso   1.00
O85    O     0.31872   0.62802   0.99782   0.00000  Uiso   1.00
O86    O     0.66849   0.28597   0.85634   0.00000  Uiso   1.00
N87    N     0.91978   0.82446   0.00651   0.00000  Uiso   1.00
N88    N     0.23423   0.65247   0.96243   0.00000  Uiso   1.00
N89    N     0.77089   0.40872   0.86160   0.00000  Uiso   1.00
N90    N     0.87959   0.75625   0.06205   0.00000  Uiso   1.00
N91    N     0.19404   0.58427   0.01797   0.00000  Uiso   1.00
N92    N     0.73070   0.34052   0.91714   0.00000  Uiso   1.00
C93    C     0.61926   0.65096   0.09151   0.00000  Uiso   1.00
C94    C     0.65858   0.70746   0.12586   0.00000  Uiso   1.00
C95    C     0.71120   0.78366   0.12113   0.00000  Uiso   1.00
C96    C     0.74065   0.82584   0.15635   0.00000  Uiso   1.00
C97    C     0.80514   0.91857   0.20383   0.00000  Uiso   1.00
C98    C     0.63633   0.58712   0.09847   0.00000  Uiso   1.00
C99    C     0.67023   0.56213   0.07069   0.00000  Uiso   1.00
C100   C     0.68094   0.50301   0.08286   0.00000  Uiso   1.00
C101   C     0.71084   0.40887   0.08779   0.00000  Uiso   1.00
C102   C     0.53460   0.61679   0.09884   0.00000  Uiso   1.00
C103   C     0.48295   0.61672   0.07137   0.00000  Uiso   1.00
C104   C     0.40800   0.58255   0.08384   0.00000  Uiso   1.00
C105   C     0.27994   0.53447   0.08935   0.00000  Uiso   1.00
C106   C     0.57800   0.59038   0.16248   0.00000  Uiso   1.00
C107   C     0.63617   0.67456   0.16441   0.00000  Uiso   1.00
C108   C     0.66555   0.71664   0.19965   0.00000  Uiso   1.00
C109   C     0.71820   0.79288   0.19497   0.00000  Uiso   1.00
C110   C     0.61392   0.55422   0.13702   0.00000  Uiso   1.00
C111   C     0.62458   0.49511   0.14922   0.00000  Uiso   1.00
C112   C     0.65849   0.47005   0.12148   0.00000  Uiso   1.00
C113   C     0.51219   0.58388   0.13739   0.00000  Uiso   1.00
C114   C     0.43730   0.54970   0.14990   0.00000  Uiso   1.00
C115   C     0.38555   0.54958   0.12246   0.00000  Uiso   1.00
H116   H     0.63671   0.67657   0.06150   0.00000  Uiso   1.00
H117   H     0.72853   0.80910   0.09129   0.00000  Uiso   1.00
H118   H     0.68756   0.58760   0.04086   0.00000  Uiso   1.00
H119   H     0.50031   0.64218   0.04155   0.00000  Uiso   1.00
H120   H     0.82047   0.94151   0.14132   0.00000  Uiso   1.00
H121   H     0.73405   0.47446   0.03499   0.00000  Uiso   1.00
H122   H     0.33920   0.58955   0.03643   0.00000  Uiso   1.00
H123   H     0.56055   0.56477   0.19250   0.00000  Uiso   1.00
H124   H     0.64820   0.69116   0.22948   0.00000  Uiso   1.00
H125   H     0.60723   0.46966   0.17905   0.00000  Uiso   1.00
H126   H     0.41998   0.52424   0.17973   0.00000  Uiso   1.00
H127   H     0.75527   0.84578   0.25348   0.00000  Uiso   1.00
H128   H     0.66885   0.37873   0.14715   0.00000  Uiso   1.00
H129   H     0.27400   0.49382   0.14859   0.00000  Uiso   1.00
O130   O     0.84692   0.97880   0.21936   0.00000  Uiso   1.00
O131   O     0.73353   0.36605   0.07986   0.00000  Uiso   1.00
O132   O     0.21550   0.51704   0.08175   0.00000  Uiso   1.00
N133   N     0.79309   0.90164   0.16264   0.00000  Uiso   1.00
N134   N     0.71230   0.46498   0.06323   0.00000  Uiso   1.00
N135   N     0.34315   0.57256   0.06457   0.00000  Uiso   1.00
N136   N     0.75800   0.85013   0.22299   0.00000  Uiso   1.00
N137   N     0.67722   0.41347   0.12358   0.00000  Uiso   1.00
N138   N     0.30806   0.52105   0.12492   0.00000  Uiso   1.00
C139   C     0.36544   0.34391   0.60529   0.00000  Uiso   1.00
C140   C     0.32978   0.28224   0.63757   0.00000  Uiso   1.00
C141   C     0.26180   0.21479   0.63378   0.00000  Uiso   1.00
C142   C     0.23889   0.16580   0.66675   0.00000  Uiso   1.00
C143   C     0.17687   0.06734   0.71149   0.00000  Uiso   1.00
C144   C     0.37717   0.41630   0.62543   0.00000  Uiso   1.00
C145   C     0.34904   0.46157   0.61142   0.00000  Uiso   1.00
C146   C     0.36603   0.52544   0.63417   0.00000  Uiso   1.00
C147   C     0.37763   0.63514   0.66003   0.00000  Uiso   1.00
C148   C     0.44434   0.35577   0.59764   0.00000  Uiso   1.00
C149   C     0.47270   0.35016   0.56026   0.00000  Uiso   1.00
C150   C     0.54625   0.36309   0.55962   0.00000  Uiso   1.00
C151   C     0.66215   0.37881   0.54234   0.00000  Uiso   1.00
C152   C     0.44565   0.37686   0.67061   0.00000  Uiso   1.00
C153   C     0.37335   0.30014   0.67305   0.00000  Uiso   1.00
C154   C     0.35054   0.25124   0.70604   0.00000  Uiso   1.00
C155   C     0.28254   0.18373   0.70229   0.00000  Uiso   1.00
C156   C     0.42073   0.43420   0.66090   0.00000  Uiso   1.00
C157   C     0.43778   0.49802   0.68368   0.00000  Uiso   1.00
C158   C     0.40968   0.54337   0.66971   0.00000  Uiso   1.00
C159   C     0.48791   0.37366   0.63312   0.00000  Uiso   1.00
C160   C     0.56144   0.38661   0.63253   0.00000  Uiso   1.00
C161   C     0.58990   0.38102   0.59516   0.00000  Uiso   1.00
H162   H     0.33152   0.32998   0.57767   0.00000  Uiso   1.00
H163   H     0.22809   0.20096   0.60632   0.00000  Uiso   1.00
H164   H     0.31533   0.44771   0.58396   0.00000  Uiso   1.00
H165   H     0.43897   0.33631   0.53282   0.00000  Uiso   1.00
H166   H     0.13262   0.06582   0.65373   0.00000  Uiso   1.00
H167   H     0.31659   0.58612   0.60657   0.00000  Uiso   1.00
H168   H     0.57730   0.35122   0.49873   0.00000  Uiso   1.00
H169   H     0.47957   0.39079   0.69823   0.00000  Uiso   1.00
H170   H     0.38427   0.26511   0.73349   0.00000  Uiso   1.00
H171   H     0.47150   0.51186   0.71113   0.00000  Uiso   1.00
H172   H     0.59513   0.40046   0.65999   0.00000  Uiso   1.00
H173   H     0.25938   0.11789   0.75695   0.00000  Uiso   1.00
H174   H     0.44334   0.63819   0.70979   0.00000  Uiso   1.00
H175   H     0.70405   0.40329   0.60195   0.00000  Uiso   1.00
O176   O     0.13062   0.00809   0.72636   0.00000  Uiso   1.00
O177   O     0.37198   0.69070   0.66449   0.00000  Uiso   1.00
O178   O     0.71403   0.38252   0.52301   0.00000  Uiso   1.00
N179   N     0.17554   0.09532   0.67318   0.00000  Uiso   1.00
N180   N     0.34753   0.58176   0.62909   0.00000  Uiso   1.00
N181   N     0.59128   0.36217   0.52827   0.00000  Uiso   1.00
N182   N     0.24375   0.12333   0.72872   0.00000  Uiso   1.00
N183   N     0.41573   0.60977   0.68463   0.00000  Uiso   1.00
N184   N     0.65948   0.39018   0.58381   0.00000  Uiso   1.00
C185   C     0.34904   0.96830   0.75818   0.00000  Uiso   1.00
C186   C     0.29254   0.95112   0.79253   0.00000  Uiso   1.00
C187   C     0.21634   0.92754   0.78779   0.00000  Uiso   1.00
C188   C     0.17416   0.91481   0.82302   0.00000  Uiso   1.00
C189   C     0.08143   0.88658   0.87049   0.00000  Uiso   1.00
C190   C     0.41288   0.04921   0.76513   0.00000  Uiso   1.00
C191   C     0.43787   0.10809   0.73736   0.00000  Uiso   1.00
C192   C     0.49699   0.17793   0.74952   0.00000  Uiso   1.00
C193   C     0.59113   0.30196   0.75446   0.00000  Uiso   1.00
C194   C     0.38321   0.91781   0.76550   0.00000  Uiso   1.00
C195   C     0.38328   0.86623   0.73804   0.00000  Uiso   1.00
C196   C     0.41745   0.82545   0.75051   0.00000  Uiso   1.00
C197   C     0.46553   0.74547   0.75602   0.00000  Uiso   1.00
C198   C     0.40962   0.98762   0.82915   0.00000  Uiso   1.00
C199   C     0.32544   0.96162   0.83108   0.00000  Uiso   1.00
C200   C     0.28336   0.94891   0.86632   0.00000  Uiso   1.00
C201   C     0.20712   0.92531   0.86164   0.00000  Uiso   1.00
C202   C     0.44578   0.05970   0.80368   0.00000  Uiso   1.00
C203   C     0.50489   0.12946   0.81589   0.00000  Uiso   1.00
C204   C     0.52995   0.18844   0.78814   0.00000  Uiso   1.00
C205   C     0.41612   0.92830   0.80405   0.00000  Uiso   1.00
C206   C     0.45030   0.88760   0.81657   0.00000  Uiso   1.00
C207   C     0.45042   0.83596   0.78913   0.00000  Uiso   1.00
H208   H     0.32343   0.96014   0.72816   0.00000  Uiso   1.00
H209   H     0.19090   0.91944   0.75795   0.00000  Uiso   1.00
H210   H     0.41240   0.09995   0.70753   0.00000  Uiso   1.00
H211   H     0.35782   0.85813   0.70821   0.00000  Uiso   1.00
H212   H     0.05849   0.87896   0.80798   0.00000  Uiso   1.00
H213   H     0.52554   0.25959   0.70166   0.00000  Uiso   1.00
H214   H     0.41045   0.74966   0.70309   0.00000  Uiso   1.00
H215   H     0.43523   0.99579   0.85916   0.00000  Uiso   1.00
H216   H     0.30884   0.95704   0.89615   0.00000  Uiso   1.00
H217   H     0.53034   0.13756   0.84572   0.00000  Uiso   1.00
H218   H     0.47576   0.89573   0.84640   0.00000  Uiso   1.00
H219   H     0.15422   0.90949   0.92015   0.00000  Uiso   1.00
H220   H     0.62127   0.29012   0.81382   0.00000  Uiso   1.00
H221   H     0.50618   0.78018   0.81525   0.00000  Uiso   1.00
O222   O     0.02120   0.86812   0.88603   0.00000  Uiso   1.00
O223   O     0.63395   0.36748   0.74653   0.00000  Uiso   1.00
O224   O     0.48296   0.69846   0.74841   0.00000  Uiso   1.00
N225   N     0.09836   0.89145   0.82931   0.00000  Uiso   1.00
N226   N     0.53502   0.24732   0.72990   0.00000  Uiso   1.00
N227   N     0.42744   0.77058   0.73124   0.00000  Uiso   1.00
N228   N     0.14987   0.90787   0.88966   0.00000  Uiso   1.00
N229   N     0.58653   0.26374   0.79025   0.00000  Uiso   1.00
N230   N     0.47895   0.78701   0.79159   0.00000  Uiso   1.00
C231   C     0.65609   0.02153   0.27196   0.00000  Uiso   1.00
C232   C     0.71776   0.04754   0.30424   0.00000  Uiso   1.00
C233   C     0.78521   0.04701   0.30044   0.00000  Uiso   1.00
C234   C     0.83420   0.07309   0.33342   0.00000  Uiso   1.00
C235   C     0.93266   0.10953   0.37815   0.00000  Uiso   1.00
C236   C     0.58370   0.96087   0.29209   0.00000  Uiso   1.00
C237   C     0.53843   0.88747   0.27808   0.00000  Uiso   1.00
C238   C     0.47456   0.84059   0.30083   0.00000  Uiso   1.00
C239   C     0.36486   0.74249   0.32669   0.00000  Uiso   1.00
C240   C     0.64423   0.08857   0.26431   0.00000  Uiso   1.00
C241   C     0.64984   0.12254   0.22693   0.00000  Uiso   1.00
C242   C     0.63691   0.18317   0.22629   0.00000  Uiso   1.00
C243   C     0.62119   0.28334   0.20900   0.00000  Uiso   1.00
C244   C     0.62314   0.06879   0.33727   0.00000  Uiso   1.00
C245   C     0.69986   0.07321   0.33971   0.00000  Uiso   1.00
C246   C     0.74876   0.09930   0.37271   0.00000  Uiso   1.00
C247   C     0.81627   0.09881   0.36896   0.00000  Uiso   1.00
C248   C     0.56580   0.98653   0.32757   0.00000  Uiso   1.00
C249   C     0.50198   0.93976   0.35034   0.00000  Uiso   1.00
C250   C     0.45663   0.86631   0.33637   0.00000  Uiso   1.00
C251   C     0.62634   0.11424   0.29978   0.00000  Uiso   1.00
C252   C     0.61339   0.17482   0.29919   0.00000  Uiso   1.00
C253   C     0.61898   0.20888   0.26183   0.00000  Uiso   1.00
H254   H     0.67002   0.00154   0.24434   0.00000  Uiso   1.00
H255   H     0.79904   0.02713   0.27299   0.00000  Uiso   1.00
H256   H     0.55229   0.86762   0.25063   0.00000  Uiso   1.00
H257   H     0.66369   0.10266   0.19948   0.00000  Uiso   1.00
H258   H     0.93418   0.06680   0.32040   0.00000  Uiso   1.00
H259   H     0.41388   0.73047   0.27324   0.00000  Uiso   1.00
H260   H     0.64878   0.22608   0.16540   0.00000  Uiso   1.00
H261   H     0.60921   0.08878   0.36489   0.00000  Uiso   1.00
H262   H     0.73489   0.11916   0.40016   0.00000  Uiso   1.00
H263   H     0.48814   0.95964   0.37779   0.00000  Uiso   1.00
H264   H     0.59954   0.19467   0.32665   0.00000  Uiso   1.00
H265   H     0.88211   0.14149   0.42361   0.00000  Uiso   1.00
H266   H     0.36181   0.80515   0.37645   0.00000  Uiso   1.00
H267   H     0.59671   0.30076   0.26861   0.00000  Uiso   1.00
O268   O     0.99191   0.12253   0.39303   0.00000  Uiso   1.00
O269   O     0.30930   0.68128   0.33116   0.00000  Uiso   1.00
O270   O     0.61748   0.33151   0.18967   0.00000  Uiso   1.00
N271   N     0.90468   0.08022   0.33985   0.00000  Uiso   1.00
N272   N     0.41824   0.76577   0.29576   0.00000  Uiso   1.00
N273   N     0.63783   0.22911   0.19493   0.00000  Uiso   1.00
N274   N     0.87667   0.12041   0.39539   0.00000  Uiso   1.00
N275   N     0.39023   0.80596   0.35130   0.00000  Uiso   1.00
N276   N     0.60982   0.26930   0.25047   0.00000  Uiso   1.00
C277   C     0.38074   0.03170   0.57516   0.00000  Uiso   1.00
C278   C     0.34142   0.04888   0.54081   0.00000  Uiso   1.00
C279   C     0.28880   0.07246   0.54554   0.00000  Uiso   1.00
C280   C     0.25935   0.08519   0.51032   0.00000  Uiso   1.00
C281   C     0.19486   0.11342   0.46284   0.00000  Uiso   1.00
C282   C     0.36367   0.95079   0.56820   0.00000  Uiso   1.00
C283   C     0.32977   0.89191   0.59597   0.00000  Uiso   1.00
C284   C     0.31906   0.82207   0.58381   0.00000  Uiso   1.00
C285   C     0.28916   0.69804   0.57888   0.00000  Uiso   1.00
C286   C     0.46540   0.08219   0.56783   0.00000  Uiso   1.00
C287   C     0.51705   0.13377   0.59529   0.00000  Uiso   1.00
C288   C     0.59200   0.17455   0.58282   0.00000  Uiso   1.00
C289   C     0.72006   0.25453   0.57731   0.00000  Uiso   1.00
C290   C     0.42200   0.01238   0.50418   0.00000  Uiso   1.00
C291   C     0.36383   0.03838   0.50226   0.00000  Uiso   1.00
C292   C     0.33445   0.05109   0.46702   0.00000  Uiso   1.00
C293   C     0.28180   0.07469   0.47170   0.00000  Uiso   1.00
C294   C     0.38608   0.94030   0.52965   0.00000  Uiso   1.00
C295   C     0.37542   0.87054   0.51745   0.00000  Uiso   1.00
C296   C     0.34151   0.81156   0.54519   0.00000  Uiso   1.00
C297   C     0.48781   0.07170   0.52928   0.00000  Uiso   1.00
C298   C     0.56270   0.11240   0.51677   0.00000  Uiso   1.00
C299   C     0.61445   0.16404   0.54420   0.00000  Uiso   1.00
H300   H     0.36329   0.03986   0.60517   0.00000  Uiso   1.00
H301   H     0.27147   0.08056   0.57538   0.00000  Uiso   1.00
H302   H     0.31244   0.90005   0.62580   0.00000  Uiso   1.00
H303   H     0.49969   0.14187   0.62512   0.00000  Uiso   1.00
H304   H     0.17953   0.12104   0.52535   0.00000  Uiso   1.00
H305   H     0.26595   0.74041   0.63168   0.00000  Uiso   1.00
H306   H     0.66080   0.25034   0.63024   0.00000  Uiso   1.00
H307   H     0.43945   0.00421   0.47417   0.00000  Uiso   1.00
H308   H     0.35180   0.04296   0.43719   0.00000  Uiso   1.00
H309   H     0.39277   0.86244   0.48761   0.00000  Uiso   1.00
H310   H     0.58002   0.10427   0.48693   0.00000  Uiso   1.00
H311   H     0.24473   0.09051   0.41319   0.00000  Uiso   1.00
H312   H     0.33115   0.70988   0.51952   0.00000  Uiso   1.00
H313   H     0.72600   0.21982   0.51808   0.00000  Uiso   1.00
O314   O     0.15308   0.13188   0.44730   0.00000  Uiso   1.00
O315   O     0.26647   0.63252   0.58681   0.00000  Uiso   1.00
O316   O     0.78450   0.30154   0.58492   0.00000  Uiso   1.00
N317   N     0.20691   0.10855   0.50403   0.00000  Uiso   1.00
N318   N     0.28770   0.75268   0.60343   0.00000  Uiso   1.00
N319   N     0.65685   0.22942   0.60210   0.00000  Uiso   1.00
N320   N     0.24200   0.09213   0.44367   0.00000  Uiso   1.00
N321   N     0.32278   0.73626   0.54308   0.00000  Uiso   1.00
N322   N     0.69194   0.21299   0.54174   0.00000  Uiso   1.00
C323   C     0.63456   0.97847   0.06137   0.00000  Uiso   1.00
C324   C     0.67022   0.95246   0.02909   0.00000  Uiso   1.00
C325   C     0.73820   0.95299   0.03289   0.00000  Uiso   1.00
C326   C     0.76111   0.92691   0.99991   0.00000  Uiso   1.00
C327   C     0.82313   0.89047   0.95518   0.00000  Uiso   1.00
C328   C     0.62283   0.03913   0.04124   0.00000  Uiso   1.00
C329   C     0.65096   0.11253   0.05525   0.00000  Uiso   1.00
C330   C     0.63397   0.15941   0.03250   0.00000  Uiso   1.00
C331   C     0.62237   0.25751   0.00664   0.00000  Uiso   1.00
C332   C     0.55566   0.91143   0.06903   0.00000  Uiso   1.00
C333   C     0.52730   0.87746   0.10640   0.00000  Uiso   1.00
C334   C     0.45375   0.81683   0.10705   0.00000  Uiso   1.00
C335   C     0.33785   0.71666   0.12433   0.00000  Uiso   1.00
C336   C     0.55435   0.93121   0.99606   0.00000  Uiso   1.00
C337   C     0.62665   0.92679   0.99362   0.00000  Uiso   1.00
C338   C     0.64946   0.90070   0.96063   0.00000  Uiso   1.00
C339   C     0.71746   0.90119   0.96437   0.00000  Uiso   1.00
C340   C     0.57927   0.01347   0.00577   0.00000  Uiso   1.00
C341   C     0.56222   0.06024   0.98299   0.00000  Uiso   1.00
C342   C     0.59032   0.13369   0.99696   0.00000  Uiso   1.00
C343   C     0.51209   0.88576   0.03355   0.00000  Uiso   1.00
C344   C     0.43856   0.82518   0.03414   0.00000  Uiso   1.00
C345   C     0.41010   0.79112   0.07151   0.00000  Uiso   1.00
H346   H     0.66848   0.99846   0.08899   0.00000  Uiso   1.00
H347   H     0.77191   0.97287   0.06035   0.00000  Uiso   1.00
H348   H     0.68467   0.13238   0.08271   0.00000  Uiso   1.00
H349   H     0.56103   0.89734   0.13385   0.00000  Uiso   1.00
H350   H     0.86738   0.93320   0.01294   0.00000  Uiso   1.00
H351   H     0.68341   0.26953   0.06009   0.00000  Uiso   1.00
H352   H     0.42270   0.77392   0.16794   0.00000  Uiso   1.00
H353   H     0.52043   0.91122   0.96844   0.00000  Uiso   1.00
H354   H     0.61573   0.88084   0.93318   0.00000  Uiso   1.00
H355   H     0.52850   0.04036   0.95554   0.00000  Uiso   1.00
H356   H     0.40487   0.80533   0.00668   0.00000  Uiso   1.00
H357   H     0.74062   0.85851   0.90972   0.00000  Uiso   1.00
H358   H     0.55666   0.19485   0.95688   0.00000  Uiso   1.00
H359   H     0.29595   0.69924   0.06472   0.00000  Uiso   1.00
O360   O     0.86938   0.87747   0.94030   0.00000  Uiso   1.00
O361   O     0.62802   0.31872   0.00218   0.00000  Uiso   1.00
O362   O     0.28597   0.66849   0.14366   0.00000  Uiso   1.00
N363   N     0.82446   0.91978   0.99349   0.00000  Uiso   1.00
N364   N     0.65247   0.23423   0.03757   0.00000  Uiso   1.00
N365   N     0.40872   0.77089   0.13840   0.00000  Uiso   1.00
N366   N     0.75625   0.87959   0.93795   0.00000  Uiso   1.00
N367   N     0.58427   0.19404   0.98203   0.00000  Uiso   1.00
N368   N     0.34052   0.73070   0.08286   0.00000  Uiso   1.00
C369   C     0.65096   0.61926   0.90849   0.00000  Uiso   1.00
C370   C     0.70746   0.65858   0.87414   0.00000  Uiso   1.00
C371   C     0.78366   0.71120   0.87887   0.00000  Uiso   1.00
C372   C     0.82584   0.74065   0.84365   0.00000  Uiso   1.00
C373   C     0.91857   0.80514   0.79617   0.00000  Uiso   1.00
C374   C     0.58712   0.63633   0.90153   0.00000  Uiso   1.00
C375   C     0.56213   0.67023   0.92931   0.00000  Uiso   1.00
C376   C     0.50301   0.68094   0.91714   0.00000  Uiso   1.00
C377   C     0.40887   0.71084   0.91221   0.00000  Uiso   1.00
C378   C     0.61679   0.53460   0.90116   0.00000  Uiso   1.00
C379   C     0.61672   0.48295   0.92863   0.00000  Uiso   1.00
C380   C     0.58255   0.40800   0.91616   0.00000  Uiso   1.00
C381   C     0.53447   0.27994   0.91065   0.00000  Uiso   1.00
C382   C     0.59038   0.57800   0.83752   0.00000  Uiso   1.00
C383   C     0.67456   0.63617   0.83559   0.00000  Uiso   1.00
C384   C     0.71664   0.66555   0.80035   0.00000  Uiso   1.00
C385   C     0.79288   0.71820   0.80503   0.00000  Uiso   1.00
C386   C     0.55422   0.61392   0.86298   0.00000  Uiso   1.00
C387   C     0.49511   0.62458   0.85078   0.00000  Uiso   1.00
C388   C     0.47005   0.65849   0.87852   0.00000  Uiso   1.00
C389   C     0.58388   0.51219   0.86261   0.00000  Uiso   1.00
C390   C     0.54970   0.43730   0.85010   0.00000  Uiso   1.00
C391   C     0.54958   0.38555   0.87754   0.00000  Uiso   1.00
H392   H     0.67657   0.63671   0.93850   0.00000  Uiso   1.00
H393   H     0.80910   0.72853   0.90871   0.00000  Uiso   1.00
H394   H     0.58760   0.68756   0.95914   0.00000  Uiso   1.00
H395   H     0.64218   0.50031   0.95845   0.00000  Uiso   1.00
H396   H     0.94151   0.82047   0.85868   0.00000  Uiso   1.00
H397   H     0.47446   0.73405   0.96501   0.00000  Uiso   1.00
H398   H     0.58955   0.33920   0.96357   0.00000  Uiso   1.00
H399   H     0.56477   0.56055   0.80750   0.00000  Uiso   1.00
H400   H     0.69116   0.64820   0.77052   0.00000  Uiso   1.00
H401   H     0.46966   0.60723   0.82095   0.00000  Uiso   1.00
H402   H     0.52424   0.41998   0.82027   0.00000  Uiso   1.00
H403   H     0.84578   0.75527   0.74652   0.00000  Uiso   1.00
H404   H     0.37873   0.66885   0.85285   0.00000  Uiso   1.00
H405   H     0.49382   0.27400   0.85141   0.00000  Uiso   1.00
O406   O     0.97880   0.84692   0.78064   0.00000  Uiso   1.00
O407   O     0.36605   0.73353   0.92014   0.00000  Uiso   1.00
O408   O     0.51704   0.21550   0.91825   0.00000  Uiso   1.00
N409   N     0.90164   0.79309   0.83736   0.00000  Uiso   1.00
N410   N     0.46498   0.71230   0.93677   0.00000  Uiso   1.00
N411   N     0.57256   0.34315   0.93543   0.00000  Uiso   1.00
N412   N     0.85013   0.75800   0.77701   0.00000  Uiso   1.00
N413   N     0.41347   0.67722   0.87642   0.00000  Uiso   1.00
N414   N     0.52105   0.30806   0.87508   0.00000  Uiso   1.00
C415   C     0.34391   0.36544   0.39471   0.00000  Uiso   1.00
C416   C     0.28224   0.32978   0.36243   0.00000  Uiso   1.00
C417   C     0.21479   0.26180   0.36622   0.00000  Uiso   1.00
C418   C     0.16580   0.23889   0.33325   0.00000  Uiso   1.00
C419   C     0.06734   0.17687   0.28851   0.00000  Uiso   1.00
C420   C     0.41630   0.37717   0.37457   0.00000  Uiso   1.00
C421   C     0.46157   0.34904   0.38858   0.00000  Uiso   1.00
C422   C     0.52544   0.36603   0.36583   0.00000  Uiso   1.00
C423   C     0.63514   0.37763   0.33997   0.00000  Uiso   1.00
C424   C     0.35577   0.44434   0.40236   0.00000  Uiso   1.00
C425   C     0.35016   0.47270   0.43974   0.00000  Uiso   1.00
C426   C     0.36309   0.54625   0.44038   0.00000  Uiso   1.00
C427   C     0.37881   0.66215   0.45766   0.00000  Uiso   1.00
C428   C     0.37686   0.44565   0.32939   0.00000  Uiso   1.00
C429   C     0.30014   0.37335   0.32695   0.00000  Uiso   1.00
C430   C     0.25124   0.35054   0.29396   0.00000  Uiso   1.00
C431   C     0.18373   0.28254   0.29771   0.00000  Uiso   1.00
C432   C     0.43420   0.42073   0.33910   0.00000  Uiso   1.00
C433   C     0.49802   0.43778   0.31632   0.00000  Uiso   1.00
C434   C     0.54337   0.40968   0.33029   0.00000  Uiso   1.00
C435   C     0.37366   0.48791   0.36688   0.00000  Uiso   1.00
C436   C     0.38661   0.56144   0.36747   0.00000  Uiso   1.00
C437   C     0.38102   0.58990   0.40484   0.00000  Uiso   1.00
H438   H     0.32998   0.33152   0.42233   0.00000  Uiso   1.00
H439   H     0.20096   0.22809   0.39368   0.00000  Uiso   1.00
H440   H     0.44771   0.31533   0.41604   0.00000  Uiso   1.00
H441   H     0.33631   0.43897   0.46718   0.00000  Uiso   1.00
H442   H     0.06582   0.13262   0.34627   0.00000  Uiso   1.00
H443   H     0.58612   0.31659   0.39343   0.00000  Uiso   1.00
H444   H     0.35122   0.57730   0.50127   0.00000  Uiso   1.00
H445   H     0.39079   0.47957   0.30177   0.00000  Uiso   1.00
H446   H     0.26511   0.38427   0.26651   0.00000  Uiso   1.00
H447   H     0.51186   0.47150   0.28887   0.00000  Uiso   1.00
H448   H     0.40046   0.59513   0.34001   0.00000  Uiso   1.00
H449   H     0.11789   0.25938   0.24305   0.00000  Uiso   1.00
H450   H     0.63819   0.44334   0.29021   0.00000  Uiso   1.00
H451   H     0.40329   0.70405   0.39805   0.00000  Uiso   1.00
O452   O     0.00809   0.13062   0.27364   0.00000  Uiso   1.00
O453   O     0.69070   0.37198   0.33551   0.00000  Uiso   1.00
O454   O     0.38252   0.71403   0.47699   0.00000  Uiso   1.00
N455   N     0.09532   0.17554   0.32682   0.00000  Uiso   1.00
N456   N     0.58176   0.34753   0.37091   0.00000  Uiso   1.00
N457   N     0.36217   0.59128   0.47173   0.00000  Uiso   1.00
N458   N     0.12333   0.24375   0.27128   0.00000  Uiso   1.00
N459   N     0.60977   0.41573   0.31537   0.00000  Uiso   1.00
N460   N     0.39018   0.65948   0.41619   0.00000  Uiso   1.00
C461   C     0.96830   0.34904   0.24182   0.00000  Uiso   1.00
C462   C     0.95112   0.29254   0.20747   0.00000  Uiso   1.00
C463   C     0.92754   0.21634   0.21221   0.00000  Uiso   1.00
C464   C     0.91481   0.17416   0.17698   0.00000  Uiso   1.00
C465   C     0.88658   0.08143   0.12951   0.00000  Uiso   1.00
C466   C     0.04921   0.41288   0.23487   0.00000  Uiso   1.00
C467   C     0.10809   0.43787   0.26264   0.00000  Uiso   1.00
C468   C     0.17793   0.49699   0.25048   0.00000  Uiso   1.00
C469   C     0.30196   0.59113   0.24554   0.00000  Uiso   1.00
C470   C     0.91781   0.38321   0.23450   0.00000  Uiso   1.00
C471   C     0.86623   0.38328   0.26196   0.00000  Uiso   1.00
C472   C     0.82545   0.41745   0.24949   0.00000  Uiso   1.00
C473   C     0.74547   0.46553   0.24398   0.00000  Uiso   1.00
C474   C     0.98762   0.40962   0.17085   0.00000  Uiso   1.00
C475   C     0.96162   0.32544   0.16892   0.00000  Uiso   1.00
C476   C     0.94891   0.28336   0.13368   0.00000  Uiso   1.00
C477   C     0.92531   0.20712   0.13836   0.00000  Uiso   1.00
C478   C     0.05970   0.44578   0.19632   0.00000  Uiso   1.00
C479   C     0.12946   0.50489   0.18411   0.00000  Uiso   1.00
C480   C     0.18844   0.52995   0.21186   0.00000  Uiso   1.00
C481   C     0.92830   0.41612   0.19595   0.00000  Uiso   1.00
C482   C     0.88760   0.45030   0.18343   0.00000  Uiso   1.00
C483   C     0.83596   0.45042   0.21087   0.00000  Uiso   1.00
H484   H     0.96014   0.32343   0.27184   0.00000  Uiso   1.00
H485   H     0.91944   0.19090   0.24205   0.00000  Uiso   1.00
H486   H     0.09995   0.41240   0.29247   0.00000  Uiso   1.00
H487   H     0.85813   0.35782   0.29179   0.00000  Uiso   1.00
H488   H     0.87896   0.05849   0.19202   0.00000  Uiso   1.00
H489   H     0.25959   0.52554   0.29834   0.00000  Uiso   1.00
H490   H     0.74966   0.41045   0.29691   0.00000  Uiso   1.00
H491   H     0.99579   0.43523   0.14084   0.00000  Uiso   1.00
H492   H     0.95704   0.30884   0.10385   0.00000  Uiso   1.00
H493   H     0.13756   0.53034   0.15428   0.00000  Uiso   1.00
H494   H     0.89573   0.47576   0.15360   0.00000  Uiso   1.00
H495   H     0.90949   0.15422   0.07985   0.00000  Uiso   1.00
H496   H     0.29012   0.62127   0.18618   0.00000  Uiso   1.00
H497   H     0.78018   0.50618   0.18475   0.00000  Uiso   1.00
O498   O     0.86812   0.02120   0.11397   0.00000  Uiso   1.00
O499   O     0.36748   0.63395   0.25347   0.00000  Uiso   1.00
O500   O     0.69846   0.48296   0.25159   0.00000  Uiso   1.00
N501   N     0.89145   0.09836   0.17069   0.00000  Uiso   1.00
N502   N     0.24732   0.53502   0.27010   0.00000  Uiso   1.00
N503   N     0.77058   0.42744   0.26876   0.00000  Uiso   1.00
N504   N     0.90787   0.14987   0.11034   0.00000  Uiso   1.00
N505   N     0.26374   0.58653   0.20975   0.00000  Uiso   1.00
N506   N     0.78701   0.47895   0.20841   0.00000  Uiso   1.00
C507   C     0.02153   0.65609   0.72804   0.00000  Uiso   1.00
C508   C     0.04754   0.71776   0.69576   0.00000  Uiso   1.00
C509   C     0.04701   0.78521   0.69956   0.00000  Uiso   1.00
C510   C     0.07309   0.83420   0.66658   0.00000  Uiso   1.00
C511   C     0.10953   0.93266   0.62185   0.00000  Uiso   1.00
C512   C     0.96087   0.58370   0.70791   0.00000  Uiso   1.00
C513   C     0.88747   0.53843   0.72192   0.00000  Uiso   1.00
C514   C     0.84059   0.47456   0.69917   0.00000  Uiso   1.00
C515   C     0.74249   0.36486   0.67331   0.00000  Uiso   1.00
C516   C     0.08857   0.64423   0.73569   0.00000  Uiso   1.00
C517   C     0.12254   0.64984   0.77307   0.00000  Uiso   1.00
C518   C     0.18317   0.63691   0.77371   0.00000  Uiso   1.00
C519   C     0.28334   0.62119   0.79100   0.00000  Uiso   1.00
C520   C     0.06879   0.62314   0.66273   0.00000  Uiso   1.00
C521   C     0.07321   0.69986   0.66029   0.00000  Uiso   1.00
C522   C     0.09930   0.74876   0.62729   0.00000  Uiso   1.00
C523   C     0.09881   0.81627   0.63104   0.00000  Uiso   1.00
C524   C     0.98653   0.56580   0.67243   0.00000  Uiso   1.00
C525   C     0.93976   0.50198   0.64966   0.00000  Uiso   1.00
C526   C     0.86631   0.45663   0.66363   0.00000  Uiso   1.00
C527   C     0.11424   0.62634   0.70022   0.00000  Uiso   1.00
C528   C     0.17482   0.61339   0.70081   0.00000  Uiso   1.00
C529   C     0.20888   0.61898   0.73817   0.00000  Uiso   1.00
H530   H     0.00154   0.67002   0.75566   0.00000  Uiso   1.00
H531   H     0.02713   0.79904   0.72701   0.00000  Uiso   1.00
H532   H     0.86762   0.55229   0.74937   0.00000  Uiso   1.00
H533   H     0.10266   0.66369   0.80052   0.00000  Uiso   1.00
H534   H     0.06680   0.93418   0.67960   0.00000  Uiso   1.00
H535   H     0.73047   0.41388   0.72676   0.00000  Uiso   1.00
H536   H     0.22608   0.64878   0.83460   0.00000  Uiso   1.00
H537   H     0.08878   0.60921   0.63511   0.00000  Uiso   1.00
H538   H     0.11916   0.73489   0.59984   0.00000  Uiso   1.00
H539   H     0.95964   0.48814   0.62221   0.00000  Uiso   1.00
H540   H     0.19467   0.59954   0.67335   0.00000  Uiso   1.00
H541   H     0.14149   0.88211   0.57639   0.00000  Uiso   1.00
H542   H     0.80515   0.36181   0.62355   0.00000  Uiso   1.00
H543   H     0.30076   0.59671   0.73139   0.00000  Uiso   1.00
O544   O     0.12253   0.99191   0.60697   0.00000  Uiso   1.00
O545   O     0.68128   0.30930   0.66884   0.00000  Uiso   1.00
O546   O     0.33151   0.61748   0.81033   0.00000  Uiso   1.00
N547   N     0.08022   0.90468   0.66015   0.00000  Uiso   1.00
N548   N     0.76577   0.41824   0.70424   0.00000  Uiso   1.00
N549   N     0.22911   0.63783   0.80507   0.00000  Uiso   1.00
N550   N     0.12041   0.87667   0.60461   0.00000  Uiso   1.00
N551   N     0.80596   0.39023   0.64870   0.00000  Uiso   1.00
N552   N     0.26930   0.60982   0.74953   0.00000  Uiso   1.00
