data_job_06313
_audit_creation_date              2018-12-19
_audit_creation_method            'Materials Studio'
_symmetry_space_group_name_H-M    'P1'
_symmetry_Int_Tables_number       1
_symmetry_cell_setting            triclinic
loop_
_symmetry_equiv_pos_as_xyz
  x,y,z
_cell_length_a                    11.2140
_cell_length_b                    18.7562
_cell_length_c                    18.9569
_cell_angle_alpha                 116.2470
_cell_angle_beta                  77.9246
_cell_angle_gamma                 80.0525
loop_
_atom_site_label
_atom_site_type_symbol
_atom_site_fract_x
_atom_site_fract_y
_atom_site_fract_z
_atom_site_U_iso_or_equiv
_atom_site_adp_type
_atom_site_occupancy
C1     C     0.02657   0.20369   0.43117   0.00000  Uiso   1.00
C2     C     0.15111   0.21836   0.44551   0.00000  Uiso   1.00
C3     C     0.19179   0.21956   0.51020   0.00000  Uiso   1.00
C4     C     0.30862   0.23402   0.51241   0.00000  Uiso   1.00
C5     C     0.49080   0.25490   0.54388   0.00000  Uiso   1.00
C6     C     0.95653   0.27914   0.42828   0.00000  Uiso   1.00
C7     C     0.83361   0.33143   0.47847   0.00000  Uiso   1.00
C8     C     0.78664   0.39704   0.46617   0.00000  Uiso   1.00
C9     C     0.66670   0.51225   0.47084   0.00000  Uiso   1.00
C10    C     0.06469   0.12971   0.34359   0.00000  Uiso   1.00
C11    C     0.03268   0.05636   0.32257   0.00000  Uiso   1.00
C12    C     0.07675   0.99616   0.23896   0.00000  Uiso   1.00
C13    C     0.12474   0.87935   0.11214   0.00000  Uiso   1.00
C14    C     0.16172   0.22724   0.32005   0.00000  Uiso   1.00
C15    C     0.22451   0.23116   0.38515   0.00000  Uiso   1.00
C16    C     0.34132   0.24561   0.38727   0.00000  Uiso   1.00
C17    C     0.38217   0.24683   0.45195   0.00000  Uiso   1.00
C18    C     0.02993   0.29193   0.36793   0.00000  Uiso   1.00
C19    C     0.98314   0.35748   0.35554   0.00000  Uiso   1.00
C20    C     0.86018   0.40986   0.40571   0.00000  Uiso   1.00
C21    C     0.13810   0.14250   0.28323   0.00000  Uiso   1.00
C22    C     0.18222   0.08241   0.19964   0.00000  Uiso   1.00
C23    C     0.15029   0.00898   0.17850   0.00000  Uiso   1.00
H24    H     0.96941   0.19373   0.47816   0.00000  Uiso   1.00
H25    H     0.13494   0.20967   0.55690   0.00000  Uiso   1.00
H26    H     0.77682   0.32151   0.52517   0.00000  Uiso   1.00
H27    H     0.97587   0.04648   0.36929   0.00000  Uiso   1.00
H28    H     0.35082   0.23300   0.61760   0.00000  Uiso   1.00
H29    H     0.59567   0.46881   0.55068   0.00000  Uiso   1.00
H30    H     0.01540   0.88886   0.22198   0.00000  Uiso   1.00
H31    H     0.21887   0.23720   0.27306   0.00000  Uiso   1.00
H32    H     0.39810   0.25551   0.34055   0.00000  Uiso   1.00
H33    H     0.03997   0.36736   0.30883   0.00000  Uiso   1.00
H34    H     0.23902   0.09233   0.15295   0.00000  Uiso   1.00
H35    H     0.56440   0.27022   0.44201   0.00000  Uiso   1.00
H36    H     0.80925   0.50603   0.37508   0.00000  Uiso   1.00
H37    H     0.22899   0.92607   0.04638   0.00000  Uiso   1.00
O38    O     0.57099   0.26290   0.57791   0.00000  Uiso   1.00
O39    O     0.58026   0.57227   0.49010   0.00000  Uiso   1.00
O40    O     0.13094   0.81138   0.05886   0.00000  Uiso   1.00
N41    N     0.37650   0.23923   0.56700   0.00000  Uiso   1.00
N42    N     0.67049   0.45971   0.50444   0.00000  Uiso   1.00
N43    N     0.06288   0.91751   0.19713   0.00000  Uiso   1.00
N44    N     0.49143   0.25925   0.47252   0.00000  Uiso   1.00
N45    N     0.78542   0.47973   0.40996   0.00000  Uiso   1.00
N46    N     0.17781   0.93753   0.10265   0.00000  Uiso   1.00
C47    C     0.45932   0.56963   0.77227   0.00000  Uiso   1.00
C48    C     0.59772   0.55649   0.77152   0.00000  Uiso   1.00
C49    C     0.70286   0.49232   0.70779   0.00000  Uiso   1.00
C50    C     0.82149   0.49120   0.71900   0.00000  Uiso   1.00
C51    C     0.03443   0.46150   0.70685   0.00000  Uiso   1.00
C52    C     0.38438   0.57175   0.85057   0.00000  Uiso   1.00
C53    C     0.31013   0.52042   0.85330   0.00000  Uiso   1.00
C54    C     0.24914   0.53215   0.93105   0.00000  Uiso   1.00
C55    C     0.13078   0.52619   0.04163   0.00000  Uiso   1.00
C56    C     0.41209   0.65750   0.78601   0.00000  Uiso   1.00
C57    C     0.36111   0.67827   0.73449   0.00000  Uiso   1.00
C58    C     0.32342   0.76221   0.75790   0.00000  Uiso   1.00
C59    C     0.24810   0.88938   0.76825   0.00000  Uiso   1.00
C60    C     0.48301   0.68177   0.90548   0.00000  Uiso   1.00
C61    C     0.61059   0.61740   0.84388   0.00000  Uiso   1.00
C62    C     0.72909   0.61638   0.85518   0.00000  Uiso   1.00
C63    C     0.83439   0.55222   0.79148   0.00000  Uiso   1.00
C64    C     0.39725   0.63265   0.92292   0.00000  Uiso   1.00
C65    C     0.33635   0.64448   0.00069   0.00000  Uiso   1.00
C66    C     0.26203   0.59317   0.00354   0.00000  Uiso   1.00
C67    C     0.42496   0.71841   0.85837   0.00000  Uiso   1.00
C68    C     0.38734   0.80233   0.88187   0.00000  Uiso   1.00
C69    C     0.33632   0.82323   0.83039   0.00000  Uiso   1.00
H70    H     0.44929   0.52221   0.71594   0.00000  Uiso   1.00
H71    H     0.69286   0.44519   0.65181   0.00000  Uiso   1.00
H72    H     0.30017   0.47329   0.79730   0.00000  Uiso   1.00
H73    H     0.35116   0.63112   0.67850   0.00000  Uiso   1.00
H74    H     0.96857   0.38664   0.61263   0.00000  Uiso   1.00
H75    H     0.14054   0.44591   0.91940   0.00000  Uiso   1.00
H76    H     0.24805   0.77873   0.66890   0.00000  Uiso   1.00
H77    H     0.49303   0.72919   0.96182   0.00000  Uiso   1.00
H78    H     0.73902   0.66352   0.91118   0.00000  Uiso   1.00
H79    H     0.34633   0.69162   0.05667   0.00000  Uiso   1.00
H80    H     0.39731   0.84945   0.93787   0.00000  Uiso   1.00
H81    H     0.00604   0.56384   0.82315   0.00000  Uiso   1.00
H82    H     0.17799   0.62311   0.12992   0.00000  Uiso   1.00
H83    H     0.28551   0.95592   0.87942   0.00000  Uiso   1.00
O84    O     0.14832   0.42829   0.68016   0.00000  Uiso   1.00
O85    O     0.06195   0.50606   0.08263   0.00000  Uiso   1.00
O86    O     0.20301   0.94270   0.75397   0.00000  Uiso   1.00
N87    N     0.94364   0.43736   0.66912   0.00000  Uiso   1.00
N88    N     0.16949   0.49277   0.95593   0.00000  Uiso   1.00
N89    N     0.26997   0.80393   0.72174   0.00000  Uiso   1.00
N90    N     0.96380   0.53271   0.78240   0.00000  Uiso   1.00
N91    N     0.18965   0.58812   0.06921   0.00000  Uiso   1.00
N92    N     0.29013   0.89928   0.83502   0.00000  Uiso   1.00
C93    C     0.23098   0.22770   0.79660   0.00000  Uiso   1.00
C94    C     0.36896   0.22978   0.78321   0.00000  Uiso   1.00
C95    C     0.41227   0.29446   0.78233   0.00000  Uiso   1.00
C96    C     0.54207   0.28440   0.76909   0.00000  Uiso   1.00
C97    C     0.74364   0.29860   0.75006   0.00000  Uiso   1.00
C98    C     0.23407   0.14885   0.72113   0.00000  Uiso   1.00
C99    C     0.16395   0.14548   0.66807   0.00000  Uiso   1.00
C100   C     0.18018   0.06730   0.60258   0.00000  Uiso   1.00
C101   C     0.17226   0.95584   0.48721   0.00000  Uiso   1.00
C102   C     0.19511   0.21340   0.87042   0.00000  Uiso   1.00
C103   C     0.09221   0.26431   0.94287   0.00000  Uiso   1.00
C104   C     0.07562   0.24047   0.00307   0.00000  Uiso   1.00
C105   C     0.00721   0.22925   0.11949   0.00000  Uiso   1.00
C106   C     0.38448   0.09483   0.77465   0.00000  Uiso   1.00
C107   C     0.45234   0.15761   0.77128   0.00000  Uiso   1.00
C108   C     0.58210   0.14746   0.75805   0.00000  Uiso   1.00
C109   C     0.62559   0.21211   0.75715   0.00000  Uiso   1.00
C110   C     0.31744   0.07668   0.70921   0.00000  Uiso   1.00
C111   C     0.33378   0.99848   0.64378   0.00000  Uiso   1.00
C112   C     0.26370   0.99500   0.59064   0.00000  Uiso   1.00
C113   C     0.27849   0.14124   0.85850   0.00000  Uiso   1.00
C114   C     0.26204   0.11731   0.91859   0.00000  Uiso   1.00
C115   C     0.15914   0.16817   0.99112   0.00000  Uiso   1.00
H116   H     0.16607   0.28388   0.80588   0.00000  Uiso   1.00
H117   H     0.34772   0.35029   0.79155   0.00000  Uiso   1.00
H118   H     0.09943   0.20134   0.67732   0.00000  Uiso   1.00
H119   H     0.02771   0.32015   0.95208   0.00000  Uiso   1.00
H120   H     0.58589   0.39209   0.77038   0.00000  Uiso   1.00
H121   H     0.06231   0.07801   0.52952   0.00000  Uiso   1.00
H122   H     0.91107   0.32854   0.10891   0.00000  Uiso   1.00
H123   H     0.44939   0.03864   0.76537   0.00000  Uiso   1.00
H124   H     0.64660   0.09160   0.74882   0.00000  Uiso   1.00
H125   H     0.39830   0.94265   0.63458   0.00000  Uiso   1.00
H126   H     0.32658   0.06146   0.90934   0.00000  Uiso   1.00
H127   H     0.82847   0.18212   0.73569   0.00000  Uiso   1.00
H128   H     0.30489   0.86805   0.49484   0.00000  Uiso   1.00
H129   H     0.15365   0.11858   0.07422   0.00000  Uiso   1.00
O130   O     0.83180   0.32636   0.74285   0.00000  Uiso   1.00
O131   O     0.14487   0.91431   0.42687   0.00000  Uiso   1.00
O132   O     0.94645   0.24300   0.18701   0.00000  Uiso   1.00
N133   N     0.61591   0.33541   0.76450   0.00000  Uiso   1.00
N134   N     0.12641   0.04177   0.53931   0.00000  Uiso   1.00
N135   N     0.98500   0.27599   0.08098   0.00000  Uiso   1.00
N136   N     0.74644   0.22243   0.74584   0.00000  Uiso   1.00
N137   N     0.25695   0.92879   0.52064   0.00000  Uiso   1.00
N138   N     0.11553   0.16301   0.06231   0.00000  Uiso   1.00
C139   C     0.97343   0.79631   0.56883   0.00000  Uiso   1.00
C140   C     0.84890   0.78164   0.55449   0.00000  Uiso   1.00
C141   C     0.80821   0.78044   0.48980   0.00000  Uiso   1.00
C142   C     0.69138   0.76598   0.48759   0.00000  Uiso   1.00
C143   C     0.50920   0.74510   0.45612   0.00000  Uiso   1.00
C144   C     0.04347   0.72086   0.57172   0.00000  Uiso   1.00
C145   C     0.16639   0.66857   0.52153   0.00000  Uiso   1.00
C146   C     0.21336   0.60296   0.53383   0.00000  Uiso   1.00
C147   C     0.33330   0.48775   0.52916   0.00000  Uiso   1.00
C148   C     0.93531   0.87029   0.65641   0.00000  Uiso   1.00
C149   C     0.96732   0.94365   0.67743   0.00000  Uiso   1.00
C150   C     0.92325   0.00384   0.76104   0.00000  Uiso   1.00
C151   C     0.87526   0.12065   0.88786   0.00000  Uiso   1.00
C152   C     0.83828   0.77276   0.67995   0.00000  Uiso   1.00
C153   C     0.77549   0.76884   0.61485   0.00000  Uiso   1.00
C154   C     0.65868   0.75439   0.61274   0.00000  Uiso   1.00
C155   C     0.61783   0.75317   0.54805   0.00000  Uiso   1.00
C156   C     0.97007   0.70807   0.63207   0.00000  Uiso   1.00
C157   C     0.01686   0.64252   0.64446   0.00000  Uiso   1.00
C158   C     0.13982   0.59014   0.59429   0.00000  Uiso   1.00
C159   C     0.86190   0.85750   0.71677   0.00000  Uiso   1.00
C160   C     0.81778   0.91759   0.80036   0.00000  Uiso   1.00
C161   C     0.84971   0.99102   0.82150   0.00000  Uiso   1.00
H162   H     0.03059   0.80627   0.52184   0.00000  Uiso   1.00
H163   H     0.86506   0.79034   0.44310   0.00000  Uiso   1.00
H164   H     0.22318   0.67849   0.47483   0.00000  Uiso   1.00
H165   H     0.02413   0.95352   0.63071   0.00000  Uiso   1.00
H166   H     0.64918   0.76700   0.38240   0.00000  Uiso   1.00
H167   H     0.40433   0.53119   0.44932   0.00000  Uiso   1.00
H168   H     0.98460   0.11114   0.77802   0.00000  Uiso   1.00
H169   H     0.78113   0.76280   0.72694   0.00000  Uiso   1.00
H170   H     0.60190   0.74449   0.65945   0.00000  Uiso   1.00
H171   H     0.96003   0.63264   0.69117   0.00000  Uiso   1.00
H172   H     0.76098   0.90767   0.84705   0.00000  Uiso   1.00
H173   H     0.43560   0.72979   0.55799   0.00000  Uiso   1.00
H174   H     0.19075   0.49397   0.62492   0.00000  Uiso   1.00
H175   H     0.77101   0.07393   0.95362   0.00000  Uiso   1.00
O176   O     0.42901   0.73710   0.42209   0.00000  Uiso   1.00
O177   O     0.41974   0.42773   0.50989   0.00000  Uiso   1.00
O178   O     0.86906   0.18862   0.94114   0.00000  Uiso   1.00
N179   N     0.62350   0.76077   0.43300   0.00000  Uiso   1.00
N180   N     0.32951   0.54029   0.49556   0.00000  Uiso   1.00
N181   N     0.93712   0.08249   0.80287   0.00000  Uiso   1.00
N182   N     0.50857   0.74075   0.52748   0.00000  Uiso   1.00
N183   N     0.21458   0.52027   0.59004   0.00000  Uiso   1.00
N184   N     0.82219   0.06247   0.89735   0.00000  Uiso   1.00
C185   C     0.54068   0.43037   0.22773   0.00000  Uiso   1.00
C186   C     0.40228   0.44351   0.22848   0.00000  Uiso   1.00
C187   C     0.29714   0.50768   0.29221   0.00000  Uiso   1.00
C188   C     0.17851   0.50880   0.28100   0.00000  Uiso   1.00
C189   C     0.96557   0.53850   0.29316   0.00000  Uiso   1.00
C190   C     0.61562   0.42825   0.14943   0.00000  Uiso   1.00
C191   C     0.68987   0.47959   0.14670   0.00000  Uiso   1.00
C192   C     0.75086   0.46785   0.06895   0.00000  Uiso   1.00
C193   C     0.86922   0.47381   0.95837   0.00000  Uiso   1.00
C194   C     0.58791   0.34250   0.21399   0.00000  Uiso   1.00
C195   C     0.63889   0.32173   0.26551   0.00000  Uiso   1.00
C196   C     0.67658   0.23779   0.24210   0.00000  Uiso   1.00
C197   C     0.75190   0.11062   0.23175   0.00000  Uiso   1.00
C198   C     0.51698   0.31823   0.09452   0.00000  Uiso   1.00
C199   C     0.38941   0.38261   0.15612   0.00000  Uiso   1.00
C200   C     0.27091   0.38362   0.14482   0.00000  Uiso   1.00
C201   C     0.16561   0.44778   0.20852   0.00000  Uiso   1.00
C202   C     0.60275   0.36735   0.07708   0.00000  Uiso   1.00
C203   C     0.66365   0.35552   0.99931   0.00000  Uiso   1.00
C204   C     0.73797   0.40683   0.99646   0.00000  Uiso   1.00
C205   C     0.57504   0.28159   0.14163   0.00000  Uiso   1.00
C206   C     0.61266   0.19767   0.11813   0.00000  Uiso   1.00
C207   C     0.66368   0.17677   0.16961   0.00000  Uiso   1.00
H208   H     0.55071   0.47779   0.28406   0.00000  Uiso   1.00
H209   H     0.30714   0.55481   0.34819   0.00000  Uiso   1.00
H210   H     0.69983   0.52671   0.20270   0.00000  Uiso   1.00
H211   H     0.64884   0.36888   0.32150   0.00000  Uiso   1.00
H212   H     0.03142   0.61336   0.38737   0.00000  Uiso   1.00
H213   H     0.85946   0.55409   0.08060   0.00000  Uiso   1.00
H214   H     0.75195   0.22127   0.33110   0.00000  Uiso   1.00
H215   H     0.50697   0.27081   0.03818   0.00000  Uiso   1.00
H216   H     0.26098   0.33648   0.08882   0.00000  Uiso   1.00
H217   H     0.65367   0.30838   0.94333   0.00000  Uiso   1.00
H218   H     0.60269   0.15055   0.06213   0.00000  Uiso   1.00
H219   H     0.99396   0.43616   0.17685   0.00000  Uiso   1.00
H220   H     0.82201   0.37689   0.87008   0.00000  Uiso   1.00
H221   H     0.71449   0.04408   0.12058   0.00000  Uiso   1.00
O222   O     0.85168   0.57171   0.31984   0.00000  Uiso   1.00
O223   O     0.93805   0.49394   0.91737   0.00000  Uiso   1.00
O224   O     0.79699   0.05730   0.24603   0.00000  Uiso   1.00
N225   N     0.05636   0.56264   0.33088   0.00000  Uiso   1.00
N226   N     0.83051   0.50723   0.04407   0.00000  Uiso   1.00
N227   N     0.73003   0.19608   0.27826   0.00000  Uiso   1.00
N228   N     0.03620   0.46729   0.21760   0.00000  Uiso   1.00
N229   N     0.81035   0.41188   0.93079   0.00000  Uiso   1.00
N230   N     0.70987   0.10072   0.16498   0.00000  Uiso   1.00
C231   C     0.76902   0.77231   0.20340   0.00000  Uiso   1.00
C232   C     0.63104   0.77022   0.21679   0.00000  Uiso   1.00
C233   C     0.58773   0.70554   0.21767   0.00000  Uiso   1.00
C234   C     0.45793   0.71560   0.23091   0.00000  Uiso   1.00
C235   C     0.25636   0.70140   0.24994   0.00000  Uiso   1.00
C236   C     0.76593   0.85115   0.27887   0.00000  Uiso   1.00
C237   C     0.83605   0.85452   0.33193   0.00000  Uiso   1.00
C238   C     0.81982   0.93270   0.39742   0.00000  Uiso   1.00
C239   C     0.82774   0.04416   0.51279   0.00000  Uiso   1.00
C240   C     0.80489   0.78660   0.12958   0.00000  Uiso   1.00
C241   C     0.90779   0.73569   0.05713   0.00000  Uiso   1.00
C242   C     0.92438   0.75953   0.99693   0.00000  Uiso   1.00
C243   C     0.99279   0.77075   0.88051   0.00000  Uiso   1.00
C244   C     0.61552   0.90517   0.22535   0.00000  Uiso   1.00
C245   C     0.54766   0.84240   0.22872   0.00000  Uiso   1.00
C246   C     0.41790   0.85255   0.24195   0.00000  Uiso   1.00
C247   C     0.37441   0.78789   0.24285   0.00000  Uiso   1.00
C248   C     0.68256   0.92332   0.29079   0.00000  Uiso   1.00
C249   C     0.66622   0.00152   0.35622   0.00000  Uiso   1.00
C250   C     0.73630   0.00500   0.40936   0.00000  Uiso   1.00
C251   C     0.72151   0.85876   0.14150   0.00000  Uiso   1.00
C252   C     0.73796   0.88269   0.08141   0.00000  Uiso   1.00
C253   C     0.84086   0.83183   0.00888   0.00000  Uiso   1.00
H254   H     0.83393   0.71612   0.19412   0.00000  Uiso   1.00
H255   H     0.65228   0.64971   0.20845   0.00000  Uiso   1.00
H256   H     0.90057   0.79866   0.32268   0.00000  Uiso   1.00
H257   H     0.97229   0.67985   0.04792   0.00000  Uiso   1.00
H258   H     0.41411   0.60791   0.22962   0.00000  Uiso   1.00
H259   H     0.93769   0.92199   0.47048   0.00000  Uiso   1.00
H260   H     0.08893   0.67146   0.89109   0.00000  Uiso   1.00
H261   H     0.55061   0.96136   0.23463   0.00000  Uiso   1.00
H262   H     0.35340   0.90840   0.25118   0.00000  Uiso   1.00
H263   H     0.60170   0.05735   0.36542   0.00000  Uiso   1.00
H264   H     0.67342   0.93854   0.09066   0.00000  Uiso   1.00
H265   H     0.17153   0.81788   0.26431   0.00000  Uiso   1.00
H266   H     0.69511   0.13195   0.50516   0.00000  Uiso   1.00
H267   H     0.84635   0.88142   0.92578   0.00000  Uiso   1.00
O268   O     0.16820   0.67364   0.25715   0.00000  Uiso   1.00
O269   O     0.85513   0.08569   0.57313   0.00000  Uiso   1.00
O270   O     0.05355   0.75700   0.81299   0.00000  Uiso   1.00
N271   N     0.38409   0.66459   0.23550   0.00000  Uiso   1.00
N272   N     0.87359   0.95823   0.46069   0.00000  Uiso   1.00
N273   N     0.01500   0.72401   0.91902   0.00000  Uiso   1.00
N274   N     0.25356   0.77757   0.25416   0.00000  Uiso   1.00
N275   N     0.74305   0.07121   0.47936   0.00000  Uiso   1.00
N276   N     0.88447   0.83700   0.93769   0.00000  Uiso   1.00
