data_job_06270
_audit_creation_date              2018-12-19
_audit_creation_method            'Materials Studio'
_symmetry_space_group_name_H-M    'P1'
_symmetry_Int_Tables_number       1
_symmetry_cell_setting            triclinic
loop_
_symmetry_equiv_pos_as_xyz
  x,y,z
_cell_length_a                    11.1997
_cell_length_b                    24.0848
_cell_length_c                    24.1150
_cell_angle_alpha                 62.4080
_cell_angle_beta                  81.2863
_cell_angle_gamma                 98.7037
loop_
_atom_site_label
_atom_site_type_symbol
_atom_site_fract_x
_atom_site_fract_y
_atom_site_fract_z
_atom_site_U_iso_or_equiv
_atom_site_adp_type
_atom_site_occupancy
C1     C     0.00018   0.67477   0.92698   0.00000  Uiso   1.00
C2     C     0.96828   0.66852   0.87052   0.00000  Uiso   1.00
C3     C     0.85110   0.64136   0.86911   0.00000  Uiso   1.00
C4     C     0.84119   0.64019   0.81294   0.00000  Uiso   1.00
C5     C     0.77591   0.62663   0.73332   0.00000  Uiso   1.00
C6     C     0.10467   0.64091   0.94380   0.00000  Uiso   1.00
C7     C     0.10215   0.59054   0.00401   0.00000  Uiso   1.00
C8     C     0.20706   0.56614   0.00954   0.00000  Uiso   1.00
C9     C     0.35355   0.50975   0.04370   0.00000  Uiso   1.00
C10    C     0.05834   0.74655   0.89999   0.00000  Uiso   1.00
C11    C     0.01690   0.78501   0.92337   0.00000  Uiso   1.00
C12    C     0.08283   0.84955   0.89202   0.00000  Uiso   1.00
C13    C     0.15738   0.95719   0.85815   0.00000  Uiso   1.00
C14    C     0.19096   0.72099   0.82974   0.00000  Uiso   1.00
C15    C     0.07191   0.69362   0.81770   0.00000  Uiso   1.00
C16    C     0.06218   0.69249   0.76152   0.00000  Uiso   1.00
C17    C     0.94500   0.66534   0.76003   0.00000  Uiso   1.00
C18    C     0.20829   0.66601   0.89099   0.00000  Uiso   1.00
C19    C     0.31323   0.64168   0.89643   0.00000  Uiso   1.00
C20    C     0.31087   0.59128   0.95663   0.00000  Uiso   1.00
C21    C     0.16196   0.77166   0.84717   0.00000  Uiso   1.00
C22    C     0.22797   0.83615   0.81578   0.00000  Uiso   1.00
C23    C     0.18664   0.87470   0.83911   0.00000  Uiso   1.00
H24    H     0.91951   0.65522   0.96811   0.00000  Uiso   1.00
H25    H     0.77093   0.62193   0.91000   0.00000  Uiso   1.00
H26    H     0.02196   0.57113   0.04488   0.00000  Uiso   1.00
H27    H     0.93671   0.76557   0.96425   0.00000  Uiso   1.00
H28    H     0.65192   0.59607   0.82229   0.00000  Uiso   1.00
H29    H     0.18122   0.48896   0.10670   0.00000  Uiso   1.00
H30    H     0.00147   0.89898   0.93667   0.00000  Uiso   1.00
H31    H     0.27164   0.74053   0.78862   0.00000  Uiso   1.00
H32    H     0.14238   0.71192   0.72066   0.00000  Uiso   1.00
H33    H     0.39340   0.66112   0.85554   0.00000  Uiso   1.00
H34    H     0.30816   0.85556   0.77491   0.00000  Uiso   1.00
H35    H     0.95340   0.66911   0.66861   0.00000  Uiso   1.00
H36    H     0.48270   0.56200   0.95303   0.00000  Uiso   1.00
H37    H     0.30295   0.97202   0.78300   0.00000  Uiso   1.00
O38    O     0.71128   0.61221   0.70399   0.00000  Uiso   1.00
O39    O     0.40571   0.47170   0.07713   0.00000  Uiso   1.00
O40    O     0.16988   0.00963   0.85406   0.00000  Uiso   1.00
N41    N     0.74060   0.61720   0.79544   0.00000  Uiso   1.00
N42    N     0.23546   0.51705   0.06135   0.00000  Uiso   1.00
N43    N     0.06743   0.90038   0.90240   0.00000  Uiso   1.00
N44    N     0.90283   0.65650   0.71275   0.00000  Uiso   1.00
N45    N     0.39769   0.55635   0.97866   0.00000  Uiso   1.00
N46    N     0.22965   0.93968   0.81971   0.00000  Uiso   1.00
C47    C     0.32319   0.39720   0.67645   0.00000  Uiso   1.00
C48    C     0.29745   0.45995   0.67024   0.00000  Uiso   1.00
C49    C     0.20722   0.48861   0.64281   0.00000  Uiso   1.00
C50    C     0.19842   0.54597   0.64174   0.00000  Uiso   1.00
C51    C     0.14652   0.63922   0.62821   0.00000  Uiso   1.00
C52    C     0.46090   0.41393   0.64302   0.00000  Uiso   1.00
C53    C     0.50810   0.40388   0.59271   0.00000  Uiso   1.00
C54    C     0.63690   0.42249   0.56872   0.00000  Uiso   1.00
C55    C     0.83877   0.44425   0.51295   0.00000  Uiso   1.00
C56    C     0.31047   0.35259   0.74819   0.00000  Uiso   1.00
C57    C     0.23122   0.29096   0.78632   0.00000  Uiso   1.00
C58    C     0.23338   0.25792   0.85089   0.00000  Uiso   1.00
C59    C     0.20169   0.18444   0.95842   0.00000  Uiso   1.00
C60    C     0.46800   0.44808   0.72332   0.00000  Uiso   1.00
C61    C     0.37610   0.48759   0.69570   0.00000  Uiso   1.00
C62    C     0.36743   0.54492   0.69467   0.00000  Uiso   1.00
C63    C     0.27721   0.57366   0.66725   0.00000  Uiso   1.00
C64    C     0.53955   0.44157   0.66847   0.00000  Uiso   1.00
C65    C     0.66831   0.46019   0.64457   0.00000  Uiso   1.00
C66    C     0.71569   0.45018   0.59423   0.00000  Uiso   1.00
C67    C     0.38912   0.38023   0.77366   0.00000  Uiso   1.00
C68    C     0.39142   0.34727   0.83818   0.00000  Uiso   1.00
C69    C     0.31218   0.28561   0.87639   0.00000  Uiso   1.00
H70    H     0.26196   0.37568   0.65662   0.00000  Uiso   1.00
H71    H     0.14638   0.46721   0.62311   0.00000  Uiso   1.00
H72    H     0.44721   0.38249   0.57302   0.00000  Uiso   1.00
H73    H     0.17037   0.26959   0.76660   0.00000  Uiso   1.00
H74    H     0.05295   0.58089   0.59716   0.00000  Uiso   1.00
H75    H     0.68727   0.40223   0.49155   0.00000  Uiso   1.00
H76    H     0.10349   0.16416   0.89976   0.00000  Uiso   1.00
H77    H     0.52924   0.46960   0.74314   0.00000  Uiso   1.00
H78    H     0.42831   0.56629   0.71438   0.00000  Uiso   1.00
H79    H     0.72915   0.48157   0.66428   0.00000  Uiso   1.00
H80    H     0.45230   0.36867   0.85786   0.00000  Uiso   1.00
H81    H     0.28178   0.66132   0.67124   0.00000  Uiso   1.00
H82    H     0.91611   0.48265   0.56563   0.00000  Uiso   1.00
H83    H     0.33232   0.24458   0.97383   0.00000  Uiso   1.00
O84    O     0.09618   0.68303   0.61370   0.00000  Uiso   1.00
O85    O     0.92839   0.44862   0.47515   0.00000  Uiso   1.00
O86    O     0.16247   0.13628   0.01070   0.00000  Uiso   1.00
N87    N     0.12064   0.58655   0.61856   0.00000  Uiso   1.00
N88    N     0.71369   0.41952   0.51981   0.00000  Uiso   1.00
N89    N     0.16793   0.19693   0.90144   0.00000  Uiso   1.00
N90    N     0.24377   0.62982   0.65842   0.00000  Uiso   1.00
N91    N     0.83682   0.46279   0.55967   0.00000  Uiso   1.00
N92    N     0.29106   0.24021   0.94130   0.00000  Uiso   1.00
C93    C     0.92557   0.92533   0.39922   0.00000  Uiso   1.00
C94    C     0.83800   0.86907   0.46165   0.00000  Uiso   1.00
C95    C     0.71965   0.86810   0.48997   0.00000  Uiso   1.00
C96    C     0.65432   0.81205   0.54708   0.00000  Uiso   1.00
C97    C     0.51058   0.73279   0.63982   0.00000  Uiso   1.00
C98    C     0.04653   0.94186   0.41640   0.00000  Uiso   1.00
C99    C     0.10349   0.00210   0.40667   0.00000  Uiso   1.00
C100   C     0.21371   0.00733   0.42567   0.00000  Uiso   1.00
C101   C     0.39375   0.04109   0.44812   0.00000  Uiso   1.00
C102   C     0.95692   0.89803   0.35458   0.00000  Uiso   1.00
C103   C     0.93857   0.92142   0.29286   0.00000  Uiso   1.00
C104   C     0.97338   0.88975   0.25980   0.00000  Uiso   1.00
C105   C     0.01428   0.85546   0.18627   0.00000  Uiso   1.00
C106   C     0.02003   0.82751   0.45027   0.00000  Uiso   1.00
C107   C     0.88932   0.81594   0.48938   0.00000  Uiso   1.00
C108   C     0.82416   0.75987   0.54646   0.00000  Uiso   1.00
C109   C     0.70572   0.75882   0.57485   0.00000  Uiso   1.00
C110   C     0.09784   0.88873   0.44413   0.00000  Uiso   1.00
C111   C     0.20800   0.89388   0.46315   0.00000  Uiso   1.00
C112   C     0.26512   0.95411   0.45345   0.00000  Uiso   1.00
C113   C     0.00822   0.84489   0.38231   0.00000  Uiso   1.00
C114   C     0.04308   0.81319   0.34934   0.00000  Uiso   1.00
C115   C     0.02478   0.83653   0.28758   0.00000  Uiso   1.00
H116   H     0.88563   0.96669   0.37763   0.00000  Uiso   1.00
H117   H     0.67998   0.90923   0.46850   0.00000  Uiso   1.00
H118   H     0.06377   0.04321   0.38520   0.00000  Uiso   1.00
H119   H     0.89887   0.96254   0.27142   0.00000  Uiso   1.00
H120   H     0.47462   0.82209   0.58149   0.00000  Uiso   1.00
H121   H     0.28389   0.10460   0.40583   0.00000  Uiso   1.00
H122   H     0.93616   0.93449   0.16589   0.00000  Uiso   1.00
H123   H     0.05998   0.78615   0.47186   0.00000  Uiso   1.00
H124   H     0.86389   0.71877   0.56790   0.00000  Uiso   1.00
H125   H     0.24768   0.85275   0.48460   0.00000  Uiso   1.00
H126   H     0.08278   0.77208   0.37082   0.00000  Uiso   1.00
H127   H     0.62389   0.66751   0.66217   0.00000  Uiso   1.00
H128   H     0.43317   0.95002   0.48651   0.00000  Uiso   1.00
H129   H     0.08543   0.77991   0.24656   0.00000  Uiso   1.00
O130   O     0.41713   0.70375   0.68333   0.00000  Uiso   1.00
O131   O     0.47887   0.07439   0.45285   0.00000  Uiso   1.00
O132   O     0.02265   0.85121   0.13805   0.00000  Uiso   1.00
N133   N     0.53665   0.79496   0.58729   0.00000  Uiso   1.00
N134   N     0.29326   0.05908   0.42307   0.00000  Uiso   1.00
N135   N     0.96820   0.90005   0.19873   0.00000  Uiso   1.00
N136   N     0.61697   0.71177   0.63071   0.00000  Uiso   1.00
N137   N     0.37358   0.97590   0.46648   0.00000  Uiso   1.00
N138   N     0.04852   0.81687   0.24215   0.00000  Uiso   1.00
C139   C     0.99982   0.32523   0.07302   0.00000  Uiso   1.00
C140   C     0.03172   0.33148   0.12948   0.00000  Uiso   1.00
C141   C     0.14890   0.35864   0.13089   0.00000  Uiso   1.00
C142   C     0.15881   0.35981   0.18706   0.00000  Uiso   1.00
C143   C     0.22409   0.37337   0.26668   0.00000  Uiso   1.00
C144   C     0.89533   0.35909   0.05620   0.00000  Uiso   1.00
C145   C     0.89785   0.40946   0.99599   0.00000  Uiso   1.00
C146   C     0.79294   0.43386   0.99046   0.00000  Uiso   1.00
C147   C     0.64645   0.49026   0.95630   0.00000  Uiso   1.00
C148   C     0.94166   0.25345   0.10001   0.00000  Uiso   1.00
C149   C     0.98310   0.21499   0.07663   0.00000  Uiso   1.00
C150   C     0.91717   0.15045   0.10798   0.00000  Uiso   1.00
C151   C     0.84261   0.04281   0.14185   0.00000  Uiso   1.00
C152   C     0.80904   0.27901   0.17026   0.00000  Uiso   1.00
C153   C     0.92809   0.30638   0.18230   0.00000  Uiso   1.00
C154   C     0.93782   0.30751   0.23848   0.00000  Uiso   1.00
C155   C     0.05500   0.33466   0.23997   0.00000  Uiso   1.00
C156   C     0.79171   0.33399   0.10901   0.00000  Uiso   1.00
C157   C     0.68677   0.35832   0.10357   0.00000  Uiso   1.00
C158   C     0.68913   0.40872   0.04337   0.00000  Uiso   1.00
C159   C     0.83804   0.22834   0.15283   0.00000  Uiso   1.00
C160   C     0.77203   0.16385   0.18422   0.00000  Uiso   1.00
C161   C     0.81336   0.12530   0.16089   0.00000  Uiso   1.00
H162   H     0.08049   0.34478   0.03189   0.00000  Uiso   1.00
H163   H     0.22907   0.37807   0.09000   0.00000  Uiso   1.00
H164   H     0.97804   0.42887   0.95512   0.00000  Uiso   1.00
H165   H     0.06329   0.23443   0.03575   0.00000  Uiso   1.00
H166   H     0.34808   0.40393   0.17771   0.00000  Uiso   1.00
H167   H     0.81878   0.51104   0.89330   0.00000  Uiso   1.00
H168   H     0.99853   0.10102   0.06333   0.00000  Uiso   1.00
H169   H     0.72836   0.25947   0.21138   0.00000  Uiso   1.00
H170   H     0.85762   0.28808   0.27934   0.00000  Uiso   1.00
H171   H     0.60660   0.33888   0.14445   0.00000  Uiso   1.00
H172   H     0.69184   0.14444   0.22509   0.00000  Uiso   1.00
H173   H     0.04660   0.33089   0.33139   0.00000  Uiso   1.00
H174   H     0.51729   0.43800   0.04697   0.00000  Uiso   1.00
H175   H     0.69705   0.02798   0.21700   0.00000  Uiso   1.00
O176   O     0.28872   0.38779   0.29601   0.00000  Uiso   1.00
O177   O     0.59428   0.52830   0.92287   0.00000  Uiso   1.00
O178   O     0.83012   0.99037   0.14594   0.00000  Uiso   1.00
N179   N     0.25939   0.38280   0.20456   0.00000  Uiso   1.00
N180   N     0.76454   0.48295   0.93865   0.00000  Uiso   1.00
N181   N     0.93257   0.09962   0.09760   0.00000  Uiso   1.00
N182   N     0.09717   0.34350   0.28725   0.00000  Uiso   1.00
N183   N     0.60231   0.44365   0.02134   0.00000  Uiso   1.00
N184   N     0.77035   0.06032   0.18029   0.00000  Uiso   1.00
C185   C     0.67681   0.60281   0.32355   0.00000  Uiso   1.00
C186   C     0.70255   0.54005   0.32976   0.00000  Uiso   1.00
C187   C     0.79278   0.51139   0.35719   0.00000  Uiso   1.00
C188   C     0.80158   0.45403   0.35826   0.00000  Uiso   1.00
C189   C     0.85348   0.36078   0.37179   0.00000  Uiso   1.00
C190   C     0.53910   0.58607   0.35698   0.00000  Uiso   1.00
C191   C     0.49190   0.59612   0.40729   0.00000  Uiso   1.00
C192   C     0.36310   0.57751   0.43127   0.00000  Uiso   1.00
C193   C     0.16123   0.55575   0.48705   0.00000  Uiso   1.00
C194   C     0.68953   0.64741   0.25181   0.00000  Uiso   1.00
C195   C     0.76878   0.70904   0.21368   0.00000  Uiso   1.00
C196   C     0.76661   0.74208   0.14911   0.00000  Uiso   1.00
C197   C     0.79831   0.81556   0.04158   0.00000  Uiso   1.00
C198   C     0.53200   0.55192   0.27668   0.00000  Uiso   1.00
C199   C     0.62390   0.51241   0.30430   0.00000  Uiso   1.00
C200   C     0.63257   0.45508   0.30533   0.00000  Uiso   1.00
C201   C     0.72279   0.42634   0.33275   0.00000  Uiso   1.00
C202   C     0.46045   0.55843   0.33153   0.00000  Uiso   1.00
C203   C     0.33169   0.53981   0.35543   0.00000  Uiso   1.00
C204   C     0.28430   0.54982   0.40577   0.00000  Uiso   1.00
C205   C     0.61088   0.61977   0.22634   0.00000  Uiso   1.00
C206   C     0.60858   0.65273   0.16182   0.00000  Uiso   1.00
C207   C     0.68782   0.71439   0.12361   0.00000  Uiso   1.00
H208   H     0.73804   0.62432   0.34338   0.00000  Uiso   1.00
H209   H     0.85362   0.53279   0.37689   0.00000  Uiso   1.00
H210   H     0.55279   0.61751   0.42698   0.00000  Uiso   1.00
H211   H     0.82963   0.73041   0.23340   0.00000  Uiso   1.00
H212   H     0.94705   0.41911   0.40284   0.00000  Uiso   1.00
H213   H     0.31273   0.59777   0.50845   0.00000  Uiso   1.00
H214   H     0.89651   0.83584   0.10024   0.00000  Uiso   1.00
H215   H     0.47076   0.53040   0.25686   0.00000  Uiso   1.00
H216   H     0.57169   0.43371   0.28562   0.00000  Uiso   1.00
H217   H     0.27085   0.51843   0.33572   0.00000  Uiso   1.00
H218   H     0.54770   0.63133   0.14214   0.00000  Uiso   1.00
H219   H     0.71822   0.33868   0.32876   0.00000  Uiso   1.00
H220   H     0.08389   0.51735   0.43437   0.00000  Uiso   1.00
H221   H     0.66768   0.75542   0.02617   0.00000  Uiso   1.00
O222   O     0.90382   0.31697   0.38630   0.00000  Uiso   1.00
O223   O     0.07161   0.55138   0.52485   0.00000  Uiso   1.00
O224   O     0.83753   0.86372   0.98930   0.00000  Uiso   1.00
N225   N     0.87936   0.41345   0.38144   0.00000  Uiso   1.00
N226   N     0.28631   0.58048   0.48019   0.00000  Uiso   1.00
N227   N     0.83207   0.80307   0.09856   0.00000  Uiso   1.00
N228   N     0.75623   0.37018   0.34158   0.00000  Uiso   1.00
N229   N     0.16318   0.53721   0.44033   0.00000  Uiso   1.00
N230   N     0.70894   0.75979   0.05870   0.00000  Uiso   1.00
C231   C     0.07443   0.07467   0.60078   0.00000  Uiso   1.00
C232   C     0.16199   0.13093   0.53835   0.00000  Uiso   1.00
C233   C     0.28035   0.13190   0.51003   0.00000  Uiso   1.00
C234   C     0.34568   0.18795   0.45292   0.00000  Uiso   1.00
C235   C     0.48942   0.26721   0.36018   0.00000  Uiso   1.00
C236   C     0.95347   0.05814   0.58360   0.00000  Uiso   1.00
C237   C     0.89651   0.99790   0.59333   0.00000  Uiso   1.00
C238   C     0.78629   0.99267   0.57433   0.00000  Uiso   1.00
C239   C     0.60625   0.95891   0.55188   0.00000  Uiso   1.00
C240   C     0.04308   0.10197   0.64542   0.00000  Uiso   1.00
C241   C     0.06142   0.07858   0.70714   0.00000  Uiso   1.00
C242   C     0.02662   0.11025   0.74020   0.00000  Uiso   1.00
C243   C     0.98572   0.14454   0.81373   0.00000  Uiso   1.00
C244   C     0.97997   0.17249   0.54973   0.00000  Uiso   1.00
C245   C     0.11068   0.18406   0.51062   0.00000  Uiso   1.00
C246   C     0.17584   0.24013   0.45354   0.00000  Uiso   1.00
C247   C     0.29428   0.24118   0.42514   0.00000  Uiso   1.00
C248   C     0.90216   0.11127   0.55587   0.00000  Uiso   1.00
C249   C     0.79200   0.10612   0.53685   0.00000  Uiso   1.00
C250   C     0.73488   0.04589   0.54655   0.00000  Uiso   1.00
C251   C     0.99178   0.15511   0.61769   0.00000  Uiso   1.00
C252   C     0.95692   0.18681   0.65066   0.00000  Uiso   1.00
C253   C     0.97522   0.16347   0.71242   0.00000  Uiso   1.00
H254   H     0.11437   0.03331   0.62237   0.00000  Uiso   1.00
H255   H     0.32002   0.09077   0.53150   0.00000  Uiso   1.00
H256   H     0.93623   0.95679   0.61480   0.00000  Uiso   1.00
H257   H     0.10113   0.03747   0.72858   0.00000  Uiso   1.00
H258   H     0.52538   0.17791   0.41851   0.00000  Uiso   1.00
H259   H     0.71611   0.89540   0.59417   0.00000  Uiso   1.00
H260   H     0.06384   0.06551   0.83411   0.00000  Uiso   1.00
H261   H     0.94002   0.21385   0.52814   0.00000  Uiso   1.00
H262   H     0.13611   0.28123   0.43210   0.00000  Uiso   1.00
H263   H     0.75232   0.14725   0.51540   0.00000  Uiso   1.00
H264   H     0.91722   0.22792   0.62918   0.00000  Uiso   1.00
H265   H     0.37611   0.33249   0.33783   0.00000  Uiso   1.00
H266   H     0.56683   0.04998   0.51349   0.00000  Uiso   1.00
H267   H     0.91457   0.22009   0.75343   0.00000  Uiso   1.00
O268   O     0.58287   0.29625   0.31667   0.00000  Uiso   1.00
O269   O     0.52113   0.92561   0.54715   0.00000  Uiso   1.00
O270   O     0.97734   0.14879   0.86195   0.00000  Uiso   1.00
N271   N     0.46335   0.20504   0.41271   0.00000  Uiso   1.00
N272   N     0.70674   0.94092   0.57693   0.00000  Uiso   1.00
N273   N     0.03180   0.09995   0.80127   0.00000  Uiso   1.00
N274   N     0.38303   0.28823   0.36929   0.00000  Uiso   1.00
N275   N     0.62642   0.02410   0.53352   0.00000  Uiso   1.00
N276   N     0.95148   0.18313   0.75785   0.00000  Uiso   1.00
