data_job_01404
_audit_creation_date              2018-12-19
_audit_creation_method            'Materials Studio'
_symmetry_space_group_name_H-M    'P1'
_symmetry_Int_Tables_number       1
_symmetry_cell_setting            triclinic
loop_
_symmetry_equiv_pos_as_xyz
  x,y,z
_cell_length_a                    14.8329
_cell_length_b                    10.1948
_cell_length_c                    18.7014
_cell_angle_alpha                 90.0000
_cell_angle_beta                  129.2840
_cell_angle_gamma                 90.0000
loop_
_atom_site_label
_atom_site_type_symbol
_atom_site_fract_x
_atom_site_fract_y
_atom_site_fract_z
_atom_site_U_iso_or_equiv
_atom_site_adp_type
_atom_site_occupancy
C1     C     0.68504   0.25167   0.95378   0.00000  Uiso   1.00
C2     C     0.70112   0.13150   0.00939   0.00000  Uiso   1.00
C3     C     0.64685   0.11024   0.04742   0.00000  Uiso   1.00
C4     C     0.67312   0.99412   0.09590   0.00000  Uiso   1.00
C5     C     0.68631   0.82147   0.18077   0.00000  Uiso   1.00
C6     C     0.80652   0.30827   0.00318   0.00000  Uiso   1.00
C7     C     0.84086   0.43564   0.03598   0.00000  Uiso   1.00
C8     C     0.95585   0.46834   0.07921   0.00000  Uiso   1.00
C9     C     0.13266   0.57016   0.15438   0.00000  Uiso   1.00
C10    C     0.64559   0.19984   0.86141   0.00000  Uiso   1.00
C11    C     0.54462   0.23607   0.77500   0.00000  Uiso   1.00
C12    C     0.52413   0.17750   0.69887   0.00000  Uiso   1.00
C13    C     0.45105   0.11096   0.55393   0.00000  Uiso   1.00
C14    C     0.82820   0.08327   0.97224   0.00000  Uiso   1.00
C15    C     0.77889   0.04003   0.01942   0.00000  Uiso   1.00
C16    C     0.80524   0.92391   0.06785   0.00000  Uiso   1.00
C17    C     0.75101   0.90248   0.10594   0.00000  Uiso   1.00
C18    C     0.88428   0.21681   0.01321   0.00000  Uiso   1.00
C19    C     0.99925   0.24932   0.05640   0.00000  Uiso   1.00
C20    C     0.03376   0.37670   0.08926   0.00000  Uiso   1.00
C21    C     0.72334   0.10837   0.87144   0.00000  Uiso   1.00
C22    C     0.70301   0.04974   0.79543   0.00000  Uiso   1.00
C23    C     0.60203   0.08586   0.70892   0.00000  Uiso   1.00
H24    H     0.62451   0.32289   0.94597   0.00000  Uiso   1.00
H25    H     0.58669   0.18106   0.03965   0.00000  Uiso   1.00
H26    H     0.78066   0.50641   0.02820   0.00000  Uiso   1.00
H27    H     0.48447   0.30686   0.76727   0.00000  Uiso   1.00
H28    H     0.57908   0.98349   0.14797   0.00000  Uiso   1.00
H29    H     0.98808   0.66953   0.12379   0.00000  Uiso   1.00
H30    H     0.36349   0.24874   0.57356   0.00000  Uiso   1.00
H31    H     0.88874   0.01205   0.98004   0.00000  Uiso   1.00
H32    H     0.86542   0.85315   0.07559   0.00000  Uiso   1.00
H33    H     0.05940   0.17851   0.06414   0.00000  Uiso   1.00
H34    H     0.76320   0.97896   0.80321   0.00000  Uiso   1.00
H35    H     0.80531   0.71735   0.17714   0.00000  Uiso   1.00
H36    H     0.21432   0.40340   0.15296   0.00000  Uiso   1.00
H37    H     0.58973   0.98261   0.60274   0.00000  Uiso   1.00
O38    O     0.67212   0.75152   0.22482   0.00000  Uiso   1.00
O39    O     0.20870   0.65159   0.19308   0.00000  Uiso   1.00
O40    O     0.38925   0.09952   0.47121   0.00000  Uiso   1.00
N41    N     0.63551   0.94265   0.14170   0.00000  Uiso   1.00
N42    N     0.01791   0.58405   0.11911   0.00000  Uiso   1.00
N43    N     0.43398   0.19068   0.60470   0.00000  Uiso   1.00
N44    N     0.75724   0.79944   0.15740   0.00000  Uiso   1.00
N45    N     0.13964   0.44084   0.13481   0.00000  Uiso   1.00
N46    N     0.55571   0.04747   0.62040   0.00000  Uiso   1.00
C47    C     0.31496   0.75167   0.54622   0.00000  Uiso   1.00
C48    C     0.29888   0.63150   0.49061   0.00000  Uiso   1.00
C49    C     0.35315   0.61024   0.45258   0.00000  Uiso   1.00
C50    C     0.32688   0.49412   0.40410   0.00000  Uiso   1.00
C51    C     0.31369   0.32147   0.31923   0.00000  Uiso   1.00
C52    C     0.19348   0.80827   0.49682   0.00000  Uiso   1.00
C53    C     0.15914   0.93564   0.46402   0.00000  Uiso   1.00
C54    C     0.04415   0.96834   0.42079   0.00000  Uiso   1.00
C55    C     0.86734   0.07016   0.34562   0.00000  Uiso   1.00
C56    C     0.35441   0.69984   0.63859   0.00000  Uiso   1.00
C57    C     0.45538   0.73607   0.72500   0.00000  Uiso   1.00
C58    C     0.47587   0.67750   0.80113   0.00000  Uiso   1.00
C59    C     0.54895   0.61096   0.94607   0.00000  Uiso   1.00
C60    C     0.17180   0.58327   0.52776   0.00000  Uiso   1.00
C61    C     0.22111   0.54003   0.48058   0.00000  Uiso   1.00
C62    C     0.19476   0.42391   0.43215   0.00000  Uiso   1.00
C63    C     0.24899   0.40248   0.39406   0.00000  Uiso   1.00
C64    C     0.11572   0.71681   0.48679   0.00000  Uiso   1.00
C65    C     0.00075   0.74932   0.44360   0.00000  Uiso   1.00
C66    C     0.96624   0.87670   0.41074   0.00000  Uiso   1.00
C67    C     0.27666   0.60837   0.62856   0.00000  Uiso   1.00
C68    C     0.29699   0.54974   0.70457   0.00000  Uiso   1.00
C69    C     0.39797   0.58586   0.79108   0.00000  Uiso   1.00
H70    H     0.37549   0.82289   0.55403   0.00000  Uiso   1.00
H71    H     0.41331   0.68106   0.46035   0.00000  Uiso   1.00
H72    H     0.21934   0.00641   0.47180   0.00000  Uiso   1.00
H73    H     0.51553   0.80686   0.73273   0.00000  Uiso   1.00
H74    H     0.42092   0.48349   0.35203   0.00000  Uiso   1.00
H75    H     0.01192   0.16953   0.37621   0.00000  Uiso   1.00
H76    H     0.63651   0.74874   0.92644   0.00000  Uiso   1.00
H77    H     0.11126   0.51205   0.51996   0.00000  Uiso   1.00
H78    H     0.13458   0.35315   0.42441   0.00000  Uiso   1.00
H79    H     0.94060   0.67851   0.43586   0.00000  Uiso   1.00
H80    H     0.23680   0.47896   0.69679   0.00000  Uiso   1.00
H81    H     0.19469   0.21735   0.32286   0.00000  Uiso   1.00
H82    H     0.78568   0.90340   0.34704   0.00000  Uiso   1.00
H83    H     0.41027   0.48261   0.89726   0.00000  Uiso   1.00
O84    O     0.32788   0.25152   0.27518   0.00000  Uiso   1.00
O85    O     0.79130   0.15159   0.30692   0.00000  Uiso   1.00
O86    O     0.61075   0.59952   0.02879   0.00000  Uiso   1.00
N87    N     0.36449   0.44265   0.35830   0.00000  Uiso   1.00
N88    N     0.98209   0.08405   0.38089   0.00000  Uiso   1.00
N89    N     0.56602   0.69068   0.89530   0.00000  Uiso   1.00
N90    N     0.24276   0.29944   0.34260   0.00000  Uiso   1.00
N91    N     0.86036   0.94084   0.36519   0.00000  Uiso   1.00
N92    N     0.44429   0.54747   0.87960   0.00000  Uiso   1.00
C93    C     0.31496   0.74833   0.04622   0.00000  Uiso   1.00
C94    C     0.29888   0.86850   0.99061   0.00000  Uiso   1.00
C95    C     0.35315   0.88976   0.95258   0.00000  Uiso   1.00
C96    C     0.32688   0.00588   0.90410   0.00000  Uiso   1.00
C97    C     0.31369   0.17853   0.81923   0.00000  Uiso   1.00
C98    C     0.19348   0.69173   0.99682   0.00000  Uiso   1.00
C99    C     0.15914   0.56436   0.96402   0.00000  Uiso   1.00
C100   C     0.04415   0.53166   0.92079   0.00000  Uiso   1.00
C101   C     0.86734   0.42984   0.84562   0.00000  Uiso   1.00
C102   C     0.35441   0.80016   0.13859   0.00000  Uiso   1.00
C103   C     0.45538   0.76393   0.22500   0.00000  Uiso   1.00
C104   C     0.47587   0.82250   0.30113   0.00000  Uiso   1.00
C105   C     0.54895   0.88904   0.44607   0.00000  Uiso   1.00
C106   C     0.17180   0.91673   0.02776   0.00000  Uiso   1.00
C107   C     0.22111   0.95997   0.98058   0.00000  Uiso   1.00
C108   C     0.19476   0.07609   0.93215   0.00000  Uiso   1.00
C109   C     0.24899   0.09752   0.89406   0.00000  Uiso   1.00
C110   C     0.11572   0.78319   0.98679   0.00000  Uiso   1.00
C111   C     0.00075   0.75068   0.94360   0.00000  Uiso   1.00
C112   C     0.96624   0.62330   0.91074   0.00000  Uiso   1.00
C113   C     0.27666   0.89163   0.12856   0.00000  Uiso   1.00
C114   C     0.29699   0.95026   0.20457   0.00000  Uiso   1.00
C115   C     0.39797   0.91414   0.29108   0.00000  Uiso   1.00
H116   H     0.37549   0.67711   0.05403   0.00000  Uiso   1.00
H117   H     0.41331   0.81894   0.96035   0.00000  Uiso   1.00
H118   H     0.21934   0.49359   0.97180   0.00000  Uiso   1.00
H119   H     0.51553   0.69314   0.23273   0.00000  Uiso   1.00
H120   H     0.42092   0.01651   0.85203   0.00000  Uiso   1.00
H121   H     0.01192   0.33047   0.87621   0.00000  Uiso   1.00
H122   H     0.63651   0.75126   0.42644   0.00000  Uiso   1.00
H123   H     0.11126   0.98795   0.01996   0.00000  Uiso   1.00
H124   H     0.13458   0.14685   0.92441   0.00000  Uiso   1.00
H125   H     0.94060   0.82149   0.93586   0.00000  Uiso   1.00
H126   H     0.23680   0.02104   0.19679   0.00000  Uiso   1.00
H127   H     0.19469   0.28265   0.82286   0.00000  Uiso   1.00
H128   H     0.78568   0.59660   0.84704   0.00000  Uiso   1.00
H129   H     0.41027   0.01739   0.39726   0.00000  Uiso   1.00
O130   O     0.32788   0.24848   0.77518   0.00000  Uiso   1.00
O131   O     0.79130   0.34841   0.80692   0.00000  Uiso   1.00
O132   O     0.61075   0.90048   0.52879   0.00000  Uiso   1.00
N133   N     0.36449   0.05735   0.85830   0.00000  Uiso   1.00
N134   N     0.98209   0.41595   0.88089   0.00000  Uiso   1.00
N135   N     0.56602   0.80932   0.39530   0.00000  Uiso   1.00
N136   N     0.24276   0.20056   0.84260   0.00000  Uiso   1.00
N137   N     0.86036   0.55916   0.86519   0.00000  Uiso   1.00
N138   N     0.44429   0.95253   0.37960   0.00000  Uiso   1.00
C139   C     0.68504   0.24833   0.45378   0.00000  Uiso   1.00
C140   C     0.70112   0.36850   0.50939   0.00000  Uiso   1.00
C141   C     0.64685   0.38976   0.54742   0.00000  Uiso   1.00
C142   C     0.67312   0.50588   0.59590   0.00000  Uiso   1.00
C143   C     0.68631   0.67853   0.68077   0.00000  Uiso   1.00
C144   C     0.80652   0.19173   0.50318   0.00000  Uiso   1.00
C145   C     0.84086   0.06436   0.53598   0.00000  Uiso   1.00
C146   C     0.95585   0.03166   0.57921   0.00000  Uiso   1.00
C147   C     0.13266   0.92984   0.65438   0.00000  Uiso   1.00
C148   C     0.64559   0.30016   0.36141   0.00000  Uiso   1.00
C149   C     0.54462   0.26393   0.27500   0.00000  Uiso   1.00
C150   C     0.52413   0.32250   0.19887   0.00000  Uiso   1.00
C151   C     0.45105   0.38904   0.05393   0.00000  Uiso   1.00
C152   C     0.82820   0.41673   0.47224   0.00000  Uiso   1.00
C153   C     0.77889   0.45997   0.51942   0.00000  Uiso   1.00
C154   C     0.80524   0.57609   0.56785   0.00000  Uiso   1.00
C155   C     0.75101   0.59752   0.60594   0.00000  Uiso   1.00
C156   C     0.88428   0.28319   0.51321   0.00000  Uiso   1.00
C157   C     0.99925   0.25068   0.55640   0.00000  Uiso   1.00
C158   C     0.03376   0.12330   0.58926   0.00000  Uiso   1.00
C159   C     0.72334   0.39163   0.37144   0.00000  Uiso   1.00
C160   C     0.70301   0.45026   0.29543   0.00000  Uiso   1.00
C161   C     0.60203   0.41414   0.20892   0.00000  Uiso   1.00
H162   H     0.62451   0.17711   0.44597   0.00000  Uiso   1.00
H163   H     0.58669   0.31894   0.53965   0.00000  Uiso   1.00
H164   H     0.78066   0.99359   0.52820   0.00000  Uiso   1.00
H165   H     0.48447   0.19314   0.26727   0.00000  Uiso   1.00
H166   H     0.57908   0.51651   0.64797   0.00000  Uiso   1.00
H167   H     0.98808   0.83047   0.62379   0.00000  Uiso   1.00
H168   H     0.36349   0.25126   0.07356   0.00000  Uiso   1.00
H169   H     0.88874   0.48795   0.48004   0.00000  Uiso   1.00
H170   H     0.86542   0.64685   0.57559   0.00000  Uiso   1.00
H171   H     0.05940   0.32149   0.56414   0.00000  Uiso   1.00
H172   H     0.76320   0.52104   0.30321   0.00000  Uiso   1.00
H173   H     0.80531   0.78265   0.67714   0.00000  Uiso   1.00
H174   H     0.21432   0.09660   0.65296   0.00000  Uiso   1.00
H175   H     0.58973   0.51739   0.10274   0.00000  Uiso   1.00
O176   O     0.67212   0.74848   0.72482   0.00000  Uiso   1.00
O177   O     0.20870   0.84841   0.69308   0.00000  Uiso   1.00
O178   O     0.38925   0.40048   0.97121   0.00000  Uiso   1.00
N179   N     0.63551   0.55735   0.64170   0.00000  Uiso   1.00
N180   N     0.01791   0.91595   0.61911   0.00000  Uiso   1.00
N181   N     0.43398   0.30932   0.10470   0.00000  Uiso   1.00
N182   N     0.75724   0.70056   0.65740   0.00000  Uiso   1.00
N183   N     0.13964   0.05916   0.63481   0.00000  Uiso   1.00
N184   N     0.55571   0.45253   0.12040   0.00000  Uiso   1.00
