data_job_01197
_audit_creation_date              2018-12-19
_audit_creation_method            'Materials Studio'
_symmetry_space_group_name_H-M    'P1'
_symmetry_Int_Tables_number       1
_symmetry_cell_setting            triclinic
loop_
_symmetry_equiv_pos_as_xyz
  x,y,z
_cell_length_a                    27.2555
_cell_length_b                    27.2555
_cell_length_c                    7.8591
_cell_angle_alpha                 90.0000
_cell_angle_beta                  90.0000
_cell_angle_gamma                 120.0000
loop_
_atom_site_label
_atom_site_type_symbol
_atom_site_fract_x
_atom_site_fract_y
_atom_site_fract_z
_atom_site_U_iso_or_equiv
_atom_site_adp_type
_atom_site_occupancy
C1     C     0.11965   0.80691   0.14567   0.00000  Uiso   1.00
C2     C     0.15266   0.83575   0.98444   0.00000  Uiso   1.00
C3     C     0.20925   0.87770   0.97740   0.00000  Uiso   1.00
C4     C     0.23163   0.89867   0.81758   0.00000  Uiso   1.00
C5     C     0.28790   0.94655   0.58966   0.00000  Uiso   1.00
C6     C     0.06869   0.81581   0.14767   0.00000  Uiso   1.00
C7     C     0.05467   0.84098   0.27787   0.00000  Uiso   1.00
C8     C     0.00635   0.84515   0.25546   0.00000  Uiso   1.00
C9     C     0.93223   0.86203   0.28101   0.00000  Uiso   1.00
C10    C     0.09589   0.74358   0.11897   0.00000  Uiso   1.00
C11    C     0.10473   0.70802   0.22507   0.00000  Uiso   1.00
C12    C     0.07930   0.65138   0.17852   0.00000  Uiso   1.00
C13    C     0.04741   0.55611   0.15952   0.00000  Uiso   1.00
C14    C     0.05876   0.76954   0.87436   0.00000  Uiso   1.00
C15    C     0.11959   0.81545   0.83708   0.00000  Uiso   1.00
C16    C     0.14188   0.83635   0.67723   0.00000  Uiso   1.00
C17    C     0.19850   0.87833   0.66995   0.00000  Uiso   1.00
C18    C     0.03561   0.79551   0.00031   0.00000  Uiso   1.00
C19    C     0.98730   0.79963   0.97771   0.00000  Uiso   1.00
C20    C     0.97322   0.82481   0.10784   0.00000  Uiso   1.00
C21    C     0.06281   0.72328   0.97161   0.00000  Uiso   1.00
C22    C     0.03736   0.66667   0.92490   0.00000  Uiso   1.00
C23    C     0.04616   0.63104   0.03090   0.00000  Uiso   1.00
H24    H     0.14540   0.82272   0.26040   0.00000  Uiso   1.00
H25    H     0.23483   0.89340   0.09147   0.00000  Uiso   1.00
H26    H     0.08027   0.85668   0.39190   0.00000  Uiso   1.00
H27    H     0.13032   0.72375   0.33910   0.00000  Uiso   1.00
H28    H     0.31939   0.96283   0.83920   0.00000  Uiso   1.00
H29    H     0.99348   0.88539   0.47270   0.00000  Uiso   1.00
H30    H     0.09902   0.60506   0.36137   0.00000  Uiso   1.00
H31    H     0.03301   0.75373   0.75964   0.00000  Uiso   1.00
H32    H     0.11628   0.82063   0.56322   0.00000  Uiso   1.00
H33    H     0.96172   0.78392   0.86366   0.00000  Uiso   1.00
H34    H     0.01177   0.65098   0.81085   0.00000  Uiso   1.00
H35    H     0.22317   0.90377   0.41045   0.00000  Uiso   1.00
H36    H     0.89725   0.82633   0.04397   0.00000  Uiso   1.00
H37    H     0.00280   0.54600   0.93262   0.00000  Uiso   1.00
O38    O     0.32808   0.97857   0.50466   0.00000  Uiso   1.00
O39    O     0.90049   0.87696   0.33581   0.00000  Uiso   1.00
O40    O     0.03896   0.50918   0.18973   0.00000  Uiso   1.00
N41    N     0.28532   0.93974   0.76524   0.00000  Uiso   1.00
N42    N     0.98062   0.86735   0.35752   0.00000  Uiso   1.00
N43    N     0.07928   0.60526   0.25346   0.00000  Uiso   1.00
N44    N     0.23355   0.90796   0.53454   0.00000  Uiso   1.00
N45    N     0.92884   0.83557   0.12682   0.00000  Uiso   1.00
N46    N     0.02750   0.57348   0.02275   0.00000  Uiso   1.00
C47    C     0.19309   0.31274   0.14567   0.00000  Uiso   1.00
C48    C     0.16425   0.31691   0.98444   0.00000  Uiso   1.00
C49    C     0.12230   0.33155   0.97740   0.00000  Uiso   1.00
C50    C     0.10133   0.33296   0.81758   0.00000  Uiso   1.00
C51    C     0.05345   0.34136   0.58966   0.00000  Uiso   1.00
C52    C     0.18419   0.25288   0.14767   0.00000  Uiso   1.00
C53    C     0.15902   0.21369   0.27787   0.00000  Uiso   1.00
C54    C     0.15485   0.16120   0.25546   0.00000  Uiso   1.00
C55    C     0.13797   0.07020   0.28101   0.00000  Uiso   1.00
C56    C     0.25642   0.35231   0.11897   0.00000  Uiso   1.00
C57    C     0.29198   0.39670   0.22507   0.00000  Uiso   1.00
C58    C     0.34862   0.42792   0.17852   0.00000  Uiso   1.00
C59    C     0.44389   0.49130   0.15952   0.00000  Uiso   1.00
C60    C     0.23046   0.28922   0.87436   0.00000  Uiso   1.00
C61    C     0.18455   0.30414   0.83708   0.00000  Uiso   1.00
C62    C     0.16365   0.30553   0.67723   0.00000  Uiso   1.00
C63    C     0.12167   0.32017   0.66995   0.00000  Uiso   1.00
C64    C     0.20449   0.24011   0.00031   0.00000  Uiso   1.00
C65    C     0.20037   0.18767   0.97771   0.00000  Uiso   1.00
C66    C     0.17519   0.14840   0.10784   0.00000  Uiso   1.00
C67    C     0.27672   0.33954   0.97161   0.00000  Uiso   1.00
C68    C     0.33333   0.37069   0.92490   0.00000  Uiso   1.00
C69    C     0.36896   0.41513   0.03090   0.00000  Uiso   1.00
H70    H     0.17728   0.32268   0.26040   0.00000  Uiso   1.00
H71    H     0.10660   0.34143   0.09147   0.00000  Uiso   1.00
H72    H     0.14332   0.22358   0.39190   0.00000  Uiso   1.00
H73    H     0.27625   0.40658   0.33910   0.00000  Uiso   1.00
H74    H     0.03717   0.35656   0.83920   0.00000  Uiso   1.00
H75    H     0.11461   0.10809   0.47270   0.00000  Uiso   1.00
H76    H     0.39494   0.49396   0.36137   0.00000  Uiso   1.00
H77    H     0.24627   0.27928   0.75964   0.00000  Uiso   1.00
H78    H     0.17937   0.29565   0.56322   0.00000  Uiso   1.00
H79    H     0.21608   0.17780   0.86366   0.00000  Uiso   1.00
H80    H     0.34902   0.36079   0.81085   0.00000  Uiso   1.00
H81    H     0.09623   0.31940   0.41045   0.00000  Uiso   1.00
H82    H     0.17367   0.07093   0.04397   0.00000  Uiso   1.00
H83    H     0.45400   0.45680   0.93262   0.00000  Uiso   1.00
O84    O     0.02143   0.34951   0.50466   0.00000  Uiso   1.00
O85    O     0.12304   0.02353   0.33581   0.00000  Uiso   1.00
O86    O     0.49082   0.52978   0.18973   0.00000  Uiso   1.00
N87    N     0.06026   0.34558   0.76524   0.00000  Uiso   1.00
N88    N     0.13265   0.11327   0.35752   0.00000  Uiso   1.00
N89    N     0.39474   0.47402   0.25346   0.00000  Uiso   1.00
N90    N     0.09204   0.32558   0.53454   0.00000  Uiso   1.00
N91    N     0.16443   0.09327   0.12682   0.00000  Uiso   1.00
N92    N     0.42652   0.45402   0.02275   0.00000  Uiso   1.00
C93    C     0.68726   0.88035   0.14567   0.00000  Uiso   1.00
C94    C     0.68309   0.84734   0.98444   0.00000  Uiso   1.00
C95    C     0.66845   0.79075   0.97740   0.00000  Uiso   1.00
C96    C     0.66704   0.76837   0.81758   0.00000  Uiso   1.00
C97    C     0.65864   0.71210   0.58966   0.00000  Uiso   1.00
C98    C     0.74712   0.93131   0.14767   0.00000  Uiso   1.00
C99    C     0.78631   0.94533   0.27787   0.00000  Uiso   1.00
C100   C     0.83880   0.99365   0.25546   0.00000  Uiso   1.00
C101   C     0.92980   0.06777   0.28101   0.00000  Uiso   1.00
C102   C     0.64769   0.90411   0.11897   0.00000  Uiso   1.00
C103   C     0.60330   0.89527   0.22507   0.00000  Uiso   1.00
C104   C     0.57208   0.92070   0.17852   0.00000  Uiso   1.00
C105   C     0.50870   0.95259   0.15952   0.00000  Uiso   1.00
C106   C     0.71078   0.94124   0.87436   0.00000  Uiso   1.00
C107   C     0.69586   0.88041   0.83708   0.00000  Uiso   1.00
C108   C     0.69447   0.85812   0.67723   0.00000  Uiso   1.00
C109   C     0.67983   0.80150   0.66995   0.00000  Uiso   1.00
C110   C     0.75989   0.96439   0.00031   0.00000  Uiso   1.00
C111   C     0.81233   0.01270   0.97771   0.00000  Uiso   1.00
C112   C     0.85160   0.02678   0.10784   0.00000  Uiso   1.00
C113   C     0.66046   0.93719   0.97161   0.00000  Uiso   1.00
C114   C     0.62931   0.96264   0.92490   0.00000  Uiso   1.00
C115   C     0.58487   0.95384   0.03090   0.00000  Uiso   1.00
H116   H     0.67732   0.85460   0.26040   0.00000  Uiso   1.00
H117   H     0.65857   0.76517   0.09147   0.00000  Uiso   1.00
H118   H     0.77642   0.91973   0.39190   0.00000  Uiso   1.00
H119   H     0.59342   0.86968   0.33910   0.00000  Uiso   1.00
H120   H     0.64344   0.68061   0.83920   0.00000  Uiso   1.00
H121   H     0.89191   0.00652   0.47270   0.00000  Uiso   1.00
H122   H     0.50604   0.90098   0.36137   0.00000  Uiso   1.00
H123   H     0.72072   0.96699   0.75964   0.00000  Uiso   1.00
H124   H     0.70435   0.88372   0.56322   0.00000  Uiso   1.00
H125   H     0.82220   0.03828   0.86366   0.00000  Uiso   1.00
H126   H     0.63921   0.98823   0.81085   0.00000  Uiso   1.00
H127   H     0.68060   0.77683   0.41045   0.00000  Uiso   1.00
H128   H     0.92907   0.10275   0.04397   0.00000  Uiso   1.00
H129   H     0.54320   0.99720   0.93262   0.00000  Uiso   1.00
O130   O     0.65049   0.67192   0.50466   0.00000  Uiso   1.00
O131   O     0.97647   0.09951   0.33581   0.00000  Uiso   1.00
O132   O     0.47022   0.96104   0.18973   0.00000  Uiso   1.00
N133   N     0.65442   0.71468   0.76524   0.00000  Uiso   1.00
N134   N     0.88673   0.01938   0.35752   0.00000  Uiso   1.00
N135   N     0.52598   0.92072   0.25346   0.00000  Uiso   1.00
N136   N     0.67442   0.76645   0.53454   0.00000  Uiso   1.00
N137   N     0.90673   0.07116   0.12682   0.00000  Uiso   1.00
N138   N     0.54598   0.97250   0.02275   0.00000  Uiso   1.00
C139   C     0.88035   0.19309   0.85433   0.00000  Uiso   1.00
C140   C     0.84734   0.16425   0.01556   0.00000  Uiso   1.00
C141   C     0.79075   0.12230   0.02260   0.00000  Uiso   1.00
C142   C     0.76837   0.10133   0.18242   0.00000  Uiso   1.00
C143   C     0.71210   0.05345   0.41034   0.00000  Uiso   1.00
C144   C     0.93131   0.18419   0.85233   0.00000  Uiso   1.00
C145   C     0.94533   0.15902   0.72213   0.00000  Uiso   1.00
C146   C     0.99365   0.15485   0.74454   0.00000  Uiso   1.00
C147   C     0.06777   0.13797   0.71899   0.00000  Uiso   1.00
C148   C     0.90411   0.25642   0.88103   0.00000  Uiso   1.00
C149   C     0.89527   0.29198   0.77493   0.00000  Uiso   1.00
C150   C     0.92070   0.34862   0.82148   0.00000  Uiso   1.00
C151   C     0.95259   0.44389   0.84048   0.00000  Uiso   1.00
C152   C     0.94124   0.23046   0.12564   0.00000  Uiso   1.00
C153   C     0.88041   0.18455   0.16292   0.00000  Uiso   1.00
C154   C     0.85812   0.16365   0.32277   0.00000  Uiso   1.00
C155   C     0.80150   0.12167   0.33005   0.00000  Uiso   1.00
C156   C     0.96439   0.20449   0.99969   0.00000  Uiso   1.00
C157   C     0.01270   0.20037   0.02229   0.00000  Uiso   1.00
C158   C     0.02678   0.17519   0.89216   0.00000  Uiso   1.00
C159   C     0.93719   0.27672   0.02839   0.00000  Uiso   1.00
C160   C     0.96264   0.33333   0.07510   0.00000  Uiso   1.00
C161   C     0.95384   0.36896   0.96910   0.00000  Uiso   1.00
H162   H     0.85460   0.17728   0.73960   0.00000  Uiso   1.00
H163   H     0.76517   0.10660   0.90853   0.00000  Uiso   1.00
H164   H     0.91973   0.14332   0.60810   0.00000  Uiso   1.00
H165   H     0.86968   0.27625   0.66090   0.00000  Uiso   1.00
H166   H     0.68061   0.03717   0.16080   0.00000  Uiso   1.00
H167   H     0.00652   0.11461   0.52730   0.00000  Uiso   1.00
H168   H     0.90098   0.39494   0.63863   0.00000  Uiso   1.00
H169   H     0.96699   0.24627   0.24036   0.00000  Uiso   1.00
H170   H     0.88372   0.17937   0.43678   0.00000  Uiso   1.00
H171   H     0.03828   0.21608   0.13634   0.00000  Uiso   1.00
H172   H     0.98823   0.34902   0.18915   0.00000  Uiso   1.00
H173   H     0.77683   0.09623   0.58955   0.00000  Uiso   1.00
H174   H     0.10275   0.17367   0.95603   0.00000  Uiso   1.00
H175   H     0.99720   0.45400   0.06738   0.00000  Uiso   1.00
O176   O     0.67192   0.02143   0.49534   0.00000  Uiso   1.00
O177   O     0.09951   0.12304   0.66419   0.00000  Uiso   1.00
O178   O     0.96104   0.49082   0.81027   0.00000  Uiso   1.00
N179   N     0.71468   0.06026   0.23476   0.00000  Uiso   1.00
N180   N     0.01938   0.13265   0.64248   0.00000  Uiso   1.00
N181   N     0.92072   0.39474   0.74654   0.00000  Uiso   1.00
N182   N     0.76645   0.09204   0.46546   0.00000  Uiso   1.00
N183   N     0.07116   0.16443   0.87318   0.00000  Uiso   1.00
N184   N     0.97250   0.42652   0.97725   0.00000  Uiso   1.00
C185   C     0.80691   0.68726   0.85433   0.00000  Uiso   1.00
C186   C     0.83575   0.68309   0.01556   0.00000  Uiso   1.00
C187   C     0.87770   0.66845   0.02260   0.00000  Uiso   1.00
C188   C     0.89867   0.66704   0.18242   0.00000  Uiso   1.00
C189   C     0.94655   0.65864   0.41034   0.00000  Uiso   1.00
C190   C     0.81581   0.74712   0.85233   0.00000  Uiso   1.00
C191   C     0.84098   0.78631   0.72213   0.00000  Uiso   1.00
C192   C     0.84515   0.83880   0.74454   0.00000  Uiso   1.00
C193   C     0.86203   0.92980   0.71899   0.00000  Uiso   1.00
C194   C     0.74358   0.64769   0.88103   0.00000  Uiso   1.00
C195   C     0.70802   0.60330   0.77493   0.00000  Uiso   1.00
C196   C     0.65138   0.57208   0.82148   0.00000  Uiso   1.00
C197   C     0.55611   0.50870   0.84048   0.00000  Uiso   1.00
C198   C     0.76954   0.71078   0.12564   0.00000  Uiso   1.00
C199   C     0.81545   0.69586   0.16292   0.00000  Uiso   1.00
C200   C     0.83635   0.69447   0.32277   0.00000  Uiso   1.00
C201   C     0.87833   0.67983   0.33005   0.00000  Uiso   1.00
C202   C     0.79551   0.75989   0.99969   0.00000  Uiso   1.00
C203   C     0.79963   0.81233   0.02229   0.00000  Uiso   1.00
C204   C     0.82481   0.85160   0.89216   0.00000  Uiso   1.00
C205   C     0.72328   0.66046   0.02839   0.00000  Uiso   1.00
C206   C     0.66667   0.62931   0.07510   0.00000  Uiso   1.00
C207   C     0.63104   0.58487   0.96910   0.00000  Uiso   1.00
H208   H     0.82272   0.67732   0.73960   0.00000  Uiso   1.00
H209   H     0.89340   0.65857   0.90853   0.00000  Uiso   1.00
H210   H     0.85668   0.77642   0.60810   0.00000  Uiso   1.00
H211   H     0.72375   0.59342   0.66090   0.00000  Uiso   1.00
H212   H     0.96283   0.64344   0.16080   0.00000  Uiso   1.00
H213   H     0.88539   0.89191   0.52730   0.00000  Uiso   1.00
H214   H     0.60506   0.50604   0.63863   0.00000  Uiso   1.00
H215   H     0.75373   0.72072   0.24036   0.00000  Uiso   1.00
H216   H     0.82063   0.70435   0.43678   0.00000  Uiso   1.00
H217   H     0.78392   0.82220   0.13634   0.00000  Uiso   1.00
H218   H     0.65098   0.63921   0.18915   0.00000  Uiso   1.00
H219   H     0.90377   0.68060   0.58955   0.00000  Uiso   1.00
H220   H     0.82633   0.92907   0.95603   0.00000  Uiso   1.00
H221   H     0.54600   0.54320   0.06738   0.00000  Uiso   1.00
O222   O     0.97857   0.65049   0.49534   0.00000  Uiso   1.00
O223   O     0.87696   0.97647   0.66419   0.00000  Uiso   1.00
O224   O     0.50918   0.47022   0.81027   0.00000  Uiso   1.00
N225   N     0.93974   0.65442   0.23476   0.00000  Uiso   1.00
N226   N     0.86735   0.88673   0.64248   0.00000  Uiso   1.00
N227   N     0.60526   0.52598   0.74654   0.00000  Uiso   1.00
N228   N     0.90796   0.67442   0.46546   0.00000  Uiso   1.00
N229   N     0.83557   0.90673   0.87318   0.00000  Uiso   1.00
N230   N     0.57348   0.54598   0.97725   0.00000  Uiso   1.00
C231   C     0.31274   0.11965   0.85433   0.00000  Uiso   1.00
C232   C     0.31691   0.15266   0.01556   0.00000  Uiso   1.00
C233   C     0.33155   0.20925   0.02260   0.00000  Uiso   1.00
C234   C     0.33296   0.23163   0.18242   0.00000  Uiso   1.00
C235   C     0.34136   0.28790   0.41034   0.00000  Uiso   1.00
C236   C     0.25288   0.06869   0.85233   0.00000  Uiso   1.00
C237   C     0.21369   0.05467   0.72213   0.00000  Uiso   1.00
C238   C     0.16120   0.00635   0.74454   0.00000  Uiso   1.00
C239   C     0.07020   0.93223   0.71899   0.00000  Uiso   1.00
C240   C     0.35231   0.09589   0.88103   0.00000  Uiso   1.00
C241   C     0.39670   0.10473   0.77493   0.00000  Uiso   1.00
C242   C     0.42792   0.07930   0.82148   0.00000  Uiso   1.00
C243   C     0.49130   0.04741   0.84048   0.00000  Uiso   1.00
C244   C     0.28922   0.05876   0.12564   0.00000  Uiso   1.00
C245   C     0.30414   0.11959   0.16292   0.00000  Uiso   1.00
C246   C     0.30553   0.14188   0.32277   0.00000  Uiso   1.00
C247   C     0.32017   0.19850   0.33005   0.00000  Uiso   1.00
C248   C     0.24011   0.03561   0.99969   0.00000  Uiso   1.00
C249   C     0.18767   0.98730   0.02229   0.00000  Uiso   1.00
C250   C     0.14840   0.97322   0.89216   0.00000  Uiso   1.00
C251   C     0.33954   0.06281   0.02839   0.00000  Uiso   1.00
C252   C     0.37069   0.03736   0.07510   0.00000  Uiso   1.00
C253   C     0.41513   0.04616   0.96910   0.00000  Uiso   1.00
H254   H     0.32268   0.14540   0.73960   0.00000  Uiso   1.00
H255   H     0.34143   0.23483   0.90853   0.00000  Uiso   1.00
H256   H     0.22358   0.08027   0.60810   0.00000  Uiso   1.00
H257   H     0.40658   0.13032   0.66090   0.00000  Uiso   1.00
H258   H     0.35656   0.31939   0.16080   0.00000  Uiso   1.00
H259   H     0.10809   0.99348   0.52730   0.00000  Uiso   1.00
H260   H     0.49396   0.09902   0.63863   0.00000  Uiso   1.00
H261   H     0.27928   0.03301   0.24036   0.00000  Uiso   1.00
H262   H     0.29565   0.11628   0.43678   0.00000  Uiso   1.00
H263   H     0.17780   0.96172   0.13634   0.00000  Uiso   1.00
H264   H     0.36079   0.01177   0.18915   0.00000  Uiso   1.00
H265   H     0.31940   0.22317   0.58955   0.00000  Uiso   1.00
H266   H     0.07093   0.89725   0.95603   0.00000  Uiso   1.00
H267   H     0.45680   0.00280   0.06738   0.00000  Uiso   1.00
O268   O     0.34951   0.32808   0.49534   0.00000  Uiso   1.00
O269   O     0.02353   0.90049   0.66419   0.00000  Uiso   1.00
O270   O     0.52978   0.03896   0.81027   0.00000  Uiso   1.00
N271   N     0.34558   0.28532   0.23476   0.00000  Uiso   1.00
N272   N     0.11327   0.98062   0.64248   0.00000  Uiso   1.00
N273   N     0.47402   0.07928   0.74654   0.00000  Uiso   1.00
N274   N     0.32558   0.23355   0.46546   0.00000  Uiso   1.00
N275   N     0.09327   0.92884   0.87318   0.00000  Uiso   1.00
N276   N     0.45402   0.02750   0.97725   0.00000  Uiso   1.00
