data_job_03907
_audit_creation_date              2018-12-19
_audit_creation_method            'Materials Studio'
_symmetry_space_group_name_H-M    'P1'
_symmetry_Int_Tables_number       1
_symmetry_cell_setting            triclinic
loop_
_symmetry_equiv_pos_as_xyz
  x,y,z
_cell_length_a                    30.6556
_cell_length_b                    7.4319
_cell_length_c                    23.8112
_cell_angle_alpha                 90.0000
_cell_angle_beta                  29.2824
_cell_angle_gamma                 90.0000
loop_
_atom_site_label
_atom_site_type_symbol
_atom_site_fract_x
_atom_site_fract_y
_atom_site_fract_z
_atom_site_U_iso_or_equiv
_atom_site_adp_type
_atom_site_occupancy
C1     C     0.79609   0.43771   0.63856   0.00000  Uiso   1.00
C2     C     0.73668   0.37932   0.65659   0.00000  Uiso   1.00
C3     C     0.67139   0.48375   0.70453   0.00000  Uiso   1.00
C4     C     0.62423   0.40581   0.71359   0.00000  Uiso   1.00
C5     C     0.52927   0.34190   0.74737   0.00000  Uiso   1.00
C6     C     0.78193   0.29897   0.70079   0.00000  Uiso   1.00
C7     C     0.75470   0.33585   0.78587   0.00000  Uiso   1.00
C8     C     0.74565   0.19027   0.83213   0.00000  Uiso   1.00
C9     C     0.72101   0.00163   0.93447   0.00000  Uiso   1.00
C10    C     0.89183   0.41271   0.51091   0.00000  Uiso   1.00
C11    C     0.95702   0.54520   0.43633   0.00000  Uiso   1.00
C12    C     0.04051   0.49536   0.32272   0.00000  Uiso   1.00
C13    C     0.18652   0.48331   0.13023   0.00000  Uiso   1.00
C14    C     0.82845   0.11360   0.56941   0.00000  Uiso   1.00
C15    C     0.75425   0.20328   0.61904   0.00000  Uiso   1.00
C16    C     0.70718   0.12516   0.62803   0.00000  Uiso   1.00
C17    C     0.64184   0.22945   0.67597   0.00000  Uiso   1.00
C18    C     0.79950   0.12294   0.66324   0.00000  Uiso   1.00
C19    C     0.79050   0.97726   0.70938   0.00000  Uiso   1.00
C20    C     0.76325   0.01390   0.79451   0.00000  Uiso   1.00
C21    C     0.90941   0.23667   0.47335   0.00000  Uiso   1.00
C22    C     0.99282   0.18661   0.35984   0.00000  Uiso   1.00
C23    C     0.05812   0.31900   0.28510   0.00000  Uiso   1.00
H24    H     0.78241   0.57476   0.66780   0.00000  Uiso   1.00
H25    H     0.65780   0.61997   0.73359   0.00000  Uiso   1.00
H26    H     0.74111   0.47210   0.81491   0.00000  Uiso   1.00
H27    H     0.94340   0.68141   0.46542   0.00000  Uiso   1.00
H28    H     0.52738   0.59244   0.79001   0.00000  Uiso   1.00
H29    H     0.70307   0.28065   0.96145   0.00000  Uiso   1.00
H30    H     0.12964   0.72203   0.22449   0.00000  Uiso   1.00
H31    H     0.84213   0.97653   0.54018   0.00000  Uiso   1.00
H32    H     0.72080   0.98892   0.59896   0.00000  Uiso   1.00
H33    H     0.80411   0.84105   0.68029   0.00000  Uiso   1.00
H34    H     0.00639   0.05037   0.33081   0.00000  Uiso   1.00
H35    H     0.57851   0.08026   0.68075   0.00000  Uiso   1.00
H36    H     0.75420   0.76847   0.85219   0.00000  Uiso   1.00
H37    H     0.18077   0.20985   0.11523   0.00000  Uiso   1.00
O38    O     0.47203   0.35527   0.77639   0.00000  Uiso   1.00
O39    O     0.70255   0.94622   0.00130   0.00000  Uiso   1.00
O40    O     0.26219   0.52530   0.03443   0.00000  Uiso   1.00
N41    N     0.55608   0.47021   0.75621   0.00000  Uiso   1.00
N42    N     0.72033   0.17870   0.91651   0.00000  Uiso   1.00
N43    N     0.11913   0.59135   0.22752   0.00000  Uiso   1.00
N44    N     0.58359   0.19461   0.69741   0.00000  Uiso   1.00
N45    N     0.74784   0.90310   0.85772   0.00000  Uiso   1.00
N46    N     0.14665   0.31574   0.16873   0.00000  Uiso   1.00
C47    C     0.20391   0.93771   0.86144   0.00000  Uiso   1.00
C48    C     0.26332   0.87932   0.84341   0.00000  Uiso   1.00
C49    C     0.32861   0.98375   0.79547   0.00000  Uiso   1.00
C50    C     0.37577   0.90581   0.78641   0.00000  Uiso   1.00
C51    C     0.47073   0.84190   0.75263   0.00000  Uiso   1.00
C52    C     0.21807   0.79897   0.79921   0.00000  Uiso   1.00
C53    C     0.24530   0.83585   0.71413   0.00000  Uiso   1.00
C54    C     0.25435   0.69027   0.66787   0.00000  Uiso   1.00
C55    C     0.27899   0.50163   0.56553   0.00000  Uiso   1.00
C56    C     0.10817   0.91271   0.98909   0.00000  Uiso   1.00
C57    C     0.04298   0.04520   0.06367   0.00000  Uiso   1.00
C58    C     0.95949   0.99536   0.17728   0.00000  Uiso   1.00
C59    C     0.81348   0.98331   0.36977   0.00000  Uiso   1.00
C60    C     0.17155   0.61360   0.93059   0.00000  Uiso   1.00
C61    C     0.24575   0.70328   0.88096   0.00000  Uiso   1.00
C62    C     0.29282   0.62516   0.87197   0.00000  Uiso   1.00
C63    C     0.35816   0.72945   0.82403   0.00000  Uiso   1.00
C64    C     0.20050   0.62294   0.83676   0.00000  Uiso   1.00
C65    C     0.20950   0.47726   0.79062   0.00000  Uiso   1.00
C66    C     0.23675   0.51390   0.70549   0.00000  Uiso   1.00
C67    C     0.09059   0.73667   0.02665   0.00000  Uiso   1.00
C68    C     0.00718   0.68661   0.14016   0.00000  Uiso   1.00
C69    C     0.94188   0.81900   0.21490   0.00000  Uiso   1.00
H70    H     0.21759   0.07476   0.83220   0.00000  Uiso   1.00
H71    H     0.34220   0.11997   0.76641   0.00000  Uiso   1.00
H72    H     0.25889   0.97210   0.68509   0.00000  Uiso   1.00
H73    H     0.05660   0.18141   0.03458   0.00000  Uiso   1.00
H74    H     0.47262   0.09244   0.70999   0.00000  Uiso   1.00
H75    H     0.29693   0.78065   0.53855   0.00000  Uiso   1.00
H76    H     0.87036   0.22203   0.27551   0.00000  Uiso   1.00
H77    H     0.15787   0.47653   0.95982   0.00000  Uiso   1.00
H78    H     0.27920   0.48892   0.90104   0.00000  Uiso   1.00
H79    H     0.19589   0.34105   0.81971   0.00000  Uiso   1.00
H80    H     0.99361   0.55037   0.16919   0.00000  Uiso   1.00
H81    H     0.42149   0.58026   0.81925   0.00000  Uiso   1.00
H82    H     0.24580   0.26847   0.64781   0.00000  Uiso   1.00
H83    H     0.81923   0.70985   0.38477   0.00000  Uiso   1.00
O84    O     0.52797   0.85527   0.72361   0.00000  Uiso   1.00
O85    O     0.29745   0.44622   0.49870   0.00000  Uiso   1.00
O86    O     0.73781   0.02530   0.46557   0.00000  Uiso   1.00
N87    N     0.44392   0.97021   0.74379   0.00000  Uiso   1.00
N88    N     0.27967   0.67870   0.58349   0.00000  Uiso   1.00
N89    N     0.88087   0.09135   0.27248   0.00000  Uiso   1.00
N90    N     0.41641   0.69461   0.80259   0.00000  Uiso   1.00
N91    N     0.25216   0.40310   0.64228   0.00000  Uiso   1.00
N92    N     0.85335   0.81574   0.33127   0.00000  Uiso   1.00
C93    C     0.20391   0.56229   0.36144   0.00000  Uiso   1.00
C94    C     0.26332   0.62068   0.34341   0.00000  Uiso   1.00
C95    C     0.32861   0.51625   0.29547   0.00000  Uiso   1.00
C96    C     0.37577   0.59419   0.28641   0.00000  Uiso   1.00
C97    C     0.47073   0.65810   0.25263   0.00000  Uiso   1.00
C98    C     0.21807   0.70103   0.29921   0.00000  Uiso   1.00
C99    C     0.24530   0.66415   0.21413   0.00000  Uiso   1.00
C100   C     0.25435   0.80973   0.16787   0.00000  Uiso   1.00
C101   C     0.27899   0.99837   0.06553   0.00000  Uiso   1.00
C102   C     0.10817   0.58729   0.48909   0.00000  Uiso   1.00
C103   C     0.04298   0.45480   0.56367   0.00000  Uiso   1.00
C104   C     0.95949   0.50464   0.67728   0.00000  Uiso   1.00
C105   C     0.81348   0.51669   0.86977   0.00000  Uiso   1.00
C106   C     0.17155   0.88640   0.43059   0.00000  Uiso   1.00
C107   C     0.24575   0.79672   0.38096   0.00000  Uiso   1.00
C108   C     0.29282   0.87484   0.37197   0.00000  Uiso   1.00
C109   C     0.35816   0.77055   0.32403   0.00000  Uiso   1.00
C110   C     0.20050   0.87706   0.33676   0.00000  Uiso   1.00
C111   C     0.20950   0.02274   0.29062   0.00000  Uiso   1.00
C112   C     0.23675   0.98610   0.20549   0.00000  Uiso   1.00
C113   C     0.09059   0.76333   0.52665   0.00000  Uiso   1.00
C114   C     0.00718   0.81339   0.64016   0.00000  Uiso   1.00
C115   C     0.94188   0.68100   0.71490   0.00000  Uiso   1.00
H116   H     0.21759   0.42524   0.33220   0.00000  Uiso   1.00
H117   H     0.34220   0.38003   0.26641   0.00000  Uiso   1.00
H118   H     0.25889   0.52790   0.18509   0.00000  Uiso   1.00
H119   H     0.05660   0.31859   0.53458   0.00000  Uiso   1.00
H120   H     0.47262   0.40756   0.20999   0.00000  Uiso   1.00
H121   H     0.29693   0.71935   0.03855   0.00000  Uiso   1.00
H122   H     0.87036   0.27797   0.77551   0.00000  Uiso   1.00
H123   H     0.15787   0.02347   0.45982   0.00000  Uiso   1.00
H124   H     0.27920   0.01108   0.40104   0.00000  Uiso   1.00
H125   H     0.19589   0.15895   0.31971   0.00000  Uiso   1.00
H126   H     0.99361   0.94963   0.66919   0.00000  Uiso   1.00
H127   H     0.42149   0.91974   0.31925   0.00000  Uiso   1.00
H128   H     0.24580   0.23153   0.14781   0.00000  Uiso   1.00
H129   H     0.81923   0.79015   0.88477   0.00000  Uiso   1.00
O130   O     0.52797   0.64473   0.22361   0.00000  Uiso   1.00
O131   O     0.29745   0.05378   0.99870   0.00000  Uiso   1.00
O132   O     0.73781   0.47470   0.96557   0.00000  Uiso   1.00
N133   N     0.44392   0.52979   0.24379   0.00000  Uiso   1.00
N134   N     0.27967   0.82130   0.08349   0.00000  Uiso   1.00
N135   N     0.88087   0.40865   0.77248   0.00000  Uiso   1.00
N136   N     0.41641   0.80539   0.30259   0.00000  Uiso   1.00
N137   N     0.25216   0.09690   0.14228   0.00000  Uiso   1.00
N138   N     0.85335   0.68426   0.83127   0.00000  Uiso   1.00
C139   C     0.79609   0.06229   0.13856   0.00000  Uiso   1.00
C140   C     0.73668   0.12068   0.15659   0.00000  Uiso   1.00
C141   C     0.67139   0.01625   0.20453   0.00000  Uiso   1.00
C142   C     0.62423   0.09419   0.21359   0.00000  Uiso   1.00
C143   C     0.52927   0.15810   0.24737   0.00000  Uiso   1.00
C144   C     0.78193   0.20103   0.20079   0.00000  Uiso   1.00
C145   C     0.75470   0.16415   0.28587   0.00000  Uiso   1.00
C146   C     0.74565   0.30973   0.33213   0.00000  Uiso   1.00
C147   C     0.72101   0.49837   0.43447   0.00000  Uiso   1.00
C148   C     0.89183   0.08729   0.01091   0.00000  Uiso   1.00
C149   C     0.95702   0.95480   0.93633   0.00000  Uiso   1.00
C150   C     0.04051   0.00464   0.82272   0.00000  Uiso   1.00
C151   C     0.18652   0.01669   0.63023   0.00000  Uiso   1.00
C152   C     0.82845   0.38640   0.06941   0.00000  Uiso   1.00
C153   C     0.75425   0.29672   0.11904   0.00000  Uiso   1.00
C154   C     0.70718   0.37484   0.12803   0.00000  Uiso   1.00
C155   C     0.64184   0.27055   0.17597   0.00000  Uiso   1.00
C156   C     0.79950   0.37706   0.16324   0.00000  Uiso   1.00
C157   C     0.79050   0.52274   0.20938   0.00000  Uiso   1.00
C158   C     0.76325   0.48610   0.29451   0.00000  Uiso   1.00
C159   C     0.90941   0.26333   0.97335   0.00000  Uiso   1.00
C160   C     0.99282   0.31339   0.85984   0.00000  Uiso   1.00
C161   C     0.05812   0.18100   0.78510   0.00000  Uiso   1.00
H162   H     0.78241   0.92524   0.16780   0.00000  Uiso   1.00
H163   H     0.65780   0.88003   0.23359   0.00000  Uiso   1.00
H164   H     0.74111   0.02790   0.31491   0.00000  Uiso   1.00
H165   H     0.94340   0.81859   0.96542   0.00000  Uiso   1.00
H166   H     0.52738   0.90756   0.29001   0.00000  Uiso   1.00
H167   H     0.70307   0.21935   0.46145   0.00000  Uiso   1.00
H168   H     0.12964   0.77797   0.72449   0.00000  Uiso   1.00
H169   H     0.84213   0.52347   0.04018   0.00000  Uiso   1.00
H170   H     0.72080   0.51108   0.09896   0.00000  Uiso   1.00
H171   H     0.80411   0.65895   0.18029   0.00000  Uiso   1.00
H172   H     0.00639   0.44963   0.83081   0.00000  Uiso   1.00
H173   H     0.57851   0.41974   0.18075   0.00000  Uiso   1.00
H174   H     0.75420   0.73153   0.35219   0.00000  Uiso   1.00
H175   H     0.18077   0.29015   0.61523   0.00000  Uiso   1.00
O176   O     0.47203   0.14473   0.27639   0.00000  Uiso   1.00
O177   O     0.70255   0.55378   0.50130   0.00000  Uiso   1.00
O178   O     0.26219   0.97470   0.53443   0.00000  Uiso   1.00
N179   N     0.55608   0.02979   0.25621   0.00000  Uiso   1.00
N180   N     0.72033   0.32130   0.41651   0.00000  Uiso   1.00
N181   N     0.11913   0.90865   0.72752   0.00000  Uiso   1.00
N182   N     0.58359   0.30539   0.19741   0.00000  Uiso   1.00
N183   N     0.74784   0.59690   0.35772   0.00000  Uiso   1.00
N184   N     0.14665   0.18426   0.66873   0.00000  Uiso   1.00
