data_job_06217
_audit_creation_date              2018-12-19
_audit_creation_method            'Materials Studio'
_symmetry_space_group_name_H-M    'P1'
_symmetry_Int_Tables_number       1
_symmetry_cell_setting            triclinic
loop_
_symmetry_equiv_pos_as_xyz
  x,y,z
_cell_length_a                    12.5704
_cell_length_b                    21.2690
_cell_length_c                    21.8490
_cell_angle_alpha                 116.2730
_cell_angle_beta                  77.4068
_cell_angle_gamma                 82.2579
loop_
_atom_site_label
_atom_site_type_symbol
_atom_site_fract_x
_atom_site_fract_y
_atom_site_fract_z
_atom_site_U_iso_or_equiv
_atom_site_adp_type
_atom_site_occupancy
C1     C     0.58710   0.61579   0.71429   0.00000  Uiso   1.00
C2     C     0.55192   0.67183   0.79383   0.00000  Uiso   1.00
C3     C     0.50071   0.74534   0.82387   0.00000  Uiso   1.00
C4     C     0.47517   0.78757   0.89773   0.00000  Uiso   1.00
C5     C     0.41683   0.87919   0.01481   0.00000  Uiso   1.00
C6     C     0.71294   0.58078   0.69268   0.00000  Uiso   1.00
C7     C     0.79709   0.57773   0.63767   0.00000  Uiso   1.00
C8     C     0.90709   0.54331   0.62638   0.00000  Uiso   1.00
C9     C     0.09871   0.49353   0.58639   0.00000  Uiso   1.00
C10    C     0.52778   0.55658   0.70966   0.00000  Uiso   1.00
C11    C     0.45628   0.53317   0.66890   0.00000  Uiso   1.00
C12    C     0.41042   0.47835   0.67189   0.00000  Uiso   1.00
C13    C     0.31456   0.39100   0.65825   0.00000  Uiso   1.00
C14    C     0.63282   0.56007   0.79206   0.00000  Uiso   1.00
C15    C     0.57676   0.64156   0.83607   0.00000  Uiso   1.00
C16    C     0.55129   0.68369   0.90992   0.00000  Uiso   1.00
C17    C     0.50004   0.75725   0.94006   0.00000  Uiso   1.00
C18    C     0.73777   0.55051   0.73492   0.00000  Uiso   1.00
C19    C     0.84768   0.51608   0.72372   0.00000  Uiso   1.00
C20    C     0.93197   0.51298   0.66870   0.00000  Uiso   1.00
C21    C     0.55261   0.52632   0.75190   0.00000  Uiso   1.00
C22    C     0.50686   0.47152   0.75495   0.00000  Uiso   1.00
C23    C     0.43530   0.44803   0.71421   0.00000  Uiso   1.00
H24    H     0.56777   0.63935   0.68140   0.00000  Uiso   1.00
H25    H     0.48151   0.76874   0.79116   0.00000  Uiso   1.00
H26    H     0.77784   0.60115   0.60498   0.00000  Uiso   1.00
H27    H     0.43708   0.55660   0.63621   0.00000  Uiso   1.00
H28    H     0.39686   0.89885   0.93147   0.00000  Uiso   1.00
H29    H     0.02169   0.54546   0.53889   0.00000  Uiso   1.00
H30    H     0.30313   0.45151   0.60475   0.00000  Uiso   1.00
H31    H     0.65216   0.53650   0.82495   0.00000  Uiso   1.00
H32    H     0.57052   0.66025   0.94259   0.00000  Uiso   1.00
H33    H     0.86686   0.49266   0.75641   0.00000  Uiso   1.00
H34    H     0.52610   0.44811   0.78765   0.00000  Uiso   1.00
H35    H     0.46912   0.81080   0.05438   0.00000  Uiso   1.00
H36    H     0.09395   0.45740   0.66180   0.00000  Uiso   1.00
H37    H     0.37538   0.36346   0.72766   0.00000  Uiso   1.00
O38    O     0.37780   0.93809   0.06771   0.00000  Uiso   1.00
O39    O     0.19755   0.47444   0.55266   0.00000  Uiso   1.00
O40    O     0.25481   0.35119   0.63906   0.00000  Uiso   1.00
N41    N     0.42505   0.86114   0.94425   0.00000  Uiso   1.00
N42    N     0.00923   0.53075   0.57722   0.00000  Uiso   1.00
N43    N     0.33746   0.44291   0.63878   0.00000  Uiso   1.00
N44    N     0.46393   0.81376   0.01039   0.00000  Uiso   1.00
N45    N     0.04811   0.48337   0.64336   0.00000  Uiso   1.00
N46    N     0.37634   0.39553   0.70491   0.00000  Uiso   1.00
C47    C     0.29974   0.28611   0.90066   0.00000  Uiso   1.00
C48    C     0.34033   0.20565   0.87718   0.00000  Uiso   1.00
C49    C     0.31498   0.17390   0.92010   0.00000  Uiso   1.00
C50    C     0.36032   0.09943   0.88858   0.00000  Uiso   1.00
C51    C     0.41303   0.98076   0.86306   0.00000  Uiso   1.00
C52    C     0.40598   0.31100   0.88556   0.00000  Uiso   1.00
C53    C     0.43580   0.36783   0.93555   0.00000  Uiso   1.00
C54    C     0.53640   0.38204   0.91108   0.00000  Uiso   1.00
C55    C     0.69097   0.42696   0.89857   0.00000  Uiso   1.00
C56    C     0.23900   0.28976   0.84858   0.00000  Uiso   1.00
C57    C     0.12844   0.32874   0.86746   0.00000  Uiso   1.00
C58    C     0.08846   0.32509   0.81185   0.00000  Uiso   1.00
C59    C     0.98378   0.33703   0.74191   0.00000  Uiso   1.00
C60    C     0.42536   0.21033   0.76835   0.00000  Uiso   1.00
C61    C     0.40857   0.16449   0.80531   0.00000  Uiso   1.00
C62    C     0.45396   0.09005   0.77371   0.00000  Uiso   1.00
C63    C     0.42867   0.05820   0.81658   0.00000  Uiso   1.00
C64    C     0.47421   0.26984   0.81370   0.00000  Uiso   1.00
C65    C     0.57478   0.28398   0.78915   0.00000  Uiso   1.00
C66    C     0.60476   0.34081   0.83908   0.00000  Uiso   1.00
C67    C     0.30723   0.24860   0.77671   0.00000  Uiso   1.00
C68    C     0.26742   0.24489   0.72106   0.00000  Uiso   1.00
C69    C     0.15682   0.28386   0.73985   0.00000  Uiso   1.00
H70    H     0.24663   0.31816   0.95662   0.00000  Uiso   1.00
H71    H     0.26218   0.20577   0.97572   0.00000  Uiso   1.00
H72    H     0.38298   0.39967   0.99116   0.00000  Uiso   1.00
H73    H     0.07567   0.36059   0.92308   0.00000  Uiso   1.00
H74    H     0.30955   0.06302   0.96522   0.00000  Uiso   1.00
H75    H     0.56424   0.47189   0.99776   0.00000  Uiso   1.00
H76    H     0.91621   0.38948   0.85420   0.00000  Uiso   1.00
H77    H     0.47848   0.17828   0.71239   0.00000  Uiso   1.00
H78    H     0.50676   0.05821   0.71809   0.00000  Uiso   1.00
H79    H     0.62756   0.25212   0.73353   0.00000  Uiso   1.00
H80    H     0.32024   0.21303   0.66545   0.00000  Uiso   1.00
H81    H     0.50806   0.94326   0.75612   0.00000  Uiso   1.00
H82    H     0.76275   0.35213   0.78866   0.00000  Uiso   1.00
H83    H     0.11472   0.26971   0.64510   0.00000  Uiso   1.00
O84    O     0.42326   0.92668   0.86883   0.00000  Uiso   1.00
O85    O     0.75738   0.46311   0.91153   0.00000  Uiso   1.00
O86    O     0.90718   0.35498   0.72318   0.00000  Uiso   1.00
N87    N     0.35237   0.05131   0.91522   0.00000  Uiso   1.00
N88    N     0.59050   0.43357   0.94565   0.00000  Uiso   1.00
N89    N     0.98465   0.35654   0.81143   0.00000  Uiso   1.00
N90    N     0.45919   0.98686   0.80270   0.00000  Uiso   1.00
N91    N     0.69732   0.36913   0.83313   0.00000  Uiso   1.00
N92    N     0.09147   0.29209   0.69892   0.00000  Uiso   1.00
C93    C     0.19999   0.10042   0.38522   0.00000  Uiso   1.00
C94    C     0.22158   0.12546   0.32922   0.00000  Uiso   1.00
C95    C     0.24040   0.08239   0.25615   0.00000  Uiso   1.00
C96    C     0.25847   0.11549   0.21387   0.00000  Uiso   1.00
C97    C     0.29216   0.14317   0.12238   0.00000  Uiso   1.00
C98    C     0.28992   0.11785   0.42249   0.00000  Uiso   1.00
C99    C     0.36618   0.06839   0.42786   0.00000  Uiso   1.00
C100   C     0.44176   0.09508   0.46411   0.00000  Uiso   1.00
C101   C     0.58149   0.11096   0.51747   0.00000  Uiso   1.00
C102   C     0.08755   0.15072   0.44154   0.00000  Uiso   1.00
C103   C     0.99366   0.12889   0.46293   0.00000  Uiso   1.00
C104   C     0.89887   0.18325   0.51523   0.00000  Uiso   1.00
C105   C     0.72439   0.25016   0.59816   0.00000  Uiso   1.00
C106   C     0.19861   0.23578   0.44006   0.00000  Uiso   1.00
C107   C     0.22083   0.19898   0.35901   0.00000  Uiso   1.00
C108   C     0.23887   0.23215   0.31683   0.00000  Uiso   1.00
C109   C     0.25771   0.18914   0.24371   0.00000  Uiso   1.00
C110   C     0.28916   0.19137   0.45228   0.00000  Uiso   1.00
C111   C     0.36465   0.21814   0.48854   0.00000  Uiso   1.00
C112   C     0.44101   0.16873   0.49395   0.00000  Uiso   1.00
C113   C     0.08679   0.22424   0.47133   0.00000  Uiso   1.00
C114   C     0.99213   0.27865   0.52361   0.00000  Uiso   1.00
C115   C     0.89812   0.25691   0.54507   0.00000  Uiso   1.00
H116   H     0.20059   0.04319   0.36203   0.00000  Uiso   1.00
H117   H     0.24099   0.02550   0.23312   0.00000  Uiso   1.00
H118   H     0.36674   0.01150   0.40481   0.00000  Uiso   1.00
H119   H     0.99428   0.07199   0.43987   0.00000  Uiso   1.00
H120   H     0.28550   0.03830   0.10333   0.00000  Uiso   1.00
H121   H     0.55062   0.00879   0.46536   0.00000  Uiso   1.00
H122   H     0.76521   0.13635   0.53930   0.00000  Uiso   1.00
H123   H     0.19802   0.29302   0.46326   0.00000  Uiso   1.00
H124   H     0.23828   0.28905   0.33989   0.00000  Uiso   1.00
H125   H     0.36403   0.27504   0.51158   0.00000  Uiso   1.00
H126   H     0.99158   0.33554   0.54665   0.00000  Uiso   1.00
H127   H     0.28330   0.25221   0.18999   0.00000  Uiso   1.00
H128   H     0.54842   0.22269   0.55203   0.00000  Uiso   1.00
H129   H     0.76302   0.35025   0.62596   0.00000  Uiso   1.00
O130   O     0.31097   0.13812   0.06368   0.00000  Uiso   1.00
O131   O     0.65878   0.09940   0.53866   0.00000  Uiso   1.00
O132   O     0.62835   0.26676   0.63566   0.00000  Uiso   1.00
N133   N     0.27943   0.08919   0.14065   0.00000  Uiso   1.00
N134   N     0.52731   0.06160   0.47913   0.00000  Uiso   1.00
N135   N     0.79304   0.18085   0.54827   0.00000  Uiso   1.00
N136   N     0.27825   0.20429   0.18729   0.00000  Uiso   1.00
N137   N     0.52613   0.17670   0.52576   0.00000  Uiso   1.00
N138   N     0.79186   0.29595   0.59490   0.00000  Uiso   1.00
C139   C     0.41290   0.38421   0.28571   0.00000  Uiso   1.00
C140   C     0.44808   0.32817   0.20617   0.00000  Uiso   1.00
C141   C     0.49929   0.25466   0.17613   0.00000  Uiso   1.00
C142   C     0.52483   0.21243   0.10227   0.00000  Uiso   1.00
C143   C     0.58317   0.12081   0.98519   0.00000  Uiso   1.00
C144   C     0.28707   0.41922   0.30732   0.00000  Uiso   1.00
C145   C     0.20291   0.42227   0.36233   0.00000  Uiso   1.00
C146   C     0.09291   0.45669   0.37362   0.00000  Uiso   1.00
C147   C     0.90129   0.50647   0.41361   0.00000  Uiso   1.00
C148   C     0.47222   0.44342   0.29034   0.00000  Uiso   1.00
C149   C     0.54372   0.46683   0.33110   0.00000  Uiso   1.00
C150   C     0.58958   0.52165   0.32811   0.00000  Uiso   1.00
C151   C     0.68544   0.60900   0.34175   0.00000  Uiso   1.00
C152   C     0.36718   0.43993   0.20794   0.00000  Uiso   1.00
C153   C     0.42324   0.35844   0.16393   0.00000  Uiso   1.00
C154   C     0.44871   0.31631   0.09008   0.00000  Uiso   1.00
C155   C     0.49996   0.24275   0.05995   0.00000  Uiso   1.00
C156   C     0.26223   0.44949   0.26508   0.00000  Uiso   1.00
C157   C     0.15233   0.48392   0.27628   0.00000  Uiso   1.00
C158   C     0.06803   0.48702   0.33130   0.00000  Uiso   1.00
C159   C     0.44739   0.47368   0.24810   0.00000  Uiso   1.00
C160   C     0.49314   0.52848   0.24505   0.00000  Uiso   1.00
C161   C     0.56470   0.55197   0.28579   0.00000  Uiso   1.00
H162   H     0.43223   0.36065   0.31860   0.00000  Uiso   1.00
H163   H     0.51849   0.23126   0.20884   0.00000  Uiso   1.00
H164   H     0.22216   0.39885   0.39502   0.00000  Uiso   1.00
H165   H     0.56292   0.44340   0.36379   0.00000  Uiso   1.00
H166   H     0.60314   0.10115   0.06853   0.00000  Uiso   1.00
H167   H     0.97831   0.45454   0.46111   0.00000  Uiso   1.00
H168   H     0.69687   0.54849   0.39525   0.00000  Uiso   1.00
H169   H     0.34784   0.46350   0.17505   0.00000  Uiso   1.00
H170   H     0.42948   0.33975   0.05741   0.00000  Uiso   1.00
H171   H     0.13314   0.50734   0.24359   0.00000  Uiso   1.00
H172   H     0.47390   0.55189   0.21235   0.00000  Uiso   1.00
H173   H     0.53089   0.18920   0.94562   0.00000  Uiso   1.00
H174   H     0.90605   0.54260   0.33820   0.00000  Uiso   1.00
H175   H     0.62462   0.63654   0.27234   0.00000  Uiso   1.00
O176   O     0.62220   0.06191   0.93229   0.00000  Uiso   1.00
O177   O     0.80246   0.52556   0.44734   0.00000  Uiso   1.00
O178   O     0.74519   0.64881   0.36094   0.00000  Uiso   1.00
N179   N     0.57495   0.13886   0.05575   0.00000  Uiso   1.00
N180   N     0.99077   0.46925   0.42278   0.00000  Uiso   1.00
N181   N     0.66254   0.55709   0.36122   0.00000  Uiso   1.00
N182   N     0.53607   0.18624   0.98961   0.00000  Uiso   1.00
N183   N     0.95189   0.51663   0.35664   0.00000  Uiso   1.00
N184   N     0.62366   0.60447   0.29509   0.00000  Uiso   1.00
C185   C     0.70026   0.71389   0.09934   0.00000  Uiso   1.00
C186   C     0.65967   0.79435   0.12282   0.00000  Uiso   1.00
C187   C     0.68502   0.82610   0.07990   0.00000  Uiso   1.00
C188   C     0.63968   0.90057   0.11142   0.00000  Uiso   1.00
C189   C     0.58698   0.01924   0.13694   0.00000  Uiso   1.00
C190   C     0.59402   0.68900   0.11444   0.00000  Uiso   1.00
C191   C     0.56420   0.63217   0.06445   0.00000  Uiso   1.00
C192   C     0.46360   0.61796   0.08892   0.00000  Uiso   1.00
C193   C     0.30903   0.57304   0.10143   0.00000  Uiso   1.00
C194   C     0.76100   0.71024   0.15142   0.00000  Uiso   1.00
C195   C     0.87156   0.67126   0.13254   0.00000  Uiso   1.00
C196   C     0.91154   0.67491   0.18815   0.00000  Uiso   1.00
C197   C     0.01622   0.66297   0.25809   0.00000  Uiso   1.00
C198   C     0.57464   0.78967   0.23165   0.00000  Uiso   1.00
C199   C     0.59143   0.83551   0.19469   0.00000  Uiso   1.00
C200   C     0.54604   0.90995   0.22629   0.00000  Uiso   1.00
C201   C     0.57133   0.94180   0.18342   0.00000  Uiso   1.00
C202   C     0.52579   0.73016   0.18630   0.00000  Uiso   1.00
C203   C     0.42522   0.71602   0.21085   0.00000  Uiso   1.00
C204   C     0.39524   0.65919   0.16092   0.00000  Uiso   1.00
C205   C     0.69277   0.75140   0.22330   0.00000  Uiso   1.00
C206   C     0.73258   0.75511   0.27894   0.00000  Uiso   1.00
C207   C     0.84318   0.71614   0.26015   0.00000  Uiso   1.00
H208   H     0.75337   0.68184   0.04338   0.00000  Uiso   1.00
H209   H     0.73782   0.79423   0.02428   0.00000  Uiso   1.00
H210   H     0.61702   0.60033   0.00884   0.00000  Uiso   1.00
H211   H     0.92433   0.63941   0.07692   0.00000  Uiso   1.00
H212   H     0.69045   0.93698   0.03478   0.00000  Uiso   1.00
H213   H     0.43576   0.52811   0.00224   0.00000  Uiso   1.00
H214   H     0.08379   0.61052   0.14580   0.00000  Uiso   1.00
H215   H     0.52152   0.82172   0.28761   0.00000  Uiso   1.00
H216   H     0.49324   0.94179   0.28191   0.00000  Uiso   1.00
H217   H     0.37244   0.74788   0.26647   0.00000  Uiso   1.00
H218   H     0.67976   0.78696   0.33455   0.00000  Uiso   1.00
H219   H     0.49194   0.05674   0.24388   0.00000  Uiso   1.00
H220   H     0.23725   0.64787   0.21134   0.00000  Uiso   1.00
H221   H     0.88528   0.73029   0.35490   0.00000  Uiso   1.00
O222   O     0.57674   0.07332   0.13117   0.00000  Uiso   1.00
O223   O     0.24262   0.53689   0.08847   0.00000  Uiso   1.00
O224   O     0.09282   0.64502   0.27682   0.00000  Uiso   1.00
N225   N     0.64763   0.94869   0.08478   0.00000  Uiso   1.00
N226   N     0.40950   0.56643   0.05435   0.00000  Uiso   1.00
N227   N     0.01535   0.64346   0.18857   0.00000  Uiso   1.00
N228   N     0.54081   0.01313   0.19730   0.00000  Uiso   1.00
N229   N     0.30268   0.63087   0.16687   0.00000  Uiso   1.00
N230   N     0.90853   0.70791   0.30108   0.00000  Uiso   1.00
C231   C     0.80001   0.89958   0.61478   0.00000  Uiso   1.00
C232   C     0.77842   0.87454   0.67078   0.00000  Uiso   1.00
C233   C     0.75960   0.91761   0.74385   0.00000  Uiso   1.00
C234   C     0.74153   0.88451   0.78613   0.00000  Uiso   1.00
C235   C     0.70784   0.85683   0.87762   0.00000  Uiso   1.00
C236   C     0.71008   0.88215   0.57751   0.00000  Uiso   1.00
C237   C     0.63382   0.93161   0.57214   0.00000  Uiso   1.00
C238   C     0.55824   0.90492   0.53589   0.00000  Uiso   1.00
C239   C     0.41851   0.88904   0.48253   0.00000  Uiso   1.00
C240   C     0.91245   0.84928   0.55846   0.00000  Uiso   1.00
C241   C     0.00634   0.87111   0.53707   0.00000  Uiso   1.00
C242   C     0.10113   0.81675   0.48477   0.00000  Uiso   1.00
C243   C     0.27561   0.74984   0.40184   0.00000  Uiso   1.00
C244   C     0.80140   0.76422   0.55994   0.00000  Uiso   1.00
C245   C     0.77917   0.80102   0.64099   0.00000  Uiso   1.00
C246   C     0.76113   0.76785   0.68317   0.00000  Uiso   1.00
C247   C     0.74229   0.81086   0.75629   0.00000  Uiso   1.00
C248   C     0.71084   0.80863   0.54772   0.00000  Uiso   1.00
C249   C     0.63535   0.78186   0.51146   0.00000  Uiso   1.00
C250   C     0.55899   0.83127   0.50605   0.00000  Uiso   1.00
C251   C     0.91321   0.77576   0.52867   0.00000  Uiso   1.00
C252   C     0.00787   0.72135   0.47639   0.00000  Uiso   1.00
C253   C     0.10188   0.74309   0.45493   0.00000  Uiso   1.00
H254   H     0.79941   0.95681   0.63797   0.00000  Uiso   1.00
H255   H     0.75901   0.97450   0.76688   0.00000  Uiso   1.00
H256   H     0.63326   0.98850   0.59519   0.00000  Uiso   1.00
H257   H     0.00572   0.92801   0.56013   0.00000  Uiso   1.00
H258   H     0.71450   0.96170   0.89667   0.00000  Uiso   1.00
H259   H     0.44938   0.99121   0.53464   0.00000  Uiso   1.00
H260   H     0.23479   0.86365   0.46070   0.00000  Uiso   1.00
H261   H     0.80198   0.70698   0.53674   0.00000  Uiso   1.00
H262   H     0.76172   0.71096   0.66011   0.00000  Uiso   1.00
H263   H     0.63597   0.72496   0.48842   0.00000  Uiso   1.00
H264   H     0.00843   0.66446   0.45335   0.00000  Uiso   1.00
H265   H     0.71670   0.74779   0.81001   0.00000  Uiso   1.00
H266   H     0.45158   0.77731   0.44797   0.00000  Uiso   1.00
H267   H     0.23698   0.64975   0.37404   0.00000  Uiso   1.00
O268   O     0.68903   0.86188   0.93632   0.00000  Uiso   1.00
O269   O     0.34122   0.90060   0.46134   0.00000  Uiso   1.00
O270   O     0.37165   0.73324   0.36434   0.00000  Uiso   1.00
N271   N     0.72057   0.91081   0.85935   0.00000  Uiso   1.00
N272   N     0.47269   0.93840   0.52087   0.00000  Uiso   1.00
N273   N     0.20696   0.81915   0.45173   0.00000  Uiso   1.00
N274   N     0.72175   0.79571   0.81271   0.00000  Uiso   1.00
N275   N     0.47387   0.82330   0.47424   0.00000  Uiso   1.00
N276   N     0.20814   0.70405   0.40510   0.00000  Uiso   1.00
