data_job_02240
_audit_creation_date              2018-12-19
_audit_creation_method            'Materials Studio'
_symmetry_space_group_name_H-M    'P1'
_symmetry_Int_Tables_number       1
_symmetry_cell_setting            triclinic
loop_
_symmetry_equiv_pos_as_xyz
  x,y,z
_cell_length_a                    12.5983
_cell_length_b                    41.8054
_cell_length_c                    12.4197
_cell_angle_alpha                 90.0000
_cell_angle_beta                  90.0000
_cell_angle_gamma                 90.0000
loop_
_atom_site_label
_atom_site_type_symbol
_atom_site_fract_x
_atom_site_fract_y
_atom_site_fract_z
_atom_site_U_iso_or_equiv
_atom_site_adp_type
_atom_site_occupancy
C1     C     0.83339   0.57386   0.77804   0.00000  Uiso   1.00
C2     C     0.92602   0.56962   0.70029   0.00000  Uiso   1.00
C3     C     0.92529   0.55098   0.60784   0.00000  Uiso   1.00
C4     C     0.01801   0.55024   0.54748   0.00000  Uiso   1.00
C5     C     0.14814   0.54102   0.42206   0.00000  Uiso   1.00
C6     C     0.87486   0.56400   0.88852   0.00000  Uiso   1.00
C7     C     0.83111   0.54063   0.95433   0.00000  Uiso   1.00
C8     C     0.88076   0.53516   0.05242   0.00000  Uiso   1.00
C9     C     0.93142   0.51723   0.21926   0.00000  Uiso   1.00
C10    C     0.81304   0.60976   0.78451   0.00000  Uiso   1.00
C11    C     0.71729   0.62487   0.76290   0.00000  Uiso   1.00
C12    C     0.71489   0.65793   0.77345   0.00000  Uiso   1.00
C13    C     0.66956   0.71105   0.77880   0.00000  Uiso   1.00
C14    C     0.99936   0.60569   0.83524   0.00000  Uiso   1.00
C15    C     0.01617   0.58691   0.73136   0.00000  Uiso   1.00
C16    C     0.10891   0.58620   0.67112   0.00000  Uiso   1.00
C17    C     0.10832   0.56756   0.57859   0.00000  Uiso   1.00
C18    C     0.96501   0.58129   0.91959   0.00000  Uiso   1.00
C19    C     0.01473   0.57585   0.01761   0.00000  Uiso   1.00
C20    C     0.97107   0.55248   0.08354   0.00000  Uiso   1.00
C21    C     0.90319   0.62705   0.81557   0.00000  Uiso   1.00
C22    C     0.90092   0.66009   0.82617   0.00000  Uiso   1.00
C23    C     0.80520   0.67525   0.80457   0.00000  Uiso   1.00
H24    H     0.76321   0.56039   0.75386   0.00000  Uiso   1.00
H25    H     0.85551   0.53760   0.58383   0.00000  Uiso   1.00
H26    H     0.76134   0.52726   0.93027   0.00000  Uiso   1.00
H27    H     0.64755   0.61148   0.73886   0.00000  Uiso   1.00
H28    H     0.99761   0.51994   0.40905   0.00000  Uiso   1.00
H29    H     0.79903   0.49814   0.13954   0.00000  Uiso   1.00
H30    H     0.55907   0.67575   0.73592   0.00000  Uiso   1.00
H31    H     0.06955   0.61915   0.85943   0.00000  Uiso   1.00
H32    H     0.17866   0.59958   0.69518   0.00000  Uiso   1.00
H33    H     0.08449   0.58924   0.04162   0.00000  Uiso   1.00
H34    H     0.97070   0.67346   0.85021   0.00000  Uiso   1.00
H35    H     0.25990   0.57025   0.49943   0.00000  Uiso   1.00
H36    H     0.06130   0.54845   0.22992   0.00000  Uiso   1.00
H37    H     0.82136   0.72606   0.82630   0.00000  Uiso   1.00
O38    O     0.19502   0.53115   0.34431   0.00000  Uiso   1.00
O39    O     0.93446   0.50256   0.30269   0.00000  Uiso   1.00
O40    O     0.61966   0.73557   0.77315   0.00000  Uiso   1.00
N41    N     0.04436   0.53447   0.45285   0.00000  Uiso   1.00
N42    N     0.85870   0.51409   0.13581   0.00000  Uiso   1.00
N43    N     0.63436   0.68014   0.75849   0.00000  Uiso   1.00
N44    N     0.18549   0.56154   0.50148   0.00000  Uiso   1.00
N45    N     0.99983   0.54116   0.18444   0.00000  Uiso   1.00
N46    N     0.77549   0.70721   0.80712   0.00000  Uiso   1.00
C47    C     0.66661   0.92614   0.77804   0.00000  Uiso   1.00
C48    C     0.57398   0.93038   0.70029   0.00000  Uiso   1.00
C49    C     0.57471   0.94902   0.60784   0.00000  Uiso   1.00
C50    C     0.48199   0.94976   0.54748   0.00000  Uiso   1.00
C51    C     0.35186   0.95898   0.42206   0.00000  Uiso   1.00
C52    C     0.62514   0.93600   0.88852   0.00000  Uiso   1.00
C53    C     0.66889   0.95937   0.95433   0.00000  Uiso   1.00
C54    C     0.61924   0.96484   0.05242   0.00000  Uiso   1.00
C55    C     0.56858   0.98277   0.21926   0.00000  Uiso   1.00
C56    C     0.68696   0.89024   0.78451   0.00000  Uiso   1.00
C57    C     0.78271   0.87513   0.76290   0.00000  Uiso   1.00
C58    C     0.78511   0.84207   0.77345   0.00000  Uiso   1.00
C59    C     0.83044   0.78895   0.77880   0.00000  Uiso   1.00
C60    C     0.50064   0.89431   0.83524   0.00000  Uiso   1.00
C61    C     0.48383   0.91309   0.73136   0.00000  Uiso   1.00
C62    C     0.39109   0.91380   0.67112   0.00000  Uiso   1.00
C63    C     0.39168   0.93244   0.57859   0.00000  Uiso   1.00
C64    C     0.53499   0.91871   0.91959   0.00000  Uiso   1.00
C65    C     0.48527   0.92415   0.01761   0.00000  Uiso   1.00
C66    C     0.52893   0.94752   0.08354   0.00000  Uiso   1.00
C67    C     0.59681   0.87295   0.81557   0.00000  Uiso   1.00
C68    C     0.59908   0.83991   0.82617   0.00000  Uiso   1.00
C69    C     0.69480   0.82475   0.80457   0.00000  Uiso   1.00
H70    H     0.73679   0.93961   0.75386   0.00000  Uiso   1.00
H71    H     0.64449   0.96240   0.58383   0.00000  Uiso   1.00
H72    H     0.73866   0.97274   0.93027   0.00000  Uiso   1.00
H73    H     0.85245   0.88852   0.73886   0.00000  Uiso   1.00
H74    H     0.50239   0.98006   0.40905   0.00000  Uiso   1.00
H75    H     0.70097   0.00186   0.13954   0.00000  Uiso   1.00
H76    H     0.94093   0.82425   0.73592   0.00000  Uiso   1.00
H77    H     0.43045   0.88085   0.85943   0.00000  Uiso   1.00
H78    H     0.32134   0.90042   0.69518   0.00000  Uiso   1.00
H79    H     0.41551   0.91076   0.04162   0.00000  Uiso   1.00
H80    H     0.52930   0.82654   0.85021   0.00000  Uiso   1.00
H81    H     0.24010   0.92975   0.49943   0.00000  Uiso   1.00
H82    H     0.43870   0.95155   0.22992   0.00000  Uiso   1.00
H83    H     0.67864   0.77394   0.82630   0.00000  Uiso   1.00
O84    O     0.30498   0.96885   0.34431   0.00000  Uiso   1.00
O85    O     0.56554   0.99744   0.30269   0.00000  Uiso   1.00
O86    O     0.88034   0.76443   0.77315   0.00000  Uiso   1.00
N87    N     0.45564   0.96553   0.45285   0.00000  Uiso   1.00
N88    N     0.64130   0.98591   0.13581   0.00000  Uiso   1.00
N89    N     0.86564   0.81986   0.75849   0.00000  Uiso   1.00
N90    N     0.31451   0.93846   0.50148   0.00000  Uiso   1.00
N91    N     0.50017   0.95884   0.18444   0.00000  Uiso   1.00
N92    N     0.72451   0.79279   0.80712   0.00000  Uiso   1.00
C93    C     0.16661   0.07386   0.72196   0.00000  Uiso   1.00
C94    C     0.07398   0.06962   0.79971   0.00000  Uiso   1.00
C95    C     0.07471   0.05098   0.89216   0.00000  Uiso   1.00
C96    C     0.98199   0.05024   0.95252   0.00000  Uiso   1.00
C97    C     0.85186   0.04102   0.07794   0.00000  Uiso   1.00
C98    C     0.12514   0.06400   0.61148   0.00000  Uiso   1.00
C99    C     0.16889   0.04063   0.54567   0.00000  Uiso   1.00
C100   C     0.11924   0.03516   0.44758   0.00000  Uiso   1.00
C101   C     0.06858   0.01723   0.28074   0.00000  Uiso   1.00
C102   C     0.18696   0.10976   0.71549   0.00000  Uiso   1.00
C103   C     0.28271   0.12487   0.73710   0.00000  Uiso   1.00
C104   C     0.28511   0.15793   0.72655   0.00000  Uiso   1.00
C105   C     0.33044   0.21105   0.72120   0.00000  Uiso   1.00
C106   C     0.00064   0.10569   0.66476   0.00000  Uiso   1.00
C107   C     0.98383   0.08691   0.76864   0.00000  Uiso   1.00
C108   C     0.89109   0.08620   0.82888   0.00000  Uiso   1.00
C109   C     0.89168   0.06756   0.92141   0.00000  Uiso   1.00
C110   C     0.03499   0.08129   0.58041   0.00000  Uiso   1.00
C111   C     0.98527   0.07585   0.48239   0.00000  Uiso   1.00
C112   C     0.02893   0.05248   0.41646   0.00000  Uiso   1.00
C113   C     0.09681   0.12705   0.68443   0.00000  Uiso   1.00
C114   C     0.09908   0.16009   0.67383   0.00000  Uiso   1.00
C115   C     0.19480   0.17525   0.69543   0.00000  Uiso   1.00
H116   H     0.23679   0.06039   0.74614   0.00000  Uiso   1.00
H117   H     0.14449   0.03760   0.91617   0.00000  Uiso   1.00
H118   H     0.23866   0.02726   0.56973   0.00000  Uiso   1.00
H119   H     0.35245   0.11148   0.76114   0.00000  Uiso   1.00
H120   H     0.00239   0.01994   0.09095   0.00000  Uiso   1.00
H121   H     0.20097   0.99814   0.36046   0.00000  Uiso   1.00
H122   H     0.44093   0.17575   0.76408   0.00000  Uiso   1.00
H123   H     0.93045   0.11915   0.64057   0.00000  Uiso   1.00
H124   H     0.82134   0.09958   0.80482   0.00000  Uiso   1.00
H125   H     0.91551   0.08924   0.45838   0.00000  Uiso   1.00
H126   H     0.02930   0.17346   0.64979   0.00000  Uiso   1.00
H127   H     0.74010   0.07025   0.00057   0.00000  Uiso   1.00
H128   H     0.93870   0.04845   0.27008   0.00000  Uiso   1.00
H129   H     0.17864   0.22606   0.67370   0.00000  Uiso   1.00
O130   O     0.80498   0.03115   0.15569   0.00000  Uiso   1.00
O131   O     0.06554   0.00256   0.19731   0.00000  Uiso   1.00
O132   O     0.38034   0.23557   0.72685   0.00000  Uiso   1.00
N133   N     0.95564   0.03447   0.04715   0.00000  Uiso   1.00
N134   N     0.14130   0.01409   0.36419   0.00000  Uiso   1.00
N135   N     0.36564   0.18014   0.74151   0.00000  Uiso   1.00
N136   N     0.81451   0.06154   0.99852   0.00000  Uiso   1.00
N137   N     0.00017   0.04116   0.31556   0.00000  Uiso   1.00
N138   N     0.22451   0.20721   0.69288   0.00000  Uiso   1.00
C139   C     0.33339   0.42614   0.72196   0.00000  Uiso   1.00
C140   C     0.42602   0.43038   0.79971   0.00000  Uiso   1.00
C141   C     0.42529   0.44902   0.89216   0.00000  Uiso   1.00
C142   C     0.51801   0.44976   0.95252   0.00000  Uiso   1.00
C143   C     0.64814   0.45898   0.07794   0.00000  Uiso   1.00
C144   C     0.37486   0.43600   0.61148   0.00000  Uiso   1.00
C145   C     0.33111   0.45937   0.54567   0.00000  Uiso   1.00
C146   C     0.38076   0.46484   0.44758   0.00000  Uiso   1.00
C147   C     0.43142   0.48277   0.28074   0.00000  Uiso   1.00
C148   C     0.31304   0.39024   0.71549   0.00000  Uiso   1.00
C149   C     0.21729   0.37513   0.73710   0.00000  Uiso   1.00
C150   C     0.21489   0.34207   0.72655   0.00000  Uiso   1.00
C151   C     0.16956   0.28895   0.72120   0.00000  Uiso   1.00
C152   C     0.49936   0.39431   0.66476   0.00000  Uiso   1.00
C153   C     0.51617   0.41309   0.76864   0.00000  Uiso   1.00
C154   C     0.60891   0.41380   0.82888   0.00000  Uiso   1.00
C155   C     0.60832   0.43244   0.92141   0.00000  Uiso   1.00
C156   C     0.46501   0.41871   0.58041   0.00000  Uiso   1.00
C157   C     0.51473   0.42415   0.48239   0.00000  Uiso   1.00
C158   C     0.47107   0.44752   0.41646   0.00000  Uiso   1.00
C159   C     0.40319   0.37295   0.68443   0.00000  Uiso   1.00
C160   C     0.40092   0.33991   0.67383   0.00000  Uiso   1.00
C161   C     0.30520   0.32475   0.69543   0.00000  Uiso   1.00
H162   H     0.26321   0.43961   0.74614   0.00000  Uiso   1.00
H163   H     0.35551   0.46240   0.91617   0.00000  Uiso   1.00
H164   H     0.26134   0.47274   0.56973   0.00000  Uiso   1.00
H165   H     0.14755   0.38852   0.76114   0.00000  Uiso   1.00
H166   H     0.49761   0.48006   0.09095   0.00000  Uiso   1.00
H167   H     0.29903   0.50186   0.36046   0.00000  Uiso   1.00
H168   H     0.05907   0.32425   0.76408   0.00000  Uiso   1.00
H169   H     0.56955   0.38085   0.64057   0.00000  Uiso   1.00
H170   H     0.67866   0.40042   0.80482   0.00000  Uiso   1.00
H171   H     0.58449   0.41076   0.45838   0.00000  Uiso   1.00
H172   H     0.47070   0.32654   0.64979   0.00000  Uiso   1.00
H173   H     0.75990   0.42975   0.00057   0.00000  Uiso   1.00
H174   H     0.56130   0.45155   0.27008   0.00000  Uiso   1.00
H175   H     0.32136   0.27394   0.67370   0.00000  Uiso   1.00
O176   O     0.69502   0.46885   0.15569   0.00000  Uiso   1.00
O177   O     0.43446   0.49744   0.19731   0.00000  Uiso   1.00
O178   O     0.11966   0.26443   0.72685   0.00000  Uiso   1.00
N179   N     0.54436   0.46553   0.04715   0.00000  Uiso   1.00
N180   N     0.35870   0.48591   0.36419   0.00000  Uiso   1.00
N181   N     0.13436   0.31986   0.74151   0.00000  Uiso   1.00
N182   N     0.68549   0.43846   0.99852   0.00000  Uiso   1.00
N183   N     0.49983   0.45884   0.31556   0.00000  Uiso   1.00
N184   N     0.27549   0.29279   0.69288   0.00000  Uiso   1.00
C185   C     0.16661   0.42614   0.22196   0.00000  Uiso   1.00
C186   C     0.07398   0.43038   0.29971   0.00000  Uiso   1.00
C187   C     0.07471   0.44902   0.39216   0.00000  Uiso   1.00
C188   C     0.98199   0.44976   0.45252   0.00000  Uiso   1.00
C189   C     0.85186   0.45898   0.57794   0.00000  Uiso   1.00
C190   C     0.12514   0.43600   0.11148   0.00000  Uiso   1.00
C191   C     0.16889   0.45937   0.04567   0.00000  Uiso   1.00
C192   C     0.11924   0.46484   0.94758   0.00000  Uiso   1.00
C193   C     0.06858   0.48277   0.78074   0.00000  Uiso   1.00
C194   C     0.18696   0.39024   0.21549   0.00000  Uiso   1.00
C195   C     0.28271   0.37513   0.23710   0.00000  Uiso   1.00
C196   C     0.28511   0.34207   0.22655   0.00000  Uiso   1.00
C197   C     0.33044   0.28895   0.22120   0.00000  Uiso   1.00
C198   C     0.00064   0.39431   0.16476   0.00000  Uiso   1.00
C199   C     0.98383   0.41309   0.26864   0.00000  Uiso   1.00
C200   C     0.89109   0.41380   0.32888   0.00000  Uiso   1.00
C201   C     0.89168   0.43244   0.42141   0.00000  Uiso   1.00
C202   C     0.03499   0.41871   0.08041   0.00000  Uiso   1.00
C203   C     0.98527   0.42415   0.98239   0.00000  Uiso   1.00
C204   C     0.02893   0.44752   0.91646   0.00000  Uiso   1.00
C205   C     0.09681   0.37295   0.18443   0.00000  Uiso   1.00
C206   C     0.09908   0.33991   0.17383   0.00000  Uiso   1.00
C207   C     0.19480   0.32475   0.19543   0.00000  Uiso   1.00
H208   H     0.23679   0.43961   0.24614   0.00000  Uiso   1.00
H209   H     0.14449   0.46240   0.41617   0.00000  Uiso   1.00
H210   H     0.23866   0.47274   0.06973   0.00000  Uiso   1.00
H211   H     0.35245   0.38852   0.26114   0.00000  Uiso   1.00
H212   H     0.00239   0.48006   0.59095   0.00000  Uiso   1.00
H213   H     0.20097   0.50186   0.86046   0.00000  Uiso   1.00
H214   H     0.44093   0.32425   0.26408   0.00000  Uiso   1.00
H215   H     0.93045   0.38085   0.14057   0.00000  Uiso   1.00
H216   H     0.82134   0.40042   0.30482   0.00000  Uiso   1.00
H217   H     0.91551   0.41076   0.95838   0.00000  Uiso   1.00
H218   H     0.02930   0.32654   0.14979   0.00000  Uiso   1.00
H219   H     0.74010   0.42975   0.50057   0.00000  Uiso   1.00
H220   H     0.93870   0.45155   0.77008   0.00000  Uiso   1.00
H221   H     0.17864   0.27394   0.17370   0.00000  Uiso   1.00
O222   O     0.80498   0.46885   0.65569   0.00000  Uiso   1.00
O223   O     0.06554   0.49744   0.69731   0.00000  Uiso   1.00
O224   O     0.38034   0.26443   0.22685   0.00000  Uiso   1.00
N225   N     0.95564   0.46553   0.54715   0.00000  Uiso   1.00
N226   N     0.14130   0.48591   0.86419   0.00000  Uiso   1.00
N227   N     0.36564   0.31986   0.24151   0.00000  Uiso   1.00
N228   N     0.81451   0.43846   0.49852   0.00000  Uiso   1.00
N229   N     0.00017   0.45884   0.81556   0.00000  Uiso   1.00
N230   N     0.22451   0.29279   0.19288   0.00000  Uiso   1.00
C231   C     0.33339   0.07386   0.22196   0.00000  Uiso   1.00
C232   C     0.42602   0.06962   0.29971   0.00000  Uiso   1.00
C233   C     0.42529   0.05098   0.39216   0.00000  Uiso   1.00
C234   C     0.51801   0.05024   0.45252   0.00000  Uiso   1.00
C235   C     0.64814   0.04102   0.57794   0.00000  Uiso   1.00
C236   C     0.37486   0.06400   0.11148   0.00000  Uiso   1.00
C237   C     0.33111   0.04063   0.04567   0.00000  Uiso   1.00
C238   C     0.38076   0.03516   0.94758   0.00000  Uiso   1.00
C239   C     0.43142   0.01723   0.78074   0.00000  Uiso   1.00
C240   C     0.31304   0.10976   0.21549   0.00000  Uiso   1.00
C241   C     0.21729   0.12487   0.23710   0.00000  Uiso   1.00
C242   C     0.21489   0.15793   0.22655   0.00000  Uiso   1.00
C243   C     0.16956   0.21105   0.22120   0.00000  Uiso   1.00
C244   C     0.49936   0.10569   0.16476   0.00000  Uiso   1.00
C245   C     0.51617   0.08691   0.26864   0.00000  Uiso   1.00
C246   C     0.60891   0.08620   0.32888   0.00000  Uiso   1.00
C247   C     0.60832   0.06756   0.42141   0.00000  Uiso   1.00
C248   C     0.46501   0.08129   0.08041   0.00000  Uiso   1.00
C249   C     0.51473   0.07585   0.98239   0.00000  Uiso   1.00
C250   C     0.47107   0.05248   0.91646   0.00000  Uiso   1.00
C251   C     0.40319   0.12705   0.18443   0.00000  Uiso   1.00
C252   C     0.40092   0.16009   0.17383   0.00000  Uiso   1.00
C253   C     0.30520   0.17525   0.19543   0.00000  Uiso   1.00
H254   H     0.26321   0.06039   0.24614   0.00000  Uiso   1.00
H255   H     0.35551   0.03760   0.41617   0.00000  Uiso   1.00
H256   H     0.26134   0.02726   0.06973   0.00000  Uiso   1.00
H257   H     0.14755   0.11148   0.26114   0.00000  Uiso   1.00
H258   H     0.49761   0.01994   0.59095   0.00000  Uiso   1.00
H259   H     0.29903   0.99814   0.86046   0.00000  Uiso   1.00
H260   H     0.05907   0.17575   0.26408   0.00000  Uiso   1.00
H261   H     0.56955   0.11915   0.14057   0.00000  Uiso   1.00
H262   H     0.67866   0.09958   0.30482   0.00000  Uiso   1.00
H263   H     0.58449   0.08924   0.95838   0.00000  Uiso   1.00
H264   H     0.47070   0.17346   0.14979   0.00000  Uiso   1.00
H265   H     0.75990   0.07025   0.50057   0.00000  Uiso   1.00
H266   H     0.56130   0.04845   0.77008   0.00000  Uiso   1.00
H267   H     0.32136   0.22606   0.17370   0.00000  Uiso   1.00
O268   O     0.69502   0.03115   0.65569   0.00000  Uiso   1.00
O269   O     0.43446   0.00256   0.69731   0.00000  Uiso   1.00
O270   O     0.11966   0.23557   0.22685   0.00000  Uiso   1.00
N271   N     0.54436   0.03447   0.54715   0.00000  Uiso   1.00
N272   N     0.35870   0.01409   0.86419   0.00000  Uiso   1.00
N273   N     0.13436   0.18014   0.24151   0.00000  Uiso   1.00
N274   N     0.68549   0.06154   0.49852   0.00000  Uiso   1.00
N275   N     0.49983   0.04116   0.81556   0.00000  Uiso   1.00
N276   N     0.27549   0.20721   0.19288   0.00000  Uiso   1.00
C277   C     0.83339   0.92614   0.27804   0.00000  Uiso   1.00
C278   C     0.92602   0.93038   0.20029   0.00000  Uiso   1.00
C279   C     0.92529   0.94902   0.10784   0.00000  Uiso   1.00
C280   C     0.01801   0.94976   0.04748   0.00000  Uiso   1.00
C281   C     0.14814   0.95898   0.92206   0.00000  Uiso   1.00
C282   C     0.87486   0.93600   0.38852   0.00000  Uiso   1.00
C283   C     0.83111   0.95937   0.45433   0.00000  Uiso   1.00
C284   C     0.88076   0.96484   0.55242   0.00000  Uiso   1.00
C285   C     0.93142   0.98277   0.71926   0.00000  Uiso   1.00
C286   C     0.81304   0.89024   0.28451   0.00000  Uiso   1.00
C287   C     0.71729   0.87513   0.26290   0.00000  Uiso   1.00
C288   C     0.71489   0.84207   0.27345   0.00000  Uiso   1.00
C289   C     0.66956   0.78895   0.27880   0.00000  Uiso   1.00
C290   C     0.99936   0.89431   0.33524   0.00000  Uiso   1.00
C291   C     0.01617   0.91309   0.23136   0.00000  Uiso   1.00
C292   C     0.10891   0.91380   0.17112   0.00000  Uiso   1.00
C293   C     0.10832   0.93244   0.07859   0.00000  Uiso   1.00
C294   C     0.96501   0.91871   0.41959   0.00000  Uiso   1.00
C295   C     0.01473   0.92415   0.51761   0.00000  Uiso   1.00
C296   C     0.97107   0.94752   0.58354   0.00000  Uiso   1.00
C297   C     0.90319   0.87295   0.31557   0.00000  Uiso   1.00
C298   C     0.90092   0.83991   0.32617   0.00000  Uiso   1.00
C299   C     0.80520   0.82475   0.30457   0.00000  Uiso   1.00
H300   H     0.76321   0.93961   0.25386   0.00000  Uiso   1.00
H301   H     0.85551   0.96240   0.08383   0.00000  Uiso   1.00
H302   H     0.76134   0.97274   0.43027   0.00000  Uiso   1.00
H303   H     0.64755   0.88852   0.23886   0.00000  Uiso   1.00
H304   H     0.99761   0.98006   0.90905   0.00000  Uiso   1.00
H305   H     0.79903   0.00186   0.63954   0.00000  Uiso   1.00
H306   H     0.55907   0.82425   0.23592   0.00000  Uiso   1.00
H307   H     0.06955   0.88085   0.35943   0.00000  Uiso   1.00
H308   H     0.17866   0.90042   0.19518   0.00000  Uiso   1.00
H309   H     0.08449   0.91076   0.54162   0.00000  Uiso   1.00
H310   H     0.97070   0.82654   0.35021   0.00000  Uiso   1.00
H311   H     0.25990   0.92975   0.99943   0.00000  Uiso   1.00
H312   H     0.06130   0.95155   0.72992   0.00000  Uiso   1.00
H313   H     0.82136   0.77394   0.32630   0.00000  Uiso   1.00
O314   O     0.19502   0.96885   0.84431   0.00000  Uiso   1.00
O315   O     0.93446   0.99744   0.80269   0.00000  Uiso   1.00
O316   O     0.61966   0.76443   0.27315   0.00000  Uiso   1.00
N317   N     0.04436   0.96553   0.95285   0.00000  Uiso   1.00
N318   N     0.85870   0.98591   0.63581   0.00000  Uiso   1.00
N319   N     0.63436   0.81986   0.25849   0.00000  Uiso   1.00
N320   N     0.18549   0.93846   0.00148   0.00000  Uiso   1.00
N321   N     0.99983   0.95884   0.68444   0.00000  Uiso   1.00
N322   N     0.77549   0.79279   0.30712   0.00000  Uiso   1.00
C323   C     0.66661   0.57386   0.27804   0.00000  Uiso   1.00
C324   C     0.57398   0.56962   0.20029   0.00000  Uiso   1.00
C325   C     0.57471   0.55098   0.10784   0.00000  Uiso   1.00
C326   C     0.48199   0.55024   0.04748   0.00000  Uiso   1.00
C327   C     0.35186   0.54102   0.92206   0.00000  Uiso   1.00
C328   C     0.62514   0.56400   0.38852   0.00000  Uiso   1.00
C329   C     0.66889   0.54063   0.45433   0.00000  Uiso   1.00
C330   C     0.61924   0.53516   0.55242   0.00000  Uiso   1.00
C331   C     0.56858   0.51723   0.71926   0.00000  Uiso   1.00
C332   C     0.68696   0.60976   0.28451   0.00000  Uiso   1.00
C333   C     0.78271   0.62487   0.26290   0.00000  Uiso   1.00
C334   C     0.78511   0.65793   0.27345   0.00000  Uiso   1.00
C335   C     0.83044   0.71105   0.27880   0.00000  Uiso   1.00
C336   C     0.50064   0.60569   0.33524   0.00000  Uiso   1.00
C337   C     0.48383   0.58691   0.23136   0.00000  Uiso   1.00
C338   C     0.39109   0.58620   0.17112   0.00000  Uiso   1.00
C339   C     0.39168   0.56756   0.07859   0.00000  Uiso   1.00
C340   C     0.53499   0.58129   0.41959   0.00000  Uiso   1.00
C341   C     0.48527   0.57585   0.51761   0.00000  Uiso   1.00
C342   C     0.52893   0.55248   0.58354   0.00000  Uiso   1.00
C343   C     0.59681   0.62705   0.31557   0.00000  Uiso   1.00
C344   C     0.59908   0.66009   0.32617   0.00000  Uiso   1.00
C345   C     0.69480   0.67525   0.30457   0.00000  Uiso   1.00
H346   H     0.73679   0.56039   0.25386   0.00000  Uiso   1.00
H347   H     0.64449   0.53760   0.08383   0.00000  Uiso   1.00
H348   H     0.73866   0.52726   0.43027   0.00000  Uiso   1.00
H349   H     0.85245   0.61148   0.23886   0.00000  Uiso   1.00
H350   H     0.50239   0.51994   0.90905   0.00000  Uiso   1.00
H351   H     0.70097   0.49814   0.63954   0.00000  Uiso   1.00
H352   H     0.94093   0.67575   0.23592   0.00000  Uiso   1.00
H353   H     0.43045   0.61915   0.35943   0.00000  Uiso   1.00
H354   H     0.32134   0.59958   0.19518   0.00000  Uiso   1.00
H355   H     0.41551   0.58924   0.54162   0.00000  Uiso   1.00
H356   H     0.52930   0.67346   0.35021   0.00000  Uiso   1.00
H357   H     0.24010   0.57025   0.99943   0.00000  Uiso   1.00
H358   H     0.43870   0.54845   0.72992   0.00000  Uiso   1.00
H359   H     0.67864   0.72606   0.32630   0.00000  Uiso   1.00
O360   O     0.30498   0.53115   0.84431   0.00000  Uiso   1.00
O361   O     0.56554   0.50256   0.80269   0.00000  Uiso   1.00
O362   O     0.88034   0.73557   0.27315   0.00000  Uiso   1.00
N363   N     0.45564   0.53447   0.95285   0.00000  Uiso   1.00
N364   N     0.64130   0.51409   0.63581   0.00000  Uiso   1.00
N365   N     0.86564   0.68014   0.25849   0.00000  Uiso   1.00
N366   N     0.31451   0.56154   0.00148   0.00000  Uiso   1.00
N367   N     0.50017   0.54116   0.68444   0.00000  Uiso   1.00
N368   N     0.72451   0.70721   0.30712   0.00000  Uiso   1.00
