data_job_05452
_audit_creation_date              2018-12-19
_audit_creation_method            'Materials Studio'
_symmetry_space_group_name_H-M    'P1'
_symmetry_Int_Tables_number       1
_symmetry_cell_setting            triclinic
loop_
_symmetry_equiv_pos_as_xyz
  x,y,z
_cell_length_a                    42.1281
_cell_length_b                    12.9221
_cell_length_c                    12.3565
_cell_angle_alpha                 90.0000
_cell_angle_beta                  90.0000
_cell_angle_gamma                 90.0000
loop_
_atom_site_label
_atom_site_type_symbol
_atom_site_fract_x
_atom_site_fract_y
_atom_site_fract_z
_atom_site_U_iso_or_equiv
_atom_site_adp_type
_atom_site_occupancy
C1     C     0.10083   0.30914   0.12623   0.00000  Uiso   1.00
C2     C     0.08005   0.24815   0.20459   0.00000  Uiso   1.00
C3     C     0.06653   0.28648   0.29885   0.00000  Uiso   1.00
C4     C     0.04830   0.21833   0.35952   0.00000  Uiso   1.00
C5     C     0.01673   0.13925   0.48617   0.00000  Uiso   1.00
C6     C     0.13188   0.24910   0.11718   0.00000  Uiso   1.00
C7     C     0.16195   0.28824   0.13793   0.00000  Uiso   1.00
C8     C     0.18735   0.22089   0.12499   0.00000  Uiso   1.00
C9     C     0.23626   0.14331   0.11586   0.00000  Uiso   1.00
C10    C     0.08484   0.30052   0.01589   0.00000  Uiso   1.00
C11    C     0.07537   0.38288   0.95145   0.00000  Uiso   1.00
C12    C     0.06117   0.35883   0.85321   0.00000  Uiso   1.00
C13    C     0.03704   0.36107   0.68681   0.00000  Uiso   1.00
C14    C     0.09247   0.11996   0.06634   0.00000  Uiso   1.00
C15    C     0.07551   0.14540   0.17206   0.00000  Uiso   1.00
C16    C     0.05728   0.07718   0.23260   0.00000  Uiso   1.00
C17    C     0.04375   0.11540   0.32693   0.00000  Uiso   1.00
C18    C     0.12734   0.14635   0.08465   0.00000  Uiso   1.00
C19    C     0.15270   0.07893   0.07167   0.00000  Uiso   1.00
C20    C     0.18280   0.11795   0.09241   0.00000  Uiso   1.00
C21    C     0.08030   0.19777   0.98336   0.00000  Uiso   1.00
C22    C     0.06612   0.17358   0.88520   0.00000  Uiso   1.00
C23    C     0.05662   0.25589   0.82063   0.00000  Uiso   1.00
H24    H     0.10437   0.38914   0.15155   0.00000  Uiso   1.00
H25    H     0.07006   0.36600   0.32400   0.00000  Uiso   1.00
H26    H     0.16546   0.36776   0.16309   0.00000  Uiso   1.00
H27    H     0.07889   0.46239   0.97664   0.00000  Uiso   1.00
H28    H     0.03002   0.29503   0.50087   0.00000  Uiso   1.00
H29    H     0.23118   0.29874   0.16155   0.00000  Uiso   1.00
H30    H     0.04863   0.49829   0.76838   0.00000  Uiso   1.00
H31    H     0.08894   0.03996   0.04102   0.00000  Uiso   1.00
H32    H     0.05378   0.99766   0.20741   0.00000  Uiso   1.00
H33    H     0.14918   0.99942   0.04650   0.00000  Uiso   1.00
H34    H     0.06261   0.09405   0.86005   0.00000  Uiso   1.00
H35    H     0.01681   0.99607   0.40624   0.00000  Uiso   1.00
H36    H     0.21797   0.99979   0.06691   0.00000  Uiso   1.00
H37    H     0.03542   0.19933   0.67375   0.00000  Uiso   1.00
O38    O     0.00057   0.12401   0.56502   0.00000  Uiso   1.00
O39    O     0.26449   0.12890   0.11982   0.00000  Uiso   1.00
O40    O     0.02498   0.39070   0.60401   0.00000  Uiso   1.00
N41    N     0.03173   0.23048   0.45575   0.00000  Uiso   1.00
N42    N     0.21980   0.23395   0.13852   0.00000  Uiso   1.00
N43    N     0.04914   0.42051   0.77094   0.00000  Uiso   1.00
N44    N     0.02462   0.06961   0.40483   0.00000  Uiso   1.00
N45    N     0.21269   0.07308   0.08760   0.00000  Uiso   1.00
N46    N     0.04203   0.25964   0.72002   0.00000  Uiso   1.00
C47    C     0.39917   0.69086   0.12623   0.00000  Uiso   1.00
C48    C     0.41995   0.75185   0.20459   0.00000  Uiso   1.00
C49    C     0.43347   0.71352   0.29885   0.00000  Uiso   1.00
C50    C     0.45170   0.78167   0.35952   0.00000  Uiso   1.00
C51    C     0.48327   0.86075   0.48617   0.00000  Uiso   1.00
C52    C     0.36812   0.75090   0.11718   0.00000  Uiso   1.00
C53    C     0.33805   0.71176   0.13793   0.00000  Uiso   1.00
C54    C     0.31265   0.77911   0.12499   0.00000  Uiso   1.00
C55    C     0.26374   0.85669   0.11586   0.00000  Uiso   1.00
C56    C     0.41516   0.69948   0.01589   0.00000  Uiso   1.00
C57    C     0.42463   0.61712   0.95145   0.00000  Uiso   1.00
C58    C     0.43883   0.64117   0.85321   0.00000  Uiso   1.00
C59    C     0.46296   0.63893   0.68681   0.00000  Uiso   1.00
C60    C     0.40753   0.88004   0.06634   0.00000  Uiso   1.00
C61    C     0.42449   0.85460   0.17206   0.00000  Uiso   1.00
C62    C     0.44272   0.92282   0.23260   0.00000  Uiso   1.00
C63    C     0.45625   0.88460   0.32693   0.00000  Uiso   1.00
C64    C     0.37266   0.85365   0.08465   0.00000  Uiso   1.00
C65    C     0.34730   0.92107   0.07167   0.00000  Uiso   1.00
C66    C     0.31720   0.88205   0.09241   0.00000  Uiso   1.00
C67    C     0.41970   0.80223   0.98336   0.00000  Uiso   1.00
C68    C     0.43388   0.82642   0.88520   0.00000  Uiso   1.00
C69    C     0.44338   0.74411   0.82063   0.00000  Uiso   1.00
H70    H     0.39563   0.61086   0.15155   0.00000  Uiso   1.00
H71    H     0.42994   0.63400   0.32400   0.00000  Uiso   1.00
H72    H     0.33454   0.63224   0.16309   0.00000  Uiso   1.00
H73    H     0.42111   0.53761   0.97664   0.00000  Uiso   1.00
H74    H     0.46998   0.70497   0.50087   0.00000  Uiso   1.00
H75    H     0.26882   0.70126   0.16155   0.00000  Uiso   1.00
H76    H     0.45137   0.50171   0.76838   0.00000  Uiso   1.00
H77    H     0.41106   0.96004   0.04102   0.00000  Uiso   1.00
H78    H     0.44622   0.00234   0.20741   0.00000  Uiso   1.00
H79    H     0.35082   0.00058   0.04650   0.00000  Uiso   1.00
H80    H     0.43739   0.90595   0.86005   0.00000  Uiso   1.00
H81    H     0.48319   0.00393   0.40624   0.00000  Uiso   1.00
H82    H     0.28203   0.00021   0.06691   0.00000  Uiso   1.00
H83    H     0.46458   0.80067   0.67375   0.00000  Uiso   1.00
O84    O     0.49943   0.87599   0.56502   0.00000  Uiso   1.00
O85    O     0.23551   0.87110   0.11982   0.00000  Uiso   1.00
O86    O     0.47502   0.60930   0.60401   0.00000  Uiso   1.00
N87    N     0.46827   0.76952   0.45575   0.00000  Uiso   1.00
N88    N     0.28020   0.76605   0.13852   0.00000  Uiso   1.00
N89    N     0.45086   0.57949   0.77094   0.00000  Uiso   1.00
N90    N     0.47538   0.93039   0.40483   0.00000  Uiso   1.00
N91    N     0.28731   0.92692   0.08760   0.00000  Uiso   1.00
N92    N     0.45797   0.74036   0.72002   0.00000  Uiso   1.00
C93    C     0.89917   0.30914   0.37377   0.00000  Uiso   1.00
C94    C     0.91995   0.24815   0.29541   0.00000  Uiso   1.00
C95    C     0.93347   0.28648   0.20115   0.00000  Uiso   1.00
C96    C     0.95170   0.21833   0.14048   0.00000  Uiso   1.00
C97    C     0.98327   0.13925   0.01383   0.00000  Uiso   1.00
C98    C     0.86812   0.24910   0.38282   0.00000  Uiso   1.00
C99    C     0.83805   0.28824   0.36207   0.00000  Uiso   1.00
C100   C     0.81265   0.22089   0.37501   0.00000  Uiso   1.00
C101   C     0.76374   0.14331   0.38414   0.00000  Uiso   1.00
C102   C     0.91516   0.30052   0.48411   0.00000  Uiso   1.00
C103   C     0.92463   0.38288   0.54855   0.00000  Uiso   1.00
C104   C     0.93883   0.35883   0.64679   0.00000  Uiso   1.00
C105   C     0.96296   0.36107   0.81319   0.00000  Uiso   1.00
C106   C     0.90753   0.11996   0.43366   0.00000  Uiso   1.00
C107   C     0.92449   0.14540   0.32794   0.00000  Uiso   1.00
C108   C     0.94272   0.07718   0.26740   0.00000  Uiso   1.00
C109   C     0.95625   0.11540   0.17307   0.00000  Uiso   1.00
C110   C     0.87266   0.14635   0.41535   0.00000  Uiso   1.00
C111   C     0.84730   0.07893   0.42833   0.00000  Uiso   1.00
C112   C     0.81720   0.11795   0.40759   0.00000  Uiso   1.00
C113   C     0.91970   0.19777   0.51664   0.00000  Uiso   1.00
C114   C     0.93388   0.17358   0.61480   0.00000  Uiso   1.00
C115   C     0.94338   0.25589   0.67937   0.00000  Uiso   1.00
H116   H     0.89563   0.38914   0.34845   0.00000  Uiso   1.00
H117   H     0.92994   0.36600   0.17600   0.00000  Uiso   1.00
H118   H     0.83454   0.36776   0.33691   0.00000  Uiso   1.00
H119   H     0.92111   0.46239   0.52336   0.00000  Uiso   1.00
H120   H     0.96998   0.29503   0.99913   0.00000  Uiso   1.00
H121   H     0.76882   0.29874   0.33845   0.00000  Uiso   1.00
H122   H     0.95137   0.49829   0.73162   0.00000  Uiso   1.00
H123   H     0.91106   0.03996   0.45898   0.00000  Uiso   1.00
H124   H     0.94622   0.99766   0.29259   0.00000  Uiso   1.00
H125   H     0.85082   0.99942   0.45350   0.00000  Uiso   1.00
H126   H     0.93739   0.09405   0.63995   0.00000  Uiso   1.00
H127   H     0.98319   0.99607   0.09376   0.00000  Uiso   1.00
H128   H     0.78203   0.99979   0.43309   0.00000  Uiso   1.00
H129   H     0.96458   0.19933   0.82625   0.00000  Uiso   1.00
O130   O     0.99943   0.12401   0.93498   0.00000  Uiso   1.00
O131   O     0.73551   0.12890   0.38018   0.00000  Uiso   1.00
O132   O     0.97502   0.39070   0.89599   0.00000  Uiso   1.00
N133   N     0.96827   0.23048   0.04425   0.00000  Uiso   1.00
N134   N     0.78020   0.23395   0.36148   0.00000  Uiso   1.00
N135   N     0.95086   0.42051   0.72906   0.00000  Uiso   1.00
N136   N     0.97538   0.06961   0.09517   0.00000  Uiso   1.00
N137   N     0.78731   0.07308   0.41240   0.00000  Uiso   1.00
N138   N     0.95797   0.25964   0.77998   0.00000  Uiso   1.00
C139   C     0.60083   0.69086   0.37377   0.00000  Uiso   1.00
C140   C     0.58005   0.75185   0.29541   0.00000  Uiso   1.00
C141   C     0.56653   0.71352   0.20115   0.00000  Uiso   1.00
C142   C     0.54830   0.78167   0.14048   0.00000  Uiso   1.00
C143   C     0.51673   0.86075   0.01383   0.00000  Uiso   1.00
C144   C     0.63188   0.75090   0.38282   0.00000  Uiso   1.00
C145   C     0.66195   0.71176   0.36207   0.00000  Uiso   1.00
C146   C     0.68735   0.77911   0.37501   0.00000  Uiso   1.00
C147   C     0.73626   0.85669   0.38414   0.00000  Uiso   1.00
C148   C     0.58484   0.69948   0.48411   0.00000  Uiso   1.00
C149   C     0.57537   0.61712   0.54855   0.00000  Uiso   1.00
C150   C     0.56117   0.64117   0.64679   0.00000  Uiso   1.00
C151   C     0.53704   0.63893   0.81319   0.00000  Uiso   1.00
C152   C     0.59247   0.88004   0.43366   0.00000  Uiso   1.00
C153   C     0.57551   0.85460   0.32794   0.00000  Uiso   1.00
C154   C     0.55728   0.92282   0.26740   0.00000  Uiso   1.00
C155   C     0.54375   0.88460   0.17307   0.00000  Uiso   1.00
C156   C     0.62734   0.85365   0.41535   0.00000  Uiso   1.00
C157   C     0.65270   0.92107   0.42833   0.00000  Uiso   1.00
C158   C     0.68280   0.88205   0.40759   0.00000  Uiso   1.00
C159   C     0.58030   0.80223   0.51664   0.00000  Uiso   1.00
C160   C     0.56612   0.82642   0.61480   0.00000  Uiso   1.00
C161   C     0.55662   0.74411   0.67937   0.00000  Uiso   1.00
H162   H     0.60437   0.61086   0.34845   0.00000  Uiso   1.00
H163   H     0.57006   0.63400   0.17600   0.00000  Uiso   1.00
H164   H     0.66546   0.63224   0.33691   0.00000  Uiso   1.00
H165   H     0.57889   0.53761   0.52336   0.00000  Uiso   1.00
H166   H     0.53002   0.70497   0.99913   0.00000  Uiso   1.00
H167   H     0.73118   0.70126   0.33845   0.00000  Uiso   1.00
H168   H     0.54863   0.50171   0.73162   0.00000  Uiso   1.00
H169   H     0.58894   0.96004   0.45898   0.00000  Uiso   1.00
H170   H     0.55378   0.00234   0.29259   0.00000  Uiso   1.00
H171   H     0.64918   0.00058   0.45350   0.00000  Uiso   1.00
H172   H     0.56261   0.90595   0.63995   0.00000  Uiso   1.00
H173   H     0.51681   0.00393   0.09376   0.00000  Uiso   1.00
H174   H     0.71797   0.00021   0.43309   0.00000  Uiso   1.00
H175   H     0.53542   0.80067   0.82625   0.00000  Uiso   1.00
O176   O     0.50057   0.87599   0.93498   0.00000  Uiso   1.00
O177   O     0.76449   0.87110   0.38018   0.00000  Uiso   1.00
O178   O     0.52498   0.60930   0.89599   0.00000  Uiso   1.00
N179   N     0.53173   0.76952   0.04425   0.00000  Uiso   1.00
N180   N     0.71980   0.76605   0.36148   0.00000  Uiso   1.00
N181   N     0.54914   0.57949   0.72906   0.00000  Uiso   1.00
N182   N     0.52462   0.93039   0.09517   0.00000  Uiso   1.00
N183   N     0.71269   0.92692   0.41240   0.00000  Uiso   1.00
N184   N     0.54203   0.74036   0.77998   0.00000  Uiso   1.00
C185   C     0.89917   0.69086   0.87377   0.00000  Uiso   1.00
C186   C     0.91995   0.75185   0.79541   0.00000  Uiso   1.00
C187   C     0.93347   0.71352   0.70115   0.00000  Uiso   1.00
C188   C     0.95170   0.78167   0.64048   0.00000  Uiso   1.00
C189   C     0.98327   0.86075   0.51383   0.00000  Uiso   1.00
C190   C     0.86812   0.75090   0.88282   0.00000  Uiso   1.00
C191   C     0.83805   0.71176   0.86207   0.00000  Uiso   1.00
C192   C     0.81265   0.77911   0.87501   0.00000  Uiso   1.00
C193   C     0.76374   0.85669   0.88414   0.00000  Uiso   1.00
C194   C     0.91516   0.69948   0.98411   0.00000  Uiso   1.00
C195   C     0.92463   0.61712   0.04855   0.00000  Uiso   1.00
C196   C     0.93883   0.64117   0.14679   0.00000  Uiso   1.00
C197   C     0.96296   0.63893   0.31319   0.00000  Uiso   1.00
C198   C     0.90753   0.88004   0.93366   0.00000  Uiso   1.00
C199   C     0.92449   0.85460   0.82794   0.00000  Uiso   1.00
C200   C     0.94272   0.92282   0.76740   0.00000  Uiso   1.00
C201   C     0.95625   0.88460   0.67307   0.00000  Uiso   1.00
C202   C     0.87266   0.85365   0.91535   0.00000  Uiso   1.00
C203   C     0.84730   0.92107   0.92833   0.00000  Uiso   1.00
C204   C     0.81720   0.88205   0.90759   0.00000  Uiso   1.00
C205   C     0.91970   0.80223   0.01664   0.00000  Uiso   1.00
C206   C     0.93388   0.82642   0.11480   0.00000  Uiso   1.00
C207   C     0.94338   0.74411   0.17937   0.00000  Uiso   1.00
H208   H     0.89563   0.61086   0.84845   0.00000  Uiso   1.00
H209   H     0.92994   0.63400   0.67600   0.00000  Uiso   1.00
H210   H     0.83454   0.63224   0.83691   0.00000  Uiso   1.00
H211   H     0.92111   0.53761   0.02336   0.00000  Uiso   1.00
H212   H     0.96998   0.70497   0.49913   0.00000  Uiso   1.00
H213   H     0.76882   0.70126   0.83845   0.00000  Uiso   1.00
H214   H     0.95137   0.50171   0.23162   0.00000  Uiso   1.00
H215   H     0.91106   0.96004   0.95898   0.00000  Uiso   1.00
H216   H     0.94622   0.00234   0.79259   0.00000  Uiso   1.00
H217   H     0.85082   0.00058   0.95350   0.00000  Uiso   1.00
H218   H     0.93739   0.90595   0.13995   0.00000  Uiso   1.00
H219   H     0.98319   0.00393   0.59376   0.00000  Uiso   1.00
H220   H     0.78203   0.00021   0.93309   0.00000  Uiso   1.00
H221   H     0.96458   0.80067   0.32625   0.00000  Uiso   1.00
O222   O     0.99943   0.87599   0.43498   0.00000  Uiso   1.00
O223   O     0.73551   0.87110   0.88018   0.00000  Uiso   1.00
O224   O     0.97502   0.60930   0.39599   0.00000  Uiso   1.00
N225   N     0.96827   0.76952   0.54425   0.00000  Uiso   1.00
N226   N     0.78020   0.76605   0.86148   0.00000  Uiso   1.00
N227   N     0.95086   0.57949   0.22906   0.00000  Uiso   1.00
N228   N     0.97538   0.93039   0.59517   0.00000  Uiso   1.00
N229   N     0.78731   0.92692   0.91240   0.00000  Uiso   1.00
N230   N     0.95797   0.74036   0.27998   0.00000  Uiso   1.00
C231   C     0.60083   0.30914   0.87377   0.00000  Uiso   1.00
C232   C     0.58005   0.24815   0.79541   0.00000  Uiso   1.00
C233   C     0.56653   0.28648   0.70115   0.00000  Uiso   1.00
C234   C     0.54830   0.21833   0.64048   0.00000  Uiso   1.00
C235   C     0.51673   0.13925   0.51383   0.00000  Uiso   1.00
C236   C     0.63188   0.24910   0.88282   0.00000  Uiso   1.00
C237   C     0.66195   0.28824   0.86207   0.00000  Uiso   1.00
C238   C     0.68735   0.22089   0.87501   0.00000  Uiso   1.00
C239   C     0.73626   0.14331   0.88414   0.00000  Uiso   1.00
C240   C     0.58484   0.30052   0.98411   0.00000  Uiso   1.00
C241   C     0.57537   0.38288   0.04855   0.00000  Uiso   1.00
C242   C     0.56117   0.35883   0.14679   0.00000  Uiso   1.00
C243   C     0.53704   0.36107   0.31319   0.00000  Uiso   1.00
C244   C     0.59247   0.11996   0.93366   0.00000  Uiso   1.00
C245   C     0.57551   0.14540   0.82794   0.00000  Uiso   1.00
C246   C     0.55728   0.07718   0.76740   0.00000  Uiso   1.00
C247   C     0.54375   0.11540   0.67307   0.00000  Uiso   1.00
C248   C     0.62734   0.14635   0.91535   0.00000  Uiso   1.00
C249   C     0.65270   0.07893   0.92833   0.00000  Uiso   1.00
C250   C     0.68280   0.11795   0.90759   0.00000  Uiso   1.00
C251   C     0.58030   0.19777   0.01664   0.00000  Uiso   1.00
C252   C     0.56612   0.17358   0.11480   0.00000  Uiso   1.00
C253   C     0.55662   0.25589   0.17937   0.00000  Uiso   1.00
H254   H     0.60437   0.38914   0.84845   0.00000  Uiso   1.00
H255   H     0.57006   0.36600   0.67600   0.00000  Uiso   1.00
H256   H     0.66546   0.36776   0.83691   0.00000  Uiso   1.00
H257   H     0.57889   0.46239   0.02336   0.00000  Uiso   1.00
H258   H     0.53002   0.29503   0.49913   0.00000  Uiso   1.00
H259   H     0.73118   0.29874   0.83845   0.00000  Uiso   1.00
H260   H     0.54863   0.49829   0.23162   0.00000  Uiso   1.00
H261   H     0.58894   0.03996   0.95898   0.00000  Uiso   1.00
H262   H     0.55378   0.99766   0.79259   0.00000  Uiso   1.00
H263   H     0.64918   0.99942   0.95350   0.00000  Uiso   1.00
H264   H     0.56261   0.09405   0.13995   0.00000  Uiso   1.00
H265   H     0.51681   0.99607   0.59376   0.00000  Uiso   1.00
H266   H     0.71797   0.99979   0.93309   0.00000  Uiso   1.00
H267   H     0.53542   0.19933   0.32625   0.00000  Uiso   1.00
O268   O     0.50057   0.12401   0.43498   0.00000  Uiso   1.00
O269   O     0.76449   0.12890   0.88018   0.00000  Uiso   1.00
O270   O     0.52498   0.39070   0.39599   0.00000  Uiso   1.00
N271   N     0.53173   0.23048   0.54425   0.00000  Uiso   1.00
N272   N     0.71980   0.23395   0.86148   0.00000  Uiso   1.00
N273   N     0.54914   0.42051   0.22906   0.00000  Uiso   1.00
N274   N     0.52462   0.06961   0.59517   0.00000  Uiso   1.00
N275   N     0.71269   0.07308   0.91240   0.00000  Uiso   1.00
N276   N     0.54203   0.25964   0.27998   0.00000  Uiso   1.00
C277   C     0.10083   0.69086   0.62623   0.00000  Uiso   1.00
C278   C     0.08005   0.75185   0.70459   0.00000  Uiso   1.00
C279   C     0.06653   0.71352   0.79885   0.00000  Uiso   1.00
C280   C     0.04830   0.78167   0.85952   0.00000  Uiso   1.00
C281   C     0.01673   0.86075   0.98617   0.00000  Uiso   1.00
C282   C     0.13188   0.75090   0.61718   0.00000  Uiso   1.00
C283   C     0.16195   0.71176   0.63793   0.00000  Uiso   1.00
C284   C     0.18735   0.77911   0.62499   0.00000  Uiso   1.00
C285   C     0.23626   0.85669   0.61586   0.00000  Uiso   1.00
C286   C     0.08484   0.69948   0.51589   0.00000  Uiso   1.00
C287   C     0.07537   0.61712   0.45145   0.00000  Uiso   1.00
C288   C     0.06117   0.64117   0.35321   0.00000  Uiso   1.00
C289   C     0.03704   0.63893   0.18681   0.00000  Uiso   1.00
C290   C     0.09247   0.88004   0.56634   0.00000  Uiso   1.00
C291   C     0.07551   0.85460   0.67206   0.00000  Uiso   1.00
C292   C     0.05728   0.92282   0.73260   0.00000  Uiso   1.00
C293   C     0.04375   0.88460   0.82693   0.00000  Uiso   1.00
C294   C     0.12734   0.85365   0.58465   0.00000  Uiso   1.00
C295   C     0.15270   0.92107   0.57167   0.00000  Uiso   1.00
C296   C     0.18280   0.88205   0.59241   0.00000  Uiso   1.00
C297   C     0.08030   0.80223   0.48336   0.00000  Uiso   1.00
C298   C     0.06612   0.82642   0.38520   0.00000  Uiso   1.00
C299   C     0.05662   0.74411   0.32063   0.00000  Uiso   1.00
H300   H     0.10437   0.61086   0.65155   0.00000  Uiso   1.00
H301   H     0.07006   0.63400   0.82400   0.00000  Uiso   1.00
H302   H     0.16546   0.63224   0.66309   0.00000  Uiso   1.00
H303   H     0.07889   0.53761   0.47664   0.00000  Uiso   1.00
H304   H     0.03002   0.70497   0.00087   0.00000  Uiso   1.00
H305   H     0.23118   0.70126   0.66155   0.00000  Uiso   1.00
H306   H     0.04863   0.50171   0.26838   0.00000  Uiso   1.00
H307   H     0.08894   0.96004   0.54102   0.00000  Uiso   1.00
H308   H     0.05378   0.00234   0.70741   0.00000  Uiso   1.00
H309   H     0.14918   0.00058   0.54650   0.00000  Uiso   1.00
H310   H     0.06261   0.90595   0.36005   0.00000  Uiso   1.00
H311   H     0.01681   0.00393   0.90624   0.00000  Uiso   1.00
H312   H     0.21797   0.00021   0.56691   0.00000  Uiso   1.00
H313   H     0.03542   0.80067   0.17375   0.00000  Uiso   1.00
O314   O     0.00057   0.87599   0.06502   0.00000  Uiso   1.00
O315   O     0.26449   0.87110   0.61982   0.00000  Uiso   1.00
O316   O     0.02498   0.60930   0.10401   0.00000  Uiso   1.00
N317   N     0.03173   0.76952   0.95575   0.00000  Uiso   1.00
N318   N     0.21980   0.76605   0.63852   0.00000  Uiso   1.00
N319   N     0.04914   0.57949   0.27094   0.00000  Uiso   1.00
N320   N     0.02462   0.93039   0.90483   0.00000  Uiso   1.00
N321   N     0.21269   0.92692   0.58760   0.00000  Uiso   1.00
N322   N     0.04203   0.74036   0.22002   0.00000  Uiso   1.00
C323   C     0.39917   0.30914   0.62623   0.00000  Uiso   1.00
C324   C     0.41995   0.24815   0.70459   0.00000  Uiso   1.00
C325   C     0.43347   0.28648   0.79885   0.00000  Uiso   1.00
C326   C     0.45170   0.21833   0.85952   0.00000  Uiso   1.00
C327   C     0.48327   0.13925   0.98617   0.00000  Uiso   1.00
C328   C     0.36812   0.24910   0.61718   0.00000  Uiso   1.00
C329   C     0.33805   0.28824   0.63793   0.00000  Uiso   1.00
C330   C     0.31265   0.22089   0.62499   0.00000  Uiso   1.00
C331   C     0.26374   0.14331   0.61586   0.00000  Uiso   1.00
C332   C     0.41516   0.30052   0.51589   0.00000  Uiso   1.00
C333   C     0.42463   0.38288   0.45145   0.00000  Uiso   1.00
C334   C     0.43883   0.35883   0.35321   0.00000  Uiso   1.00
C335   C     0.46296   0.36107   0.18681   0.00000  Uiso   1.00
C336   C     0.40753   0.11996   0.56634   0.00000  Uiso   1.00
C337   C     0.42449   0.14540   0.67206   0.00000  Uiso   1.00
C338   C     0.44272   0.07718   0.73260   0.00000  Uiso   1.00
C339   C     0.45625   0.11540   0.82693   0.00000  Uiso   1.00
C340   C     0.37266   0.14635   0.58465   0.00000  Uiso   1.00
C341   C     0.34730   0.07893   0.57167   0.00000  Uiso   1.00
C342   C     0.31720   0.11795   0.59241   0.00000  Uiso   1.00
C343   C     0.41970   0.19777   0.48336   0.00000  Uiso   1.00
C344   C     0.43388   0.17358   0.38520   0.00000  Uiso   1.00
C345   C     0.44338   0.25589   0.32063   0.00000  Uiso   1.00
H346   H     0.39563   0.38914   0.65155   0.00000  Uiso   1.00
H347   H     0.42994   0.36600   0.82400   0.00000  Uiso   1.00
H348   H     0.33454   0.36776   0.66309   0.00000  Uiso   1.00
H349   H     0.42111   0.46239   0.47664   0.00000  Uiso   1.00
H350   H     0.46998   0.29503   0.00087   0.00000  Uiso   1.00
H351   H     0.26882   0.29874   0.66155   0.00000  Uiso   1.00
H352   H     0.45137   0.49829   0.26838   0.00000  Uiso   1.00
H353   H     0.41106   0.03996   0.54102   0.00000  Uiso   1.00
H354   H     0.44622   0.99766   0.70741   0.00000  Uiso   1.00
H355   H     0.35082   0.99942   0.54650   0.00000  Uiso   1.00
H356   H     0.43739   0.09405   0.36005   0.00000  Uiso   1.00
H357   H     0.48319   0.99607   0.90624   0.00000  Uiso   1.00
H358   H     0.28203   0.99979   0.56691   0.00000  Uiso   1.00
H359   H     0.46458   0.19933   0.17375   0.00000  Uiso   1.00
O360   O     0.49943   0.12401   0.06502   0.00000  Uiso   1.00
O361   O     0.23551   0.12890   0.61982   0.00000  Uiso   1.00
O362   O     0.47502   0.39070   0.10401   0.00000  Uiso   1.00
N363   N     0.46827   0.23048   0.95575   0.00000  Uiso   1.00
N364   N     0.28020   0.23395   0.63852   0.00000  Uiso   1.00
N365   N     0.45086   0.42051   0.27094   0.00000  Uiso   1.00
N366   N     0.47538   0.06961   0.90483   0.00000  Uiso   1.00
N367   N     0.28731   0.07308   0.58760   0.00000  Uiso   1.00
N368   N     0.45797   0.25964   0.22002   0.00000  Uiso   1.00
