data_job_02379
_audit_creation_date              2018-12-19
_audit_creation_method            'Materials Studio'
_symmetry_space_group_name_H-M    'P1'
_symmetry_Int_Tables_number       1
_symmetry_cell_setting            triclinic
loop_
_symmetry_equiv_pos_as_xyz
  x,y,z
_cell_length_a                    32.5725
_cell_length_b                    32.5725
_cell_length_c                    7.0008
_cell_angle_alpha                 90.0000
_cell_angle_beta                  90.0000
_cell_angle_gamma                 90.0000
loop_
_atom_site_label
_atom_site_type_symbol
_atom_site_fract_x
_atom_site_fract_y
_atom_site_fract_z
_atom_site_U_iso_or_equiv
_atom_site_adp_type
_atom_site_occupancy
C1     C     0.52769   0.78482   0.32863   0.00000  Uiso   1.00
C2     C     0.56309   0.77204   0.45820   0.00000  Uiso   1.00
C3     C     0.60320   0.76485   0.40029   0.00000  Uiso   1.00
C4     C     0.63106   0.75343   0.54065   0.00000  Uiso   1.00
C5     C     0.68782   0.73419   0.71272   0.00000  Uiso   1.00
C6     C     0.49422   0.75265   0.35681   0.00000  Uiso   1.00
C7     C     0.47642   0.72917   0.21364   0.00000  Uiso   1.00
C8     C     0.44629   0.70142   0.26866   0.00000  Uiso   1.00
C9     C     0.39611   0.65211   0.28330   0.00000  Uiso   1.00
C10    C     0.51080   0.82461   0.41226   0.00000  Uiso   1.00
C11    C     0.50693   0.86162   0.31571   0.00000  Uiso   1.00
C12    C     0.49076   0.89445   0.41740   0.00000  Uiso   1.00
C13    C     0.46632   0.95685   0.51815   0.00000  Uiso   1.00
C14    C     0.50585   0.77731   0.68089   0.00000  Uiso   1.00
C15    C     0.55123   0.76796   0.64953   0.00000  Uiso   1.00
C16    C     0.57903   0.75655   0.79002   0.00000  Uiso   1.00
C17    C     0.61918   0.74934   0.73233   0.00000  Uiso   1.00
C18    C     0.48235   0.74858   0.54814   0.00000  Uiso   1.00
C19    C     0.45225   0.72086   0.60337   0.00000  Uiso   1.00
C20    C     0.43441   0.69734   0.46033   0.00000  Uiso   1.00
C21    C     0.49894   0.82053   0.60360   0.00000  Uiso   1.00
C22    C     0.48277   0.85331   0.70545   0.00000  Uiso   1.00
C23    C     0.47887   0.89036   0.60908   0.00000  Uiso   1.00
H24    H     0.53693   0.78799   0.17966   0.00000  Uiso   1.00
H25    H     0.61237   0.76801   0.25220   0.00000  Uiso   1.00
H26    H     0.48560   0.73233   0.06559   0.00000  Uiso   1.00
H27    H     0.51611   0.86476   0.16765   0.00000  Uiso   1.00
H28    H     0.69077   0.74404   0.41699   0.00000  Uiso   1.00
H29    H     0.42347   0.66883   0.02349   0.00000  Uiso   1.00
H30    H     0.48781   0.94808   0.23870   0.00000  Uiso   1.00
H31    H     0.49661   0.77413   0.82985   0.00000  Uiso   1.00
H32    H     0.56984   0.75339   0.93807   0.00000  Uiso   1.00
H33    H     0.44307   0.71771   0.75145   0.00000  Uiso   1.00
H34    H     0.47359   0.85014   0.85351   0.00000  Uiso   1.00
H35    H     0.65626   0.73218   0.97366   0.00000  Uiso   1.00
H36    H     0.38895   0.65696   0.58016   0.00000  Uiso   1.00
H37    H     0.45329   0.93621   0.79538   0.00000  Uiso   1.00
O38    O     0.72241   0.72470   0.75477   0.00000  Uiso   1.00
O39    O     0.37171   0.62603   0.23851   0.00000  Uiso   1.00
O40    O     0.45613   0.99239   0.52087   0.00000  Uiso   1.00
N41    N     0.67260   0.74410   0.53316   0.00000  Uiso   1.00
N42    N     0.42269   0.67378   0.16526   0.00000  Uiso   1.00
N43    N     0.48283   0.93485   0.36645   0.00000  Uiso   1.00
N44    N     0.65403   0.73772   0.83270   0.00000  Uiso   1.00
N45    N     0.40412   0.66739   0.46481   0.00000  Uiso   1.00
N46    N     0.46426   0.92846   0.66600   0.00000  Uiso   1.00
C47    C     0.47231   0.21518   0.32863   0.00000  Uiso   1.00
C48    C     0.43691   0.22796   0.45820   0.00000  Uiso   1.00
C49    C     0.39680   0.23515   0.40029   0.00000  Uiso   1.00
C50    C     0.36894   0.24657   0.54065   0.00000  Uiso   1.00
C51    C     0.31218   0.26581   0.71272   0.00000  Uiso   1.00
C52    C     0.50578   0.24735   0.35681   0.00000  Uiso   1.00
C53    C     0.52358   0.27083   0.21364   0.00000  Uiso   1.00
C54    C     0.55371   0.29858   0.26866   0.00000  Uiso   1.00
C55    C     0.60389   0.34789   0.28330   0.00000  Uiso   1.00
C56    C     0.48920   0.17539   0.41226   0.00000  Uiso   1.00
C57    C     0.49307   0.13838   0.31571   0.00000  Uiso   1.00
C58    C     0.50924   0.10555   0.41740   0.00000  Uiso   1.00
C59    C     0.53368   0.04315   0.51815   0.00000  Uiso   1.00
C60    C     0.49415   0.22269   0.68089   0.00000  Uiso   1.00
C61    C     0.44877   0.23204   0.64953   0.00000  Uiso   1.00
C62    C     0.42097   0.24345   0.79002   0.00000  Uiso   1.00
C63    C     0.38082   0.25066   0.73233   0.00000  Uiso   1.00
C64    C     0.51765   0.25142   0.54814   0.00000  Uiso   1.00
C65    C     0.54775   0.27914   0.60337   0.00000  Uiso   1.00
C66    C     0.56559   0.30266   0.46033   0.00000  Uiso   1.00
C67    C     0.50106   0.17947   0.60360   0.00000  Uiso   1.00
C68    C     0.51723   0.14669   0.70545   0.00000  Uiso   1.00
C69    C     0.52113   0.10964   0.60908   0.00000  Uiso   1.00
H70    H     0.46307   0.21201   0.17966   0.00000  Uiso   1.00
H71    H     0.38763   0.23199   0.25220   0.00000  Uiso   1.00
H72    H     0.51440   0.26767   0.06559   0.00000  Uiso   1.00
H73    H     0.48389   0.13524   0.16765   0.00000  Uiso   1.00
H74    H     0.30923   0.25596   0.41699   0.00000  Uiso   1.00
H75    H     0.57653   0.33117   0.02349   0.00000  Uiso   1.00
H76    H     0.51219   0.05192   0.23870   0.00000  Uiso   1.00
H77    H     0.50339   0.22587   0.82985   0.00000  Uiso   1.00
H78    H     0.43016   0.24661   0.93807   0.00000  Uiso   1.00
H79    H     0.55693   0.28229   0.75145   0.00000  Uiso   1.00
H80    H     0.52641   0.14986   0.85351   0.00000  Uiso   1.00
H81    H     0.34374   0.26782   0.97366   0.00000  Uiso   1.00
H82    H     0.61105   0.34304   0.58016   0.00000  Uiso   1.00
H83    H     0.54671   0.06379   0.79538   0.00000  Uiso   1.00
O84    O     0.27759   0.27530   0.75477   0.00000  Uiso   1.00
O85    O     0.62829   0.37397   0.23851   0.00000  Uiso   1.00
O86    O     0.54387   0.00761   0.52087   0.00000  Uiso   1.00
N87    N     0.32740   0.25590   0.53316   0.00000  Uiso   1.00
N88    N     0.57731   0.32622   0.16526   0.00000  Uiso   1.00
N89    N     0.51717   0.06515   0.36645   0.00000  Uiso   1.00
N90    N     0.34597   0.26228   0.83270   0.00000  Uiso   1.00
N91    N     0.59588   0.33261   0.46481   0.00000  Uiso   1.00
N92    N     0.53574   0.07154   0.66600   0.00000  Uiso   1.00
C93    C     0.71518   0.02769   0.82863   0.00000  Uiso   1.00
C94    C     0.72796   0.06309   0.95820   0.00000  Uiso   1.00
C95    C     0.73515   0.10320   0.90029   0.00000  Uiso   1.00
C96    C     0.74657   0.13106   0.04065   0.00000  Uiso   1.00
C97    C     0.76581   0.18782   0.21272   0.00000  Uiso   1.00
C98    C     0.74735   0.99422   0.85681   0.00000  Uiso   1.00
C99    C     0.77083   0.97642   0.71364   0.00000  Uiso   1.00
C100   C     0.79858   0.94629   0.76866   0.00000  Uiso   1.00
C101   C     0.84789   0.89611   0.78330   0.00000  Uiso   1.00
C102   C     0.67539   0.01080   0.91226   0.00000  Uiso   1.00
C103   C     0.63838   0.00693   0.81571   0.00000  Uiso   1.00
C104   C     0.60555   0.99076   0.91740   0.00000  Uiso   1.00
C105   C     0.54315   0.96632   0.01815   0.00000  Uiso   1.00
C106   C     0.72269   0.00585   0.18089   0.00000  Uiso   1.00
C107   C     0.73204   0.05123   0.14953   0.00000  Uiso   1.00
C108   C     0.74345   0.07903   0.29002   0.00000  Uiso   1.00
C109   C     0.75066   0.11918   0.23233   0.00000  Uiso   1.00
C110   C     0.75142   0.98235   0.04814   0.00000  Uiso   1.00
C111   C     0.77914   0.95225   0.10337   0.00000  Uiso   1.00
C112   C     0.80266   0.93441   0.96033   0.00000  Uiso   1.00
C113   C     0.67947   0.99894   0.10360   0.00000  Uiso   1.00
C114   C     0.64669   0.98277   0.20545   0.00000  Uiso   1.00
C115   C     0.60964   0.97887   0.10908   0.00000  Uiso   1.00
H116   H     0.71201   0.03693   0.67966   0.00000  Uiso   1.00
H117   H     0.73199   0.11237   0.75220   0.00000  Uiso   1.00
H118   H     0.76767   0.98560   0.56559   0.00000  Uiso   1.00
H119   H     0.63524   0.01611   0.66765   0.00000  Uiso   1.00
H120   H     0.75596   0.19077   0.91699   0.00000  Uiso   1.00
H121   H     0.83117   0.92347   0.52349   0.00000  Uiso   1.00
H122   H     0.55192   0.98781   0.73870   0.00000  Uiso   1.00
H123   H     0.72587   0.99661   0.32985   0.00000  Uiso   1.00
H124   H     0.74661   0.06984   0.43807   0.00000  Uiso   1.00
H125   H     0.78229   0.94307   0.25145   0.00000  Uiso   1.00
H126   H     0.64986   0.97359   0.35351   0.00000  Uiso   1.00
H127   H     0.76782   0.15626   0.47366   0.00000  Uiso   1.00
H128   H     0.84304   0.88895   0.08016   0.00000  Uiso   1.00
H129   H     0.56379   0.95329   0.29538   0.00000  Uiso   1.00
O130   O     0.77530   0.22241   0.25477   0.00000  Uiso   1.00
O131   O     0.87397   0.87171   0.73851   0.00000  Uiso   1.00
O132   O     0.50761   0.95613   0.02087   0.00000  Uiso   1.00
N133   N     0.75590   0.17260   0.03316   0.00000  Uiso   1.00
N134   N     0.82622   0.92269   0.66526   0.00000  Uiso   1.00
N135   N     0.56515   0.98283   0.86645   0.00000  Uiso   1.00
N136   N     0.76228   0.15403   0.33270   0.00000  Uiso   1.00
N137   N     0.83261   0.90412   0.96481   0.00000  Uiso   1.00
N138   N     0.57154   0.96426   0.16600   0.00000  Uiso   1.00
C139   C     0.28482   0.97231   0.82863   0.00000  Uiso   1.00
C140   C     0.27204   0.93691   0.95820   0.00000  Uiso   1.00
C141   C     0.26485   0.89680   0.90029   0.00000  Uiso   1.00
C142   C     0.25343   0.86894   0.04065   0.00000  Uiso   1.00
C143   C     0.23419   0.81218   0.21272   0.00000  Uiso   1.00
C144   C     0.25265   0.00578   0.85681   0.00000  Uiso   1.00
C145   C     0.22917   0.02358   0.71364   0.00000  Uiso   1.00
C146   C     0.20142   0.05371   0.76866   0.00000  Uiso   1.00
C147   C     0.15211   0.10389   0.78330   0.00000  Uiso   1.00
C148   C     0.32461   0.98920   0.91226   0.00000  Uiso   1.00
C149   C     0.36162   0.99307   0.81571   0.00000  Uiso   1.00
C150   C     0.39445   0.00924   0.91740   0.00000  Uiso   1.00
C151   C     0.45685   0.03368   0.01815   0.00000  Uiso   1.00
C152   C     0.27731   0.99415   0.18089   0.00000  Uiso   1.00
C153   C     0.26796   0.94877   0.14953   0.00000  Uiso   1.00
C154   C     0.25655   0.92097   0.29002   0.00000  Uiso   1.00
C155   C     0.24934   0.88082   0.23233   0.00000  Uiso   1.00
C156   C     0.24858   0.01765   0.04814   0.00000  Uiso   1.00
C157   C     0.22086   0.04775   0.10337   0.00000  Uiso   1.00
C158   C     0.19734   0.06559   0.96033   0.00000  Uiso   1.00
C159   C     0.32053   0.00106   0.10360   0.00000  Uiso   1.00
C160   C     0.35331   0.01723   0.20545   0.00000  Uiso   1.00
C161   C     0.39036   0.02113   0.10908   0.00000  Uiso   1.00
H162   H     0.28799   0.96307   0.67966   0.00000  Uiso   1.00
H163   H     0.26801   0.88763   0.75220   0.00000  Uiso   1.00
H164   H     0.23233   0.01440   0.56559   0.00000  Uiso   1.00
H165   H     0.36476   0.98389   0.66765   0.00000  Uiso   1.00
H166   H     0.24404   0.80923   0.91699   0.00000  Uiso   1.00
H167   H     0.16883   0.07653   0.52349   0.00000  Uiso   1.00
H168   H     0.44808   0.01219   0.73870   0.00000  Uiso   1.00
H169   H     0.27413   0.00339   0.32985   0.00000  Uiso   1.00
H170   H     0.25339   0.93016   0.43807   0.00000  Uiso   1.00
H171   H     0.21771   0.05693   0.25145   0.00000  Uiso   1.00
H172   H     0.35014   0.02641   0.35351   0.00000  Uiso   1.00
H173   H     0.23218   0.84374   0.47366   0.00000  Uiso   1.00
H174   H     0.15696   0.11105   0.08016   0.00000  Uiso   1.00
H175   H     0.43621   0.04671   0.29538   0.00000  Uiso   1.00
O176   O     0.22470   0.77759   0.25477   0.00000  Uiso   1.00
O177   O     0.12603   0.12829   0.73851   0.00000  Uiso   1.00
O178   O     0.49239   0.04387   0.02087   0.00000  Uiso   1.00
N179   N     0.24410   0.82740   0.03316   0.00000  Uiso   1.00
N180   N     0.17378   0.07731   0.66526   0.00000  Uiso   1.00
N181   N     0.43485   0.01717   0.86645   0.00000  Uiso   1.00
N182   N     0.23772   0.84597   0.33270   0.00000  Uiso   1.00
N183   N     0.16739   0.09588   0.96481   0.00000  Uiso   1.00
N184   N     0.42846   0.03574   0.16600   0.00000  Uiso   1.00
C185   C     0.97231   0.28482   0.17137   0.00000  Uiso   1.00
C186   C     0.93691   0.27204   0.04180   0.00000  Uiso   1.00
C187   C     0.89680   0.26485   0.09971   0.00000  Uiso   1.00
C188   C     0.86894   0.25343   0.95935   0.00000  Uiso   1.00
C189   C     0.81218   0.23419   0.78728   0.00000  Uiso   1.00
C190   C     0.00578   0.25265   0.14319   0.00000  Uiso   1.00
C191   C     0.02358   0.22917   0.28636   0.00000  Uiso   1.00
C192   C     0.05371   0.20142   0.23134   0.00000  Uiso   1.00
C193   C     0.10389   0.15211   0.21670   0.00000  Uiso   1.00
C194   C     0.98920   0.32461   0.08774   0.00000  Uiso   1.00
C195   C     0.99307   0.36162   0.18429   0.00000  Uiso   1.00
C196   C     0.00924   0.39445   0.08260   0.00000  Uiso   1.00
C197   C     0.03368   0.45685   0.98185   0.00000  Uiso   1.00
C198   C     0.99415   0.27731   0.81911   0.00000  Uiso   1.00
C199   C     0.94877   0.26796   0.85047   0.00000  Uiso   1.00
C200   C     0.92097   0.25655   0.70998   0.00000  Uiso   1.00
C201   C     0.88082   0.24934   0.76767   0.00000  Uiso   1.00
C202   C     0.01765   0.24858   0.95186   0.00000  Uiso   1.00
C203   C     0.04775   0.22086   0.89663   0.00000  Uiso   1.00
C204   C     0.06559   0.19734   0.03967   0.00000  Uiso   1.00
C205   C     0.00106   0.32053   0.89640   0.00000  Uiso   1.00
C206   C     0.01723   0.35331   0.79455   0.00000  Uiso   1.00
C207   C     0.02113   0.39036   0.89092   0.00000  Uiso   1.00
H208   H     0.96307   0.28799   0.32034   0.00000  Uiso   1.00
H209   H     0.88763   0.26801   0.24780   0.00000  Uiso   1.00
H210   H     0.01440   0.23233   0.43441   0.00000  Uiso   1.00
H211   H     0.98389   0.36476   0.33235   0.00000  Uiso   1.00
H212   H     0.80923   0.24404   0.08301   0.00000  Uiso   1.00
H213   H     0.07653   0.16883   0.47651   0.00000  Uiso   1.00
H214   H     0.01219   0.44808   0.26130   0.00000  Uiso   1.00
H215   H     0.00339   0.27413   0.67015   0.00000  Uiso   1.00
H216   H     0.93016   0.25339   0.56193   0.00000  Uiso   1.00
H217   H     0.05693   0.21771   0.74855   0.00000  Uiso   1.00
H218   H     0.02641   0.35014   0.64649   0.00000  Uiso   1.00
H219   H     0.84374   0.23218   0.52634   0.00000  Uiso   1.00
H220   H     0.11105   0.15696   0.91984   0.00000  Uiso   1.00
H221   H     0.04671   0.43621   0.70462   0.00000  Uiso   1.00
O222   O     0.77759   0.22470   0.74523   0.00000  Uiso   1.00
O223   O     0.12829   0.12603   0.26149   0.00000  Uiso   1.00
O224   O     0.04387   0.49239   0.97913   0.00000  Uiso   1.00
N225   N     0.82740   0.24410   0.96684   0.00000  Uiso   1.00
N226   N     0.07731   0.17378   0.33474   0.00000  Uiso   1.00
N227   N     0.01717   0.43485   0.13355   0.00000  Uiso   1.00
N228   N     0.84597   0.23772   0.66730   0.00000  Uiso   1.00
N229   N     0.09588   0.16739   0.03519   0.00000  Uiso   1.00
N230   N     0.03574   0.42846   0.83400   0.00000  Uiso   1.00
C231   C     0.02769   0.71518   0.17137   0.00000  Uiso   1.00
C232   C     0.06309   0.72796   0.04180   0.00000  Uiso   1.00
C233   C     0.10320   0.73515   0.09971   0.00000  Uiso   1.00
C234   C     0.13106   0.74657   0.95935   0.00000  Uiso   1.00
C235   C     0.18782   0.76581   0.78728   0.00000  Uiso   1.00
C236   C     0.99422   0.74735   0.14319   0.00000  Uiso   1.00
C237   C     0.97642   0.77083   0.28636   0.00000  Uiso   1.00
C238   C     0.94629   0.79858   0.23134   0.00000  Uiso   1.00
C239   C     0.89611   0.84789   0.21670   0.00000  Uiso   1.00
C240   C     0.01080   0.67539   0.08774   0.00000  Uiso   1.00
C241   C     0.00693   0.63838   0.18429   0.00000  Uiso   1.00
C242   C     0.99076   0.60555   0.08260   0.00000  Uiso   1.00
C243   C     0.96632   0.54315   0.98185   0.00000  Uiso   1.00
C244   C     0.00585   0.72269   0.81911   0.00000  Uiso   1.00
C245   C     0.05123   0.73204   0.85047   0.00000  Uiso   1.00
C246   C     0.07903   0.74345   0.70998   0.00000  Uiso   1.00
C247   C     0.11918   0.75066   0.76767   0.00000  Uiso   1.00
C248   C     0.98235   0.75142   0.95186   0.00000  Uiso   1.00
C249   C     0.95225   0.77914   0.89663   0.00000  Uiso   1.00
C250   C     0.93441   0.80266   0.03967   0.00000  Uiso   1.00
C251   C     0.99894   0.67947   0.89640   0.00000  Uiso   1.00
C252   C     0.98277   0.64669   0.79455   0.00000  Uiso   1.00
C253   C     0.97887   0.60964   0.89092   0.00000  Uiso   1.00
H254   H     0.03693   0.71201   0.32034   0.00000  Uiso   1.00
H255   H     0.11237   0.73199   0.24780   0.00000  Uiso   1.00
H256   H     0.98560   0.76767   0.43441   0.00000  Uiso   1.00
H257   H     0.01611   0.63524   0.33235   0.00000  Uiso   1.00
H258   H     0.19077   0.75596   0.08301   0.00000  Uiso   1.00
H259   H     0.92347   0.83117   0.47651   0.00000  Uiso   1.00
H260   H     0.98781   0.55192   0.26130   0.00000  Uiso   1.00
H261   H     0.99661   0.72587   0.67015   0.00000  Uiso   1.00
H262   H     0.06984   0.74661   0.56193   0.00000  Uiso   1.00
H263   H     0.94307   0.78229   0.74855   0.00000  Uiso   1.00
H264   H     0.97359   0.64986   0.64649   0.00000  Uiso   1.00
H265   H     0.15626   0.76782   0.52634   0.00000  Uiso   1.00
H266   H     0.88895   0.84304   0.91984   0.00000  Uiso   1.00
H267   H     0.95329   0.56379   0.70462   0.00000  Uiso   1.00
O268   O     0.22241   0.77530   0.74523   0.00000  Uiso   1.00
O269   O     0.87171   0.87397   0.26149   0.00000  Uiso   1.00
O270   O     0.95613   0.50761   0.97913   0.00000  Uiso   1.00
N271   N     0.17260   0.75590   0.96684   0.00000  Uiso   1.00
N272   N     0.92269   0.82622   0.33474   0.00000  Uiso   1.00
N273   N     0.98283   0.56515   0.13355   0.00000  Uiso   1.00
N274   N     0.15403   0.76228   0.66730   0.00000  Uiso   1.00
N275   N     0.90412   0.83261   0.03519   0.00000  Uiso   1.00
N276   N     0.96426   0.57154   0.83400   0.00000  Uiso   1.00
C277   C     0.78482   0.52769   0.67137   0.00000  Uiso   1.00
C278   C     0.77204   0.56309   0.54180   0.00000  Uiso   1.00
C279   C     0.76485   0.60320   0.59971   0.00000  Uiso   1.00
C280   C     0.75343   0.63106   0.45935   0.00000  Uiso   1.00
C281   C     0.73419   0.68782   0.28728   0.00000  Uiso   1.00
C282   C     0.75265   0.49422   0.64319   0.00000  Uiso   1.00
C283   C     0.72917   0.47642   0.78636   0.00000  Uiso   1.00
C284   C     0.70142   0.44629   0.73134   0.00000  Uiso   1.00
C285   C     0.65211   0.39611   0.71670   0.00000  Uiso   1.00
C286   C     0.82461   0.51080   0.58774   0.00000  Uiso   1.00
C287   C     0.86162   0.50693   0.68429   0.00000  Uiso   1.00
C288   C     0.89445   0.49076   0.58260   0.00000  Uiso   1.00
C289   C     0.95685   0.46632   0.48185   0.00000  Uiso   1.00
C290   C     0.77731   0.50585   0.31911   0.00000  Uiso   1.00
C291   C     0.76796   0.55123   0.35047   0.00000  Uiso   1.00
C292   C     0.75655   0.57903   0.20998   0.00000  Uiso   1.00
C293   C     0.74934   0.61918   0.26767   0.00000  Uiso   1.00
C294   C     0.74858   0.48235   0.45186   0.00000  Uiso   1.00
C295   C     0.72086   0.45225   0.39663   0.00000  Uiso   1.00
C296   C     0.69734   0.43441   0.53967   0.00000  Uiso   1.00
C297   C     0.82053   0.49894   0.39640   0.00000  Uiso   1.00
C298   C     0.85331   0.48277   0.29455   0.00000  Uiso   1.00
C299   C     0.89036   0.47887   0.39092   0.00000  Uiso   1.00
H300   H     0.78799   0.53693   0.82034   0.00000  Uiso   1.00
H301   H     0.76801   0.61237   0.74780   0.00000  Uiso   1.00
H302   H     0.73233   0.48560   0.93441   0.00000  Uiso   1.00
H303   H     0.86476   0.51611   0.83235   0.00000  Uiso   1.00
H304   H     0.74404   0.69077   0.58301   0.00000  Uiso   1.00
H305   H     0.66883   0.42347   0.97651   0.00000  Uiso   1.00
H306   H     0.94808   0.48781   0.76130   0.00000  Uiso   1.00
H307   H     0.77413   0.49661   0.17015   0.00000  Uiso   1.00
H308   H     0.75339   0.56984   0.06193   0.00000  Uiso   1.00
H309   H     0.71771   0.44307   0.24855   0.00000  Uiso   1.00
H310   H     0.85014   0.47359   0.14649   0.00000  Uiso   1.00
H311   H     0.73218   0.65626   0.02634   0.00000  Uiso   1.00
H312   H     0.65696   0.38895   0.41984   0.00000  Uiso   1.00
H313   H     0.93621   0.45329   0.20462   0.00000  Uiso   1.00
O314   O     0.72470   0.72241   0.24523   0.00000  Uiso   1.00
O315   O     0.62603   0.37171   0.76149   0.00000  Uiso   1.00
O316   O     0.99239   0.45613   0.47913   0.00000  Uiso   1.00
N317   N     0.74410   0.67260   0.46684   0.00000  Uiso   1.00
N318   N     0.67378   0.42269   0.83474   0.00000  Uiso   1.00
N319   N     0.93485   0.48283   0.63355   0.00000  Uiso   1.00
N320   N     0.73772   0.65403   0.16730   0.00000  Uiso   1.00
N321   N     0.66739   0.40412   0.53519   0.00000  Uiso   1.00
N322   N     0.92846   0.46426   0.33400   0.00000  Uiso   1.00
C323   C     0.21518   0.47231   0.67137   0.00000  Uiso   1.00
C324   C     0.22796   0.43691   0.54180   0.00000  Uiso   1.00
C325   C     0.23515   0.39680   0.59971   0.00000  Uiso   1.00
C326   C     0.24657   0.36894   0.45935   0.00000  Uiso   1.00
C327   C     0.26581   0.31218   0.28728   0.00000  Uiso   1.00
C328   C     0.24735   0.50578   0.64319   0.00000  Uiso   1.00
C329   C     0.27083   0.52358   0.78636   0.00000  Uiso   1.00
C330   C     0.29858   0.55371   0.73134   0.00000  Uiso   1.00
C331   C     0.34789   0.60389   0.71670   0.00000  Uiso   1.00
C332   C     0.17539   0.48920   0.58774   0.00000  Uiso   1.00
C333   C     0.13838   0.49307   0.68429   0.00000  Uiso   1.00
C334   C     0.10555   0.50924   0.58260   0.00000  Uiso   1.00
C335   C     0.04315   0.53368   0.48185   0.00000  Uiso   1.00
C336   C     0.22269   0.49415   0.31911   0.00000  Uiso   1.00
C337   C     0.23204   0.44877   0.35047   0.00000  Uiso   1.00
C338   C     0.24345   0.42097   0.20998   0.00000  Uiso   1.00
C339   C     0.25066   0.38082   0.26767   0.00000  Uiso   1.00
C340   C     0.25142   0.51765   0.45186   0.00000  Uiso   1.00
C341   C     0.27914   0.54775   0.39663   0.00000  Uiso   1.00
C342   C     0.30266   0.56559   0.53967   0.00000  Uiso   1.00
C343   C     0.17947   0.50106   0.39640   0.00000  Uiso   1.00
C344   C     0.14669   0.51723   0.29455   0.00000  Uiso   1.00
C345   C     0.10964   0.52113   0.39092   0.00000  Uiso   1.00
H346   H     0.21201   0.46307   0.82034   0.00000  Uiso   1.00
H347   H     0.23199   0.38763   0.74780   0.00000  Uiso   1.00
H348   H     0.26767   0.51440   0.93441   0.00000  Uiso   1.00
H349   H     0.13524   0.48389   0.83235   0.00000  Uiso   1.00
H350   H     0.25596   0.30923   0.58301   0.00000  Uiso   1.00
H351   H     0.33117   0.57653   0.97651   0.00000  Uiso   1.00
H352   H     0.05192   0.51219   0.76130   0.00000  Uiso   1.00
H353   H     0.22587   0.50339   0.17015   0.00000  Uiso   1.00
H354   H     0.24661   0.43016   0.06193   0.00000  Uiso   1.00
H355   H     0.28229   0.55693   0.24855   0.00000  Uiso   1.00
H356   H     0.14986   0.52641   0.14649   0.00000  Uiso   1.00
H357   H     0.26782   0.34374   0.02634   0.00000  Uiso   1.00
H358   H     0.34304   0.61105   0.41984   0.00000  Uiso   1.00
H359   H     0.06379   0.54671   0.20462   0.00000  Uiso   1.00
O360   O     0.27530   0.27759   0.24523   0.00000  Uiso   1.00
O361   O     0.37397   0.62829   0.76149   0.00000  Uiso   1.00
O362   O     0.00761   0.54387   0.47913   0.00000  Uiso   1.00
N363   N     0.25590   0.32740   0.46684   0.00000  Uiso   1.00
N364   N     0.32622   0.57731   0.83474   0.00000  Uiso   1.00
N365   N     0.06515   0.51717   0.63355   0.00000  Uiso   1.00
N366   N     0.26228   0.34597   0.16730   0.00000  Uiso   1.00
N367   N     0.33261   0.59588   0.53519   0.00000  Uiso   1.00
N368   N     0.07154   0.53574   0.33400   0.00000  Uiso   1.00
