data_job_06057
_audit_creation_date              2018-12-19
_audit_creation_method            'Materials Studio'
_symmetry_space_group_name_H-M    'P1'
_symmetry_Int_Tables_number       1
_symmetry_cell_setting            triclinic
loop_
_symmetry_equiv_pos_as_xyz
  x,y,z
_cell_length_a                    9.8337
_cell_length_b                    22.0289
_cell_length_c                    22.6034
_cell_angle_alpha                 117.7300
_cell_angle_beta                  79.7485
_cell_angle_gamma                 85.7113
loop_
_atom_site_label
_atom_site_type_symbol
_atom_site_fract_x
_atom_site_fract_y
_atom_site_fract_z
_atom_site_U_iso_or_equiv
_atom_site_adp_type
_atom_site_occupancy
C1     C     0.23462   0.39511   0.21735   0.00000  Uiso   1.00
C2     C     0.31586   0.38314   0.26364   0.00000  Uiso   1.00
C3     C     0.30220   0.42860   0.33307   0.00000  Uiso   1.00
C4     C     0.38597   0.40812   0.36632   0.00000  Uiso   1.00
C5     C     0.49786   0.39923   0.44351   0.00000  Uiso   1.00
C6     C     0.34493   0.38925   0.15734   0.00000  Uiso   1.00
C7     C     0.35570   0.43986   0.13739   0.00000  Uiso   1.00
C8     C     0.46393   0.42451   0.08115   0.00000  Uiso   1.00
C9     C     0.62088   0.42510   0.99328   0.00000  Uiso   1.00
C10    C     0.16170   0.33261   0.18693   0.00000  Uiso   1.00
C11    C     0.01840   0.33558   0.19183   0.00000  Uiso   1.00
C12    C     0.97237   0.27254   0.16049   0.00000  Uiso   1.00
C13    C     0.84482   0.18517   0.11855   0.00000  Uiso   1.00
C14    C     0.40768   0.27787   0.15295   0.00000  Uiso   1.00
C15    C     0.40986   0.31945   0.22866   0.00000  Uiso   1.00
C16    C     0.49367   0.29889   0.26182   0.00000  Uiso   1.00
C17    C     0.48014   0.34432   0.33128   0.00000  Uiso   1.00
C18    C     0.43893   0.32557   0.12236   0.00000  Uiso   1.00
C19    C     0.54716   0.31015   0.06614   0.00000  Uiso   1.00
C20    C     0.55810   0.36072   0.04611   0.00000  Uiso   1.00
C21    C     0.25569   0.26892   0.15195   0.00000  Uiso   1.00
C22    C     0.20987   0.20587   0.12058   0.00000  Uiso   1.00
C23    C     0.06654   0.20875   0.12544   0.00000  Uiso   1.00
H24    H     0.16145   0.44469   0.24458   0.00000  Uiso   1.00
H25    H     0.22945   0.47789   0.36012   0.00000  Uiso   1.00
H26    H     0.28293   0.48913   0.16447   0.00000  Uiso   1.00
H27    H     0.94569   0.38487   0.21890   0.00000  Uiso   1.00
H28    H     0.34634   0.48662   0.47278   0.00000  Uiso   1.00
H29    H     0.45907   0.51032   0.06023   0.00000  Uiso   1.00
H30    H     0.74793   0.29047   0.17502   0.00000  Uiso   1.00
H31    H     0.48087   0.22829   0.12571   0.00000  Uiso   1.00
H32    H     0.56640   0.24961   0.23473   0.00000  Uiso   1.00
H33    H     0.61988   0.26086   0.03908   0.00000  Uiso   1.00
H34    H     0.28264   0.15660   0.09352   0.00000  Uiso   1.00
H35    H     0.61983   0.30134   0.37101   0.00000  Uiso   1.00
H36    H     0.73255   0.32505   0.95845   0.00000  Uiso   1.00
H37    H     0.02142   0.10519   0.07325   0.00000  Uiso   1.00
O38    O     0.53362   0.41192   0.49575   0.00000  Uiso   1.00
O39    O     0.68150   0.44302   0.95449   0.00000  Uiso   1.00
O40    O     0.74850   0.15457   0.10509   0.00000  Uiso   1.00
N41    N     0.39895   0.44008   0.43387   0.00000  Uiso   1.00
N42    N     0.50436   0.46225   0.04816   0.00000  Uiso   1.00
N43    N     0.83950   0.25670   0.15547   0.00000  Uiso   1.00
N44    N     0.54611   0.34038   0.37911   0.00000  Uiso   1.00
N45    N     0.65152   0.36255   0.99340   0.00000  Uiso   1.00
N46    N     0.98666   0.15701   0.10071   0.00000  Uiso   1.00
C47    C     0.44974   0.78137   0.17752   0.00000  Uiso   1.00
C48    C     0.57790   0.73713   0.11851   0.00000  Uiso   1.00
C49    C     0.62903   0.66723   0.09435   0.00000  Uiso   1.00
C50    C     0.74756   0.63611   0.03991   0.00000  Uiso   1.00
C51    C     0.93673   0.56172   0.95276   0.00000  Uiso   1.00
C52    C     0.50123   0.84357   0.22928   0.00000  Uiso   1.00
C53    C     0.48786   0.86317   0.29825   0.00000  Uiso   1.00
C54    C     0.54183   0.92167   0.33706   0.00000  Uiso   1.00
C55    C     0.61186   0.01256   0.42188   0.00000  Uiso   1.00
C56    C     0.35205   0.81073   0.14796   0.00000  Uiso   1.00
C57    C     0.21323   0.80273   0.14857   0.00000  Uiso   1.00
C58    C     0.14159   0.83360   0.11892   0.00000  Uiso   1.00
C59    C     0.98000   0.87350   0.07748   0.00000  Uiso   1.00
C60    C     0.56932   0.85041   0.12381   0.00000  Uiso   1.00
C61    C     0.64286   0.77463   0.08934   0.00000  Uiso   1.00
C62    C     0.76134   0.74362   0.03493   0.00000  Uiso   1.00
C63    C     0.81264   0.67368   0.01069   0.00000  Uiso   1.00
C64    C     0.56618   0.88107   0.20011   0.00000  Uiso   1.00
C65    C     0.62017   0.93956   0.23883   0.00000  Uiso   1.00
C66    C     0.60690   0.95924   0.30784   0.00000  Uiso   1.00
C67    C     0.41700   0.84823   0.11878   0.00000  Uiso   1.00
C68    C     0.34555   0.87912   0.08914   0.00000  Uiso   1.00
C69    C     0.20666   0.87117   0.08970   0.00000  Uiso   1.00
H70    H     0.39917   0.75218   0.20023   0.00000  Uiso   1.00
H71    H     0.57874   0.63823   0.11694   0.00000  Uiso   1.00
H72    H     0.43758   0.83414   0.32081   0.00000  Uiso   1.00
H73    H     0.16300   0.77371   0.17114   0.00000  Uiso   1.00
H74    H     0.80650   0.52843   0.01175   0.00000  Uiso   1.00
H75    H     0.50882   0.94155   0.44162   0.00000  Uiso   1.00
H76    H     0.92981   0.81412   0.12603   0.00000  Uiso   1.00
H77    H     0.61990   0.87961   0.10110   0.00000  Uiso   1.00
H78    H     0.81159   0.77265   0.01237   0.00000  Uiso   1.00
H79    H     0.67042   0.96857   0.21624   0.00000  Uiso   1.00
H80    H     0.39585   0.90814   0.06657   0.00000  Uiso   1.00
H81    H     0.99550   0.63754   0.92688   0.00000  Uiso   1.00
H82    H     0.69780   0.05065   0.35675   0.00000  Uiso   1.00
H83    H     0.11881   0.92322   0.04115   0.00000  Uiso   1.00
O84    O     0.02314   0.51033   0.91275   0.00000  Uiso   1.00
O85    O     0.63256   0.05233   0.47672   0.00000  Uiso   1.00
O86    O     0.87293   0.88514   0.06267   0.00000  Uiso   1.00
N87    N     0.82466   0.56879   0.00395   0.00000  Uiso   1.00
N88    N     0.54636   0.95502   0.40585   0.00000  Uiso   1.00
N89    N     0.00503   0.83590   0.11081   0.00000  Uiso   1.00
N90    N     0.92635   0.62749   0.95827   0.00000  Uiso   1.00
N91    N     0.64805   0.01373   0.36018   0.00000  Uiso   1.00
N92    N     0.10672   0.89460   0.06514   0.00000  Uiso   1.00
C93    C     0.62487   0.82093   0.60501   0.00000  Uiso   1.00
C94    C     0.69856   0.88290   0.61800   0.00000  Uiso   1.00
C95    C     0.73186   0.90877   0.57281   0.00000  Uiso   1.00
C96    C     0.79928   0.96585   0.59426   0.00000  Uiso   1.00
C97    C     0.90876   0.05747   0.60463   0.00000  Uiso   1.00
C98    C     0.72226   0.76986   0.61351   0.00000  Uiso   1.00
C99    C     0.77547   0.70068   0.56454   0.00000  Uiso   1.00
C100   C     0.86284   0.66260   0.58222   0.00000  Uiso   1.00
C101   C     0.00903   0.57871   0.58563   0.00000  Uiso   1.00
C102   C     0.49530   0.84798   0.66469   0.00000  Uiso   1.00
C103   C     0.35767   0.84447   0.65877   0.00000  Uiso   1.00
C104   C     0.25395   0.87215   0.71954   0.00000  Uiso   1.00
C105   C     0.04775   0.90955   0.80243   0.00000  Uiso   1.00
C106   C     0.68540   0.87631   0.72346   0.00000  Uiso   1.00
C107   C     0.73144   0.91298   0.68234   0.00000  Uiso   1.00
C108   C     0.79883   0.97003   0.70386   0.00000  Uiso   1.00
C109   C     0.83221   0.99598   0.65872   0.00000  Uiso   1.00
C110   C     0.75514   0.79993   0.67784   0.00000  Uiso   1.00
C111   C     0.84244   0.76194   0.69560   0.00000  Uiso   1.00
C112   C     0.89578   0.69273   0.64667   0.00000  Uiso   1.00
C113   C     0.52817   0.87806   0.72903   0.00000  Uiso   1.00
C114   C     0.42465   0.90574   0.78983   0.00000  Uiso   1.00
C115   C     0.28689   0.90228   0.78399   0.00000  Uiso   1.00
H116   H     0.59928   0.79751   0.55492   0.00000  Uiso   1.00
H117   H     0.70641   0.88547   0.52302   0.00000  Uiso   1.00
H118   H     0.75000   0.67742   0.51476   0.00000  Uiso   1.00
H119   H     0.33227   0.82119   0.60897   0.00000  Uiso   1.00
H120   H     0.83972   0.99625   0.51602   0.00000  Uiso   1.00
H121   H     0.93160   0.55753   0.49861   0.00000  Uiso   1.00
H122   H     0.05073   0.86071   0.69727   0.00000  Uiso   1.00
H123   H     0.71100   0.89972   0.77356   0.00000  Uiso   1.00
H124   H     0.82426   0.99330   0.75366   0.00000  Uiso   1.00
H125   H     0.86785   0.78523   0.74540   0.00000  Uiso   1.00
H126   H     0.45012   0.92901   0.83961   0.00000  Uiso   1.00
H127   H     0.93538   0.08376   0.70321   0.00000  Uiso   1.00
H128   H     0.02726   0.64504   0.68581   0.00000  Uiso   1.00
H129   H     0.14639   0.94822   0.88447   0.00000  Uiso   1.00
O130   O     0.96007   0.09970   0.59257   0.00000  Uiso   1.00
O131   O     0.08060   0.52412   0.56974   0.00000  Uiso   1.00
O132   O     0.92492   0.92188   0.83037   0.00000  Uiso   1.00
N133   N     0.84666   0.00401   0.56281   0.00000  Uiso   1.00
N134   N     0.93259   0.59384   0.54653   0.00000  Uiso   1.00
N135   N     0.10905   0.87727   0.73226   0.00000  Uiso   1.00
N136   N     0.89813   0.05110   0.66354   0.00000  Uiso   1.00
N137   N     0.98406   0.64093   0.64726   0.00000  Uiso   1.00
N138   N     0.16052   0.92436   0.83299   0.00000  Uiso   1.00
C139   C     0.76537   0.60489   0.78265   0.00000  Uiso   1.00
C140   C     0.68414   0.61686   0.73636   0.00000  Uiso   1.00
C141   C     0.69780   0.57140   0.66693   0.00000  Uiso   1.00
C142   C     0.61403   0.59188   0.63368   0.00000  Uiso   1.00
C143   C     0.50214   0.60077   0.55649   0.00000  Uiso   1.00
C144   C     0.65507   0.61075   0.84266   0.00000  Uiso   1.00
C145   C     0.64431   0.56014   0.86261   0.00000  Uiso   1.00
C146   C     0.53607   0.57549   0.91885   0.00000  Uiso   1.00
C147   C     0.37912   0.57490   0.00672   0.00000  Uiso   1.00
C148   C     0.83830   0.66739   0.81307   0.00000  Uiso   1.00
C149   C     0.98160   0.66442   0.80817   0.00000  Uiso   1.00
C150   C     0.02763   0.72746   0.83951   0.00000  Uiso   1.00
C151   C     0.15518   0.81483   0.88145   0.00000  Uiso   1.00
C152   C     0.59232   0.72213   0.84705   0.00000  Uiso   1.00
C153   C     0.59014   0.68055   0.77134   0.00000  Uiso   1.00
C154   C     0.50633   0.70111   0.73818   0.00000  Uiso   1.00
C155   C     0.51986   0.65568   0.66872   0.00000  Uiso   1.00
C156   C     0.56107   0.67443   0.87764   0.00000  Uiso   1.00
C157   C     0.45284   0.68985   0.93386   0.00000  Uiso   1.00
C158   C     0.44190   0.63928   0.95389   0.00000  Uiso   1.00
C159   C     0.74431   0.73108   0.84805   0.00000  Uiso   1.00
C160   C     0.79013   0.79413   0.87942   0.00000  Uiso   1.00
C161   C     0.93346   0.79125   0.87456   0.00000  Uiso   1.00
H162   H     0.83855   0.55531   0.75542   0.00000  Uiso   1.00
H163   H     0.77055   0.52211   0.63988   0.00000  Uiso   1.00
H164   H     0.71707   0.51087   0.83553   0.00000  Uiso   1.00
H165   H     0.05431   0.61513   0.78110   0.00000  Uiso   1.00
H166   H     0.65366   0.51338   0.52722   0.00000  Uiso   1.00
H167   H     0.54093   0.48968   0.93977   0.00000  Uiso   1.00
H168   H     0.25207   0.70953   0.82498   0.00000  Uiso   1.00
H169   H     0.51913   0.77171   0.87429   0.00000  Uiso   1.00
H170   H     0.43360   0.75039   0.76527   0.00000  Uiso   1.00
H171   H     0.38012   0.73914   0.96092   0.00000  Uiso   1.00
H172   H     0.71736   0.84340   0.90648   0.00000  Uiso   1.00
H173   H     0.38017   0.69866   0.62899   0.00000  Uiso   1.00
H174   H     0.26745   0.67495   0.04155   0.00000  Uiso   1.00
H175   H     0.97858   0.89481   0.92675   0.00000  Uiso   1.00
O176   O     0.46638   0.58808   0.50425   0.00000  Uiso   1.00
O177   O     0.31850   0.55698   0.04551   0.00000  Uiso   1.00
O178   O     0.25150   0.84543   0.89491   0.00000  Uiso   1.00
N179   N     0.60105   0.55992   0.56613   0.00000  Uiso   1.00
N180   N     0.49564   0.53775   0.95184   0.00000  Uiso   1.00
N181   N     0.16050   0.74330   0.84453   0.00000  Uiso   1.00
N182   N     0.45389   0.65962   0.62089   0.00000  Uiso   1.00
N183   N     0.34848   0.63745   0.00660   0.00000  Uiso   1.00
N184   N     0.01334   0.84299   0.89929   0.00000  Uiso   1.00
C185   C     0.55026   0.21863   0.82248   0.00000  Uiso   1.00
C186   C     0.42210   0.26287   0.88149   0.00000  Uiso   1.00
C187   C     0.37097   0.33277   0.90565   0.00000  Uiso   1.00
C188   C     0.25244   0.36389   0.96009   0.00000  Uiso   1.00
C189   C     0.06327   0.43828   0.04724   0.00000  Uiso   1.00
C190   C     0.49877   0.15643   0.77072   0.00000  Uiso   1.00
C191   C     0.51214   0.13683   0.70175   0.00000  Uiso   1.00
C192   C     0.45817   0.07833   0.66294   0.00000  Uiso   1.00
C193   C     0.38814   0.98744   0.57812   0.00000  Uiso   1.00
C194   C     0.64795   0.18927   0.85204   0.00000  Uiso   1.00
C195   C     0.78677   0.19727   0.85143   0.00000  Uiso   1.00
C196   C     0.85841   0.16640   0.88108   0.00000  Uiso   1.00
C197   C     0.02000   0.12650   0.92252   0.00000  Uiso   1.00
C198   C     0.43068   0.14959   0.87619   0.00000  Uiso   1.00
C199   C     0.35714   0.22537   0.91066   0.00000  Uiso   1.00
C200   C     0.23866   0.25638   0.96507   0.00000  Uiso   1.00
C201   C     0.18736   0.32632   0.98931   0.00000  Uiso   1.00
C202   C     0.43382   0.11893   0.79989   0.00000  Uiso   1.00
C203   C     0.37983   0.06044   0.76117   0.00000  Uiso   1.00
C204   C     0.39310   0.04076   0.69216   0.00000  Uiso   1.00
C205   C     0.58300   0.15177   0.88122   0.00000  Uiso   1.00
C206   C     0.65445   0.12088   0.91086   0.00000  Uiso   1.00
C207   C     0.79333   0.12883   0.91030   0.00000  Uiso   1.00
H208   H     0.60083   0.24782   0.79977   0.00000  Uiso   1.00
H209   H     0.42126   0.36177   0.88306   0.00000  Uiso   1.00
H210   H     0.56242   0.16586   0.67919   0.00000  Uiso   1.00
H211   H     0.83700   0.22629   0.82886   0.00000  Uiso   1.00
H212   H     0.19349   0.47157   0.98825   0.00000  Uiso   1.00
H213   H     0.49118   0.05845   0.55838   0.00000  Uiso   1.00
H214   H     0.07019   0.18588   0.87397   0.00000  Uiso   1.00
H215   H     0.38010   0.12039   0.89890   0.00000  Uiso   1.00
H216   H     0.18841   0.22735   0.98763   0.00000  Uiso   1.00
H217   H     0.32958   0.03143   0.78376   0.00000  Uiso   1.00
H218   H     0.60415   0.09186   0.93343   0.00000  Uiso   1.00
H219   H     0.00450   0.36246   0.07312   0.00000  Uiso   1.00
H220   H     0.30220   0.94934   0.64325   0.00000  Uiso   1.00
H221   H     0.88119   0.07678   0.95885   0.00000  Uiso   1.00
O222   O     0.97686   0.48967   0.08725   0.00000  Uiso   1.00
O223   O     0.36744   0.94767   0.52328   0.00000  Uiso   1.00
O224   O     0.12707   0.11486   0.93733   0.00000  Uiso   1.00
N225   N     0.17534   0.43121   0.99605   0.00000  Uiso   1.00
N226   N     0.45364   0.04498   0.59415   0.00000  Uiso   1.00
N227   N     0.99497   0.16410   0.88919   0.00000  Uiso   1.00
N228   N     0.07365   0.37250   0.04173   0.00000  Uiso   1.00
N229   N     0.35195   0.98628   0.63982   0.00000  Uiso   1.00
N230   N     0.89328   0.10540   0.93486   0.00000  Uiso   1.00
C231   C     0.37513   0.17907   0.39499   0.00000  Uiso   1.00
C232   C     0.30144   0.11710   0.38200   0.00000  Uiso   1.00
C233   C     0.26814   0.09123   0.42719   0.00000  Uiso   1.00
C234   C     0.20072   0.03415   0.40574   0.00000  Uiso   1.00
C235   C     0.09124   0.94253   0.39537   0.00000  Uiso   1.00
C236   C     0.27774   0.23014   0.38649   0.00000  Uiso   1.00
C237   C     0.22453   0.29932   0.43546   0.00000  Uiso   1.00
C238   C     0.13716   0.33740   0.41778   0.00000  Uiso   1.00
C239   C     0.99097   0.42129   0.41437   0.00000  Uiso   1.00
C240   C     0.50470   0.15202   0.33531   0.00000  Uiso   1.00
C241   C     0.64233   0.15553   0.34123   0.00000  Uiso   1.00
C242   C     0.74605   0.12785   0.28046   0.00000  Uiso   1.00
C243   C     0.95225   0.09045   0.19757   0.00000  Uiso   1.00
C244   C     0.31460   0.12369   0.27654   0.00000  Uiso   1.00
C245   C     0.26856   0.08702   0.31766   0.00000  Uiso   1.00
C246   C     0.20117   0.02997   0.29613   0.00000  Uiso   1.00
C247   C     0.16778   0.00402   0.34128   0.00000  Uiso   1.00
C248   C     0.24486   0.20007   0.32216   0.00000  Uiso   1.00
C249   C     0.15756   0.23806   0.30440   0.00000  Uiso   1.00
C250   C     0.10422   0.30727   0.35333   0.00000  Uiso   1.00
C251   C     0.47183   0.12194   0.27097   0.00000  Uiso   1.00
C252   C     0.57535   0.09426   0.21018   0.00000  Uiso   1.00
C253   C     0.71311   0.09772   0.21601   0.00000  Uiso   1.00
H254   H     0.40072   0.20249   0.44508   0.00000  Uiso   1.00
H255   H     0.29359   0.11453   0.47698   0.00000  Uiso   1.00
H256   H     0.25000   0.32258   0.48524   0.00000  Uiso   1.00
H257   H     0.66773   0.17881   0.39103   0.00000  Uiso   1.00
H258   H     0.16028   0.00375   0.48399   0.00000  Uiso   1.00
H259   H     0.06840   0.44247   0.50139   0.00000  Uiso   1.00
H260   H     0.94927   0.13929   0.30273   0.00000  Uiso   1.00
H261   H     0.28900   0.10028   0.22644   0.00000  Uiso   1.00
H262   H     0.17574   0.00670   0.24634   0.00000  Uiso   1.00
H263   H     0.13215   0.21477   0.25460   0.00000  Uiso   1.00
H264   H     0.54988   0.07099   0.16039   0.00000  Uiso   1.00
H265   H     0.06462   0.91624   0.29679   0.00000  Uiso   1.00
H266   H     0.97274   0.35496   0.31419   0.00000  Uiso   1.00
H267   H     0.85361   0.05178   0.11554   0.00000  Uiso   1.00
O268   O     0.03993   0.90030   0.40743   0.00000  Uiso   1.00
O269   O     0.91940   0.47588   0.43026   0.00000  Uiso   1.00
O270   O     0.07508   0.07812   0.16963   0.00000  Uiso   1.00
N271   N     0.15334   0.99599   0.43719   0.00000  Uiso   1.00
N272   N     0.06741   0.40616   0.45347   0.00000  Uiso   1.00
N273   N     0.89095   0.12273   0.26774   0.00000  Uiso   1.00
N274   N     0.10187   0.94890   0.33646   0.00000  Uiso   1.00
N275   N     0.01594   0.35907   0.35274   0.00000  Uiso   1.00
N276   N     0.83948   0.07564   0.16701   0.00000  Uiso   1.00
