data_job_05006
_audit_creation_date              2018-12-19
_audit_creation_method            'Materials Studio'
_symmetry_space_group_name_H-M    'P1'
_symmetry_Int_Tables_number       1
_symmetry_cell_setting            triclinic
loop_
_symmetry_equiv_pos_as_xyz
  x,y,z
_cell_length_a                    12.5231
_cell_length_b                    17.1327
_cell_length_c                    29.1178
_cell_angle_alpha                 90.0000
_cell_angle_beta                  114.7934
_cell_angle_gamma                 90.0000
loop_
_atom_site_label
_atom_site_type_symbol
_atom_site_fract_x
_atom_site_fract_y
_atom_site_fract_z
_atom_site_U_iso_or_equiv
_atom_site_adp_type
_atom_site_occupancy
C1     C     0.86241   0.97097   0.89030   0.00000  Uiso   1.00
C2     C     0.76004   0.00853   0.89747   0.00000  Uiso   1.00
C3     C     0.73475   0.99904   0.93920   0.00000  Uiso   1.00
C4     C     0.63716   0.03834   0.93854   0.00000  Uiso   1.00
C5     C     0.48877   0.08946   0.95589   0.00000  Uiso   1.00
C6     C     0.80795   0.92584   0.84066   0.00000  Uiso   1.00
C7     C     0.82297   0.84684   0.83463   0.00000  Uiso   1.00
C8     C     0.76572   0.81654   0.78614   0.00000  Uiso   1.00
C9     C     0.69180   0.73930   0.71529   0.00000  Uiso   1.00
C10    C     0.93127   0.03794   0.88111   0.00000  Uiso   1.00
C11    C     0.04998   0.05318   0.90908   0.00000  Uiso   1.00
C12    C     0.09657   0.11725   0.89464   0.00000  Uiso   1.00
C13    C     0.21411   0.21406   0.88659   0.00000  Uiso   1.00
C14    C     0.73406   0.05765   0.81492   0.00000  Uiso   1.00
C15    C     0.69032   0.05560   0.85652   0.00000  Uiso   1.00
C16    C     0.59275   0.09493   0.85580   0.00000  Uiso   1.00
C17    C     0.56732   0.08551   0.89752   0.00000  Uiso   1.00
C18    C     0.73824   0.97292   0.79972   0.00000  Uiso   1.00
C19    C     0.68097   0.94273   0.75123   0.00000  Uiso   1.00
C20    C     0.69588   0.86370   0.74512   0.00000  Uiso   1.00
C21    C     0.86156   0.08502   0.84017   0.00000  Uiso   1.00
C22    C     0.90797   0.14908   0.82568   0.00000  Uiso   1.00
C23    C     0.02673   0.16441   0.85362   0.00000  Uiso   1.00
H24    H     0.91668   0.93432   0.92218   0.00000  Uiso   1.00
H25    H     0.78871   0.96259   0.97088   0.00000  Uiso   1.00
H26    H     0.87693   0.81042   0.86632   0.00000  Uiso   1.00
H27    H     0.10390   0.01674   0.94076   0.00000  Uiso   1.00
H28    H     0.61607   0.01468   0.00681   0.00000  Uiso   1.00
H29    H     0.80211   0.69382   0.78634   0.00000  Uiso   1.00
H30    H     0.28073   0.12887   0.94332   0.00000  Uiso   1.00
H31    H     0.67979   0.09430   0.78304   0.00000  Uiso   1.00
H32    H     0.53882   0.13136   0.82411   0.00000  Uiso   1.00
H33    H     0.62703   0.97918   0.71955   0.00000  Uiso   1.00
H34    H     0.85400   0.18550   0.79399   0.00000  Uiso   1.00
H35    H     0.41324   0.15166   0.88768   0.00000  Uiso   1.00
H36    H     0.59929   0.83079   0.66722   0.00000  Uiso   1.00
H37    H     0.07790   0.26585   0.82419   0.00000  Uiso   1.00
O38    O     0.42618   0.10464   0.97676   0.00000  Uiso   1.00
O39    O     0.67028   0.68369   0.68752   0.00000  Uiso   1.00
O40    O     0.29820   0.25446   0.89347   0.00000  Uiso   1.00
N41    N     0.58769   0.04185   0.97314   0.00000  Uiso   1.00
N42    N     0.76162   0.74186   0.76702   0.00000  Uiso   1.00
N43    N     0.20909   0.14858   0.91377   0.00000  Uiso   1.00
N44    N     0.47856   0.11555   0.90904   0.00000  Uiso   1.00
N45    N     0.65248   0.81556   0.70292   0.00000  Uiso   1.00
N46    N     0.09995   0.22229   0.84967   0.00000  Uiso   1.00
C47    C     0.36376   0.67987   0.39504   0.00000  Uiso   1.00
C48    C     0.26345   0.71861   0.40320   0.00000  Uiso   1.00
C49    C     0.23973   0.70938   0.44536   0.00000  Uiso   1.00
C50    C     0.14390   0.74982   0.44561   0.00000  Uiso   1.00
C51    C     0.99868   0.80266   0.46442   0.00000  Uiso   1.00
C52    C     0.30653   0.63543   0.34523   0.00000  Uiso   1.00
C53    C     0.31906   0.55626   0.33864   0.00000  Uiso   1.00
C54    C     0.25950   0.52669   0.29009   0.00000  Uiso   1.00
C55    C     0.18124   0.45039   0.21889   0.00000  Uiso   1.00
C56    C     0.43356   0.74602   0.38562   0.00000  Uiso   1.00
C57    C     0.55291   0.75984   0.41299   0.00000  Uiso   1.00
C58    C     0.60032   0.82337   0.39843   0.00000  Uiso   1.00
C59    C     0.71929   0.91879   0.38995   0.00000  Uiso   1.00
C60    C     0.23573   0.76810   0.32051   0.00000  Uiso   1.00
C61    C     0.19391   0.76653   0.36271   0.00000  Uiso   1.00
C62    C     0.09809   0.80701   0.36290   0.00000  Uiso   1.00
C63    C     0.07424   0.79784   0.40505   0.00000  Uiso   1.00
C64    C     0.23699   0.68335   0.30474   0.00000  Uiso   1.00
C65    C     0.17741   0.65389   0.25618   0.00000  Uiso   1.00
C66    C     0.18984   0.57470   0.24953   0.00000  Uiso   1.00
C67    C     0.36402   0.79395   0.34514   0.00000  Uiso   1.00
C68    C     0.41126   0.85746   0.33053   0.00000  Uiso   1.00
C69    C     0.53065   0.87138   0.35787   0.00000  Uiso   1.00
H70    H     0.41790   0.64255   0.42656   0.00000  Uiso   1.00
H71    H     0.29356   0.67228   0.47668   0.00000  Uiso   1.00
H72    H     0.37288   0.51919   0.36998   0.00000  Uiso   1.00
H73    H     0.60669   0.72274   0.44431   0.00000  Uiso   1.00
H74    H     0.12503   0.72636   0.51439   0.00000  Uiso   1.00
H75    H     0.29231   0.40356   0.28940   0.00000  Uiso   1.00
H76    H     0.78535   0.83278   0.44615   0.00000  Uiso   1.00
H77    H     0.18159   0.80542   0.28899   0.00000  Uiso   1.00
H78    H     0.04429   0.84409   0.33156   0.00000  Uiso   1.00
H79    H     0.12361   0.69099   0.22486   0.00000  Uiso   1.00
H80    H     0.35742   0.89454   0.29920   0.00000  Uiso   1.00
H81    H     0.92270   0.86580   0.39660   0.00000  Uiso   1.00
H82    H     0.08999   0.54300   0.17162   0.00000  Uiso   1.00
H83    H     0.58302   0.97222   0.32837   0.00000  Uiso   1.00
O84    O     0.93778   0.81856   0.48598   0.00000  Uiso   1.00
O85    O     0.15727   0.39506   0.19081   0.00000  Uiso   1.00
O86    O     0.80412   0.95819   0.39646   0.00000  Uiso   1.00
N87    N     0.09627   0.75388   0.48083   0.00000  Uiso   1.00
N88    N     0.25265   0.45208   0.27048   0.00000  Uiso   1.00
N89    N     0.71361   0.85335   0.41702   0.00000  Uiso   1.00
N90    N     0.98740   0.82891   0.41745   0.00000  Uiso   1.00
N91    N     0.14378   0.52711   0.20710   0.00000  Uiso   1.00
N92    N     0.60474   0.92838   0.35364   0.00000  Uiso   1.00
C93    C     0.13759   0.47097   0.60970   0.00000  Uiso   1.00
C94    C     0.23996   0.50853   0.60253   0.00000  Uiso   1.00
C95    C     0.26525   0.49904   0.56080   0.00000  Uiso   1.00
C96    C     0.36284   0.53834   0.56146   0.00000  Uiso   1.00
C97    C     0.51123   0.58946   0.54411   0.00000  Uiso   1.00
C98    C     0.19205   0.42584   0.65934   0.00000  Uiso   1.00
C99    C     0.17703   0.34684   0.66537   0.00000  Uiso   1.00
C100   C     0.23428   0.31654   0.71386   0.00000  Uiso   1.00
C101   C     0.30820   0.23930   0.78471   0.00000  Uiso   1.00
C102   C     0.06873   0.53794   0.61889   0.00000  Uiso   1.00
C103   C     0.95002   0.55318   0.59092   0.00000  Uiso   1.00
C104   C     0.90343   0.61725   0.60536   0.00000  Uiso   1.00
C105   C     0.78589   0.71406   0.61341   0.00000  Uiso   1.00
C106   C     0.26594   0.55765   0.68508   0.00000  Uiso   1.00
C107   C     0.30968   0.55560   0.64348   0.00000  Uiso   1.00
C108   C     0.40725   0.59493   0.64420   0.00000  Uiso   1.00
C109   C     0.43268   0.58551   0.60248   0.00000  Uiso   1.00
C110   C     0.26176   0.47292   0.70028   0.00000  Uiso   1.00
C111   C     0.31903   0.44273   0.74877   0.00000  Uiso   1.00
C112   C     0.30412   0.36370   0.75488   0.00000  Uiso   1.00
C113   C     0.13844   0.58502   0.65983   0.00000  Uiso   1.00
C114   C     0.09203   0.64908   0.67432   0.00000  Uiso   1.00
C115   C     0.97327   0.66441   0.64638   0.00000  Uiso   1.00
H116   H     0.08332   0.43432   0.57782   0.00000  Uiso   1.00
H117   H     0.21129   0.46259   0.52912   0.00000  Uiso   1.00
H118   H     0.12307   0.31042   0.63368   0.00000  Uiso   1.00
H119   H     0.89610   0.51674   0.55924   0.00000  Uiso   1.00
H120   H     0.38393   0.51468   0.49319   0.00000  Uiso   1.00
H121   H     0.19789   0.19382   0.71366   0.00000  Uiso   1.00
H122   H     0.71927   0.62887   0.55668   0.00000  Uiso   1.00
H123   H     0.32021   0.59430   0.71696   0.00000  Uiso   1.00
H124   H     0.46118   0.63136   0.67589   0.00000  Uiso   1.00
H125   H     0.37297   0.47918   0.78045   0.00000  Uiso   1.00
H126   H     0.14600   0.68550   0.70601   0.00000  Uiso   1.00
H127   H     0.58676   0.65166   0.61232   0.00000  Uiso   1.00
H128   H     0.40071   0.33079   0.83278   0.00000  Uiso   1.00
H129   H     0.92210   0.76585   0.67581   0.00000  Uiso   1.00
O130   O     0.57382   0.60464   0.52324   0.00000  Uiso   1.00
O131   O     0.32972   0.18369   0.81248   0.00000  Uiso   1.00
O132   O     0.70180   0.75446   0.60653   0.00000  Uiso   1.00
N133   N     0.41231   0.54185   0.52686   0.00000  Uiso   1.00
N134   N     0.23838   0.24186   0.73298   0.00000  Uiso   1.00
N135   N     0.79091   0.64858   0.58623   0.00000  Uiso   1.00
N136   N     0.52144   0.61555   0.59096   0.00000  Uiso   1.00
N137   N     0.34752   0.31556   0.79708   0.00000  Uiso   1.00
N138   N     0.90005   0.72229   0.65033   0.00000  Uiso   1.00
C139   C     0.63624   0.17987   0.10496   0.00000  Uiso   1.00
C140   C     0.73655   0.21861   0.09680   0.00000  Uiso   1.00
C141   C     0.76027   0.20938   0.05464   0.00000  Uiso   1.00
C142   C     0.85610   0.24982   0.05439   0.00000  Uiso   1.00
C143   C     0.00132   0.30266   0.03558   0.00000  Uiso   1.00
C144   C     0.69347   0.13543   0.15477   0.00000  Uiso   1.00
C145   C     0.68094   0.05626   0.16136   0.00000  Uiso   1.00
C146   C     0.74050   0.02669   0.20991   0.00000  Uiso   1.00
C147   C     0.81876   0.95039   0.28111   0.00000  Uiso   1.00
C148   C     0.56644   0.24602   0.11438   0.00000  Uiso   1.00
C149   C     0.44709   0.25984   0.08701   0.00000  Uiso   1.00
C150   C     0.39968   0.32337   0.10157   0.00000  Uiso   1.00
C151   C     0.28071   0.41879   0.11005   0.00000  Uiso   1.00
C152   C     0.76427   0.26810   0.17949   0.00000  Uiso   1.00
C153   C     0.80609   0.26653   0.13729   0.00000  Uiso   1.00
C154   C     0.90191   0.30701   0.13710   0.00000  Uiso   1.00
C155   C     0.92576   0.29784   0.09495   0.00000  Uiso   1.00
C156   C     0.76301   0.18335   0.19526   0.00000  Uiso   1.00
C157   C     0.82259   0.15389   0.24382   0.00000  Uiso   1.00
C158   C     0.81016   0.07470   0.25047   0.00000  Uiso   1.00
C159   C     0.63598   0.29395   0.15486   0.00000  Uiso   1.00
C160   C     0.58874   0.35746   0.16947   0.00000  Uiso   1.00
C161   C     0.46935   0.37138   0.14213   0.00000  Uiso   1.00
H162   H     0.58210   0.14255   0.07344   0.00000  Uiso   1.00
H163   H     0.70644   0.17228   0.02332   0.00000  Uiso   1.00
H164   H     0.62712   0.01919   0.13002   0.00000  Uiso   1.00
H165   H     0.39331   0.22274   0.05569   0.00000  Uiso   1.00
H166   H     0.87497   0.22636   0.98561   0.00000  Uiso   1.00
H167   H     0.70769   0.90356   0.21060   0.00000  Uiso   1.00
H168   H     0.21465   0.33278   0.05385   0.00000  Uiso   1.00
H169   H     0.81841   0.30542   0.21101   0.00000  Uiso   1.00
H170   H     0.95571   0.34409   0.16844   0.00000  Uiso   1.00
H171   H     0.87639   0.19099   0.27514   0.00000  Uiso   1.00
H172   H     0.64258   0.39454   0.20080   0.00000  Uiso   1.00
H173   H     0.07730   0.36580   0.10340   0.00000  Uiso   1.00
H174   H     0.91001   0.04300   0.32838   0.00000  Uiso   1.00
H175   H     0.41698   0.47222   0.17163   0.00000  Uiso   1.00
O176   O     0.06222   0.31856   0.01402   0.00000  Uiso   1.00
O177   O     0.84273   0.89506   0.30919   0.00000  Uiso   1.00
O178   O     0.19588   0.45819   0.10354   0.00000  Uiso   1.00
N179   N     0.90373   0.25388   0.01917   0.00000  Uiso   1.00
N180   N     0.74735   0.95208   0.22952   0.00000  Uiso   1.00
N181   N     0.28639   0.35335   0.08298   0.00000  Uiso   1.00
N182   N     0.01260   0.32891   0.08255   0.00000  Uiso   1.00
N183   N     0.85622   0.02711   0.29290   0.00000  Uiso   1.00
N184   N     0.39526   0.42838   0.14636   0.00000  Uiso   1.00
C185   C     0.13759   0.02903   0.10970   0.00000  Uiso   1.00
C186   C     0.23996   0.99147   0.10253   0.00000  Uiso   1.00
C187   C     0.26525   0.00096   0.06080   0.00000  Uiso   1.00
C188   C     0.36284   0.96166   0.06146   0.00000  Uiso   1.00
C189   C     0.51123   0.91054   0.04411   0.00000  Uiso   1.00
C190   C     0.19205   0.07416   0.15934   0.00000  Uiso   1.00
C191   C     0.17703   0.15316   0.16537   0.00000  Uiso   1.00
C192   C     0.23428   0.18346   0.21386   0.00000  Uiso   1.00
C193   C     0.30820   0.26070   0.28471   0.00000  Uiso   1.00
C194   C     0.06873   0.96206   0.11889   0.00000  Uiso   1.00
C195   C     0.95002   0.94682   0.09092   0.00000  Uiso   1.00
C196   C     0.90343   0.88275   0.10536   0.00000  Uiso   1.00
C197   C     0.78589   0.78594   0.11341   0.00000  Uiso   1.00
C198   C     0.26594   0.94235   0.18508   0.00000  Uiso   1.00
C199   C     0.30968   0.94440   0.14348   0.00000  Uiso   1.00
C200   C     0.40725   0.90507   0.14420   0.00000  Uiso   1.00
C201   C     0.43268   0.91449   0.10248   0.00000  Uiso   1.00
C202   C     0.26176   0.02708   0.20028   0.00000  Uiso   1.00
C203   C     0.31903   0.05727   0.24877   0.00000  Uiso   1.00
C204   C     0.30412   0.13630   0.25488   0.00000  Uiso   1.00
C205   C     0.13844   0.91498   0.15983   0.00000  Uiso   1.00
C206   C     0.09203   0.85092   0.17432   0.00000  Uiso   1.00
C207   C     0.97327   0.83559   0.14638   0.00000  Uiso   1.00
H208   H     0.08332   0.06568   0.07782   0.00000  Uiso   1.00
H209   H     0.21129   0.03741   0.02912   0.00000  Uiso   1.00
H210   H     0.12307   0.18958   0.13368   0.00000  Uiso   1.00
H211   H     0.89610   0.98326   0.05924   0.00000  Uiso   1.00
H212   H     0.38393   0.98532   0.99319   0.00000  Uiso   1.00
H213   H     0.19789   0.30618   0.21366   0.00000  Uiso   1.00
H214   H     0.71927   0.87113   0.05668   0.00000  Uiso   1.00
H215   H     0.32021   0.90570   0.21696   0.00000  Uiso   1.00
H216   H     0.46118   0.86864   0.17589   0.00000  Uiso   1.00
H217   H     0.37297   0.02082   0.28045   0.00000  Uiso   1.00
H218   H     0.14600   0.81450   0.20601   0.00000  Uiso   1.00
H219   H     0.58676   0.84834   0.11232   0.00000  Uiso   1.00
H220   H     0.40071   0.16921   0.33278   0.00000  Uiso   1.00
H221   H     0.92210   0.73415   0.17581   0.00000  Uiso   1.00
O222   O     0.57382   0.89536   0.02324   0.00000  Uiso   1.00
O223   O     0.32972   0.31631   0.31248   0.00000  Uiso   1.00
O224   O     0.70180   0.74554   0.10653   0.00000  Uiso   1.00
N225   N     0.41231   0.95815   0.02686   0.00000  Uiso   1.00
N226   N     0.23838   0.25814   0.23298   0.00000  Uiso   1.00
N227   N     0.79091   0.85142   0.08623   0.00000  Uiso   1.00
N228   N     0.52144   0.88445   0.09096   0.00000  Uiso   1.00
N229   N     0.34752   0.18444   0.29708   0.00000  Uiso   1.00
N230   N     0.90005   0.77771   0.15033   0.00000  Uiso   1.00
C231   C     0.63624   0.32013   0.60496   0.00000  Uiso   1.00
C232   C     0.73655   0.28139   0.59680   0.00000  Uiso   1.00
C233   C     0.76027   0.29062   0.55464   0.00000  Uiso   1.00
C234   C     0.85610   0.25018   0.55439   0.00000  Uiso   1.00
C235   C     0.00132   0.19734   0.53558   0.00000  Uiso   1.00
C236   C     0.69347   0.36457   0.65477   0.00000  Uiso   1.00
C237   C     0.68094   0.44374   0.66136   0.00000  Uiso   1.00
C238   C     0.74050   0.47331   0.70991   0.00000  Uiso   1.00
C239   C     0.81876   0.54961   0.78111   0.00000  Uiso   1.00
C240   C     0.56644   0.25398   0.61438   0.00000  Uiso   1.00
C241   C     0.44709   0.24016   0.58701   0.00000  Uiso   1.00
C242   C     0.39968   0.17663   0.60157   0.00000  Uiso   1.00
C243   C     0.28071   0.08121   0.61005   0.00000  Uiso   1.00
C244   C     0.76427   0.23190   0.67949   0.00000  Uiso   1.00
C245   C     0.80609   0.23347   0.63729   0.00000  Uiso   1.00
C246   C     0.90191   0.19299   0.63710   0.00000  Uiso   1.00
C247   C     0.92576   0.20216   0.59495   0.00000  Uiso   1.00
C248   C     0.76301   0.31665   0.69526   0.00000  Uiso   1.00
C249   C     0.82259   0.34611   0.74382   0.00000  Uiso   1.00
C250   C     0.81016   0.42530   0.75047   0.00000  Uiso   1.00
C251   C     0.63598   0.20605   0.65486   0.00000  Uiso   1.00
C252   C     0.58874   0.14254   0.66947   0.00000  Uiso   1.00
C253   C     0.46935   0.12862   0.64213   0.00000  Uiso   1.00
H254   H     0.58210   0.35745   0.57344   0.00000  Uiso   1.00
H255   H     0.70644   0.32772   0.52332   0.00000  Uiso   1.00
H256   H     0.62712   0.48081   0.63002   0.00000  Uiso   1.00
H257   H     0.39331   0.27726   0.55569   0.00000  Uiso   1.00
H258   H     0.87497   0.27364   0.48561   0.00000  Uiso   1.00
H259   H     0.70769   0.59644   0.71060   0.00000  Uiso   1.00
H260   H     0.21465   0.16722   0.55385   0.00000  Uiso   1.00
H261   H     0.81841   0.19458   0.71101   0.00000  Uiso   1.00
H262   H     0.95571   0.15591   0.66844   0.00000  Uiso   1.00
H263   H     0.87639   0.30901   0.77514   0.00000  Uiso   1.00
H264   H     0.64258   0.10546   0.70080   0.00000  Uiso   1.00
H265   H     0.07730   0.13420   0.60340   0.00000  Uiso   1.00
H266   H     0.91001   0.45700   0.82838   0.00000  Uiso   1.00
H267   H     0.41698   0.02778   0.67163   0.00000  Uiso   1.00
O268   O     0.06222   0.18144   0.51402   0.00000  Uiso   1.00
O269   O     0.84273   0.60494   0.80919   0.00000  Uiso   1.00
O270   O     0.19588   0.04181   0.60354   0.00000  Uiso   1.00
N271   N     0.90373   0.24612   0.51917   0.00000  Uiso   1.00
N272   N     0.74735   0.54792   0.72952   0.00000  Uiso   1.00
N273   N     0.28639   0.14665   0.58298   0.00000  Uiso   1.00
N274   N     0.01260   0.17109   0.58255   0.00000  Uiso   1.00
N275   N     0.85622   0.47289   0.79290   0.00000  Uiso   1.00
N276   N     0.39526   0.07162   0.64636   0.00000  Uiso   1.00
C277   C     0.86241   0.52903   0.39030   0.00000  Uiso   1.00
C278   C     0.76004   0.49147   0.39747   0.00000  Uiso   1.00
C279   C     0.73475   0.50096   0.43920   0.00000  Uiso   1.00
C280   C     0.63716   0.46166   0.43854   0.00000  Uiso   1.00
C281   C     0.48877   0.41054   0.45589   0.00000  Uiso   1.00
C282   C     0.80795   0.57416   0.34066   0.00000  Uiso   1.00
C283   C     0.82297   0.65316   0.33463   0.00000  Uiso   1.00
C284   C     0.76572   0.68346   0.28614   0.00000  Uiso   1.00
C285   C     0.69180   0.76070   0.21529   0.00000  Uiso   1.00
C286   C     0.93127   0.46206   0.38111   0.00000  Uiso   1.00
C287   C     0.04998   0.44682   0.40908   0.00000  Uiso   1.00
C288   C     0.09657   0.38275   0.39464   0.00000  Uiso   1.00
C289   C     0.21411   0.28594   0.38659   0.00000  Uiso   1.00
C290   C     0.73406   0.44235   0.31492   0.00000  Uiso   1.00
C291   C     0.69032   0.44440   0.35652   0.00000  Uiso   1.00
C292   C     0.59275   0.40507   0.35580   0.00000  Uiso   1.00
C293   C     0.56732   0.41449   0.39752   0.00000  Uiso   1.00
C294   C     0.73824   0.52708   0.29972   0.00000  Uiso   1.00
C295   C     0.68097   0.55727   0.25123   0.00000  Uiso   1.00
C296   C     0.69588   0.63630   0.24512   0.00000  Uiso   1.00
C297   C     0.86156   0.41498   0.34017   0.00000  Uiso   1.00
C298   C     0.90797   0.35092   0.32568   0.00000  Uiso   1.00
C299   C     0.02673   0.33559   0.35362   0.00000  Uiso   1.00
H300   H     0.91668   0.56568   0.42218   0.00000  Uiso   1.00
H301   H     0.78871   0.53741   0.47088   0.00000  Uiso   1.00
H302   H     0.87693   0.68958   0.36632   0.00000  Uiso   1.00
H303   H     0.10390   0.48326   0.44076   0.00000  Uiso   1.00
H304   H     0.61607   0.48532   0.50681   0.00000  Uiso   1.00
H305   H     0.80211   0.80618   0.28634   0.00000  Uiso   1.00
H306   H     0.28073   0.37113   0.44332   0.00000  Uiso   1.00
H307   H     0.67979   0.40570   0.28304   0.00000  Uiso   1.00
H308   H     0.53882   0.36864   0.32411   0.00000  Uiso   1.00
H309   H     0.62703   0.52082   0.21955   0.00000  Uiso   1.00
H310   H     0.85400   0.31450   0.29399   0.00000  Uiso   1.00
H311   H     0.41324   0.34834   0.38768   0.00000  Uiso   1.00
H312   H     0.59929   0.66921   0.16722   0.00000  Uiso   1.00
H313   H     0.07790   0.23415   0.32419   0.00000  Uiso   1.00
O314   O     0.42618   0.39536   0.47676   0.00000  Uiso   1.00
O315   O     0.67028   0.81631   0.18752   0.00000  Uiso   1.00
O316   O     0.29820   0.24554   0.39347   0.00000  Uiso   1.00
N317   N     0.58769   0.45815   0.47314   0.00000  Uiso   1.00
N318   N     0.76162   0.75814   0.26702   0.00000  Uiso   1.00
N319   N     0.20909   0.35142   0.41377   0.00000  Uiso   1.00
N320   N     0.47856   0.38445   0.40904   0.00000  Uiso   1.00
N321   N     0.65248   0.68444   0.20292   0.00000  Uiso   1.00
N322   N     0.09995   0.27771   0.34967   0.00000  Uiso   1.00
C323   C     0.36376   0.82013   0.89504   0.00000  Uiso   1.00
C324   C     0.26345   0.78139   0.90320   0.00000  Uiso   1.00
C325   C     0.23973   0.79062   0.94536   0.00000  Uiso   1.00
C326   C     0.14390   0.75018   0.94561   0.00000  Uiso   1.00
C327   C     0.99868   0.69734   0.96442   0.00000  Uiso   1.00
C328   C     0.30653   0.86457   0.84523   0.00000  Uiso   1.00
C329   C     0.31906   0.94374   0.83864   0.00000  Uiso   1.00
C330   C     0.25950   0.97331   0.79009   0.00000  Uiso   1.00
C331   C     0.18124   0.04961   0.71889   0.00000  Uiso   1.00
C332   C     0.43356   0.75398   0.88562   0.00000  Uiso   1.00
C333   C     0.55291   0.74016   0.91299   0.00000  Uiso   1.00
C334   C     0.60032   0.67663   0.89843   0.00000  Uiso   1.00
C335   C     0.71929   0.58121   0.88995   0.00000  Uiso   1.00
C336   C     0.23573   0.73190   0.82051   0.00000  Uiso   1.00
C337   C     0.19391   0.73347   0.86271   0.00000  Uiso   1.00
C338   C     0.09809   0.69299   0.86290   0.00000  Uiso   1.00
C339   C     0.07424   0.70216   0.90505   0.00000  Uiso   1.00
C340   C     0.23699   0.81665   0.80474   0.00000  Uiso   1.00
C341   C     0.17741   0.84611   0.75618   0.00000  Uiso   1.00
C342   C     0.18984   0.92530   0.74953   0.00000  Uiso   1.00
C343   C     0.36402   0.70605   0.84514   0.00000  Uiso   1.00
C344   C     0.41126   0.64254   0.83053   0.00000  Uiso   1.00
C345   C     0.53065   0.62862   0.85787   0.00000  Uiso   1.00
H346   H     0.41790   0.85745   0.92656   0.00000  Uiso   1.00
H347   H     0.29356   0.82772   0.97668   0.00000  Uiso   1.00
H348   H     0.37288   0.98081   0.86998   0.00000  Uiso   1.00
H349   H     0.60669   0.77726   0.94431   0.00000  Uiso   1.00
H350   H     0.12503   0.77364   0.01439   0.00000  Uiso   1.00
H351   H     0.29231   0.09644   0.78940   0.00000  Uiso   1.00
H352   H     0.78535   0.66722   0.94615   0.00000  Uiso   1.00
H353   H     0.18159   0.69458   0.78899   0.00000  Uiso   1.00
H354   H     0.04429   0.65591   0.83156   0.00000  Uiso   1.00
H355   H     0.12361   0.80901   0.72486   0.00000  Uiso   1.00
H356   H     0.35742   0.60546   0.79920   0.00000  Uiso   1.00
H357   H     0.92270   0.63420   0.89660   0.00000  Uiso   1.00
H358   H     0.08999   0.95700   0.67162   0.00000  Uiso   1.00
H359   H     0.58302   0.52778   0.82837   0.00000  Uiso   1.00
O360   O     0.93778   0.68144   0.98598   0.00000  Uiso   1.00
O361   O     0.15727   0.10494   0.69081   0.00000  Uiso   1.00
O362   O     0.80412   0.54181   0.89646   0.00000  Uiso   1.00
N363   N     0.09627   0.74612   0.98083   0.00000  Uiso   1.00
N364   N     0.25265   0.04792   0.77048   0.00000  Uiso   1.00
N365   N     0.71361   0.64665   0.91702   0.00000  Uiso   1.00
N366   N     0.98740   0.67109   0.91745   0.00000  Uiso   1.00
N367   N     0.14378   0.97289   0.70710   0.00000  Uiso   1.00
N368   N     0.60474   0.57162   0.85364   0.00000  Uiso   1.00
