data_job_05999
_audit_creation_date              2018-12-19
_audit_creation_method            'Materials Studio'
_symmetry_space_group_name_H-M    'P1'
_symmetry_Int_Tables_number       1
_symmetry_cell_setting            triclinic
loop_
_symmetry_equiv_pos_as_xyz
  x,y,z
_cell_length_a                    12.4386
_cell_length_b                    20.0447
_cell_length_c                    20.1157
_cell_angle_alpha                 64.2830
_cell_angle_beta                  78.4896
_cell_angle_gamma                 101.4781
loop_
_atom_site_label
_atom_site_type_symbol
_atom_site_fract_x
_atom_site_fract_y
_atom_site_fract_z
_atom_site_U_iso_or_equiv
_atom_site_adp_type
_atom_site_occupancy
C1     C     0.21841   0.23987   0.21475   0.00000  Uiso   1.00
C2     C     0.09914   0.20029   0.21621   0.00000  Uiso   1.00
C3     C     0.06282   0.21610   0.15163   0.00000  Uiso   1.00
C4     C     0.95041   0.17358   0.16519   0.00000  Uiso   1.00
C5     C     0.77634   0.12071   0.15599   0.00000  Uiso   1.00
C6     C     0.19683   0.27409   0.26874   0.00000  Uiso   1.00
C7     C     0.24267   0.35195   0.24833   0.00000  Uiso   1.00
C8     C     0.21251   0.37155   0.30613   0.00000  Uiso   1.00
C9     C     0.19019   0.43324   0.37850   0.00000  Uiso   1.00
C10    C     0.26671   0.17422   0.25450   0.00000  Uiso   1.00
C11    C     0.37132   0.16813   0.22213   0.00000  Uiso   1.00
C12    C     0.39999   0.10365   0.26795   0.00000  Uiso   1.00
C13    C     0.48616   0.01029   0.31821   0.00000  Uiso   1.00
C14    C     0.08335   0.13622   0.35368   0.00000  Uiso   1.00
C15    C     0.02578   0.14399   0.29167   0.00000  Uiso   1.00
C16    C     0.91339   0.10143   0.30534   0.00000  Uiso   1.00
C17    C     0.87691   0.11718   0.24079   0.00000  Uiso   1.00
C18    C     0.12347   0.21779   0.34420   0.00000  Uiso   1.00
C19    C     0.09324   0.23728   0.40205   0.00000  Uiso   1.00
C20    C     0.13902   0.31515   0.38173   0.00000  Uiso   1.00
C21    C     0.19335   0.11792   0.32997   0.00000  Uiso   1.00
C22    C     0.22187   0.05345   0.37585   0.00000  Uiso   1.00
C23    C     0.32650   0.04726   0.34355   0.00000  Uiso   1.00
H24    H     0.27553   0.28371   0.15600   0.00000  Uiso   1.00
H25    H     0.11962   0.25969   0.09323   0.00000  Uiso   1.00
H26    H     0.29945   0.39551   0.18993   0.00000  Uiso   1.00
H27    H     0.42806   0.21171   0.16374   0.00000  Uiso   1.00
H28    H     0.91440   0.20824   0.05694   0.00000  Uiso   1.00
H29    H     0.29361   0.49463   0.26082   0.00000  Uiso   1.00
H30    H     0.56483   0.10705   0.20559   0.00000  Uiso   1.00
H31    H     0.02623   0.09239   0.41244   0.00000  Uiso   1.00
H32    H     0.85664   0.05787   0.36375   0.00000  Uiso   1.00
H33    H     0.03647   0.19369   0.46044   0.00000  Uiso   1.00
H34    H     0.16508   0.00989   0.43424   0.00000  Uiso   1.00
H35    H     0.70095   0.04444   0.27649   0.00000  Uiso   1.00
H36    H     0.08017   0.33083   0.48038   0.00000  Uiso   1.00
H37    H     0.35138   0.94325   0.42515   0.00000  Uiso   1.00
O38    O     0.70059   0.10710   0.13006   0.00000  Uiso   1.00
O39    O     0.19813   0.48282   0.39756   0.00000  Uiso   1.00
O40    O     0.55395   0.97434   0.32509   0.00000  Uiso   1.00
N41    N     0.88744   0.17442   0.11529   0.00000  Uiso   1.00
N42    N     0.24198   0.44217   0.30591   0.00000  Uiso   1.00
N43    N     0.49555   0.07984   0.25428   0.00000  Uiso   1.00
N44    N     0.77259   0.08628   0.23343   0.00000  Uiso   1.00
N45    N     0.12712   0.35404   0.42405   0.00000  Uiso   1.00
N46    N     0.38070   0.99170   0.37242   0.00000  Uiso   1.00
C47    C     0.97555   0.54534   0.24034   0.00000  Uiso   1.00
C48    C     0.89538   0.58361   0.20012   0.00000  Uiso   1.00
C49    C     0.84362   0.63274   0.21584   0.00000  Uiso   1.00
C50    C     0.77317   0.66178   0.17271   0.00000  Uiso   1.00
C51    C     0.65137   0.72414   0.11893   0.00000  Uiso   1.00
C52    C     0.92089   0.45757   0.27366   0.00000  Uiso   1.00
C53    C     0.89060   0.40072   0.35122   0.00000  Uiso   1.00
C54    C     0.84164   0.32365   0.36999   0.00000  Uiso   1.00
C55    C     0.75952   0.19031   0.43038   0.00000  Uiso   1.00
C56    C     0.08771   0.57029   0.17557   0.00000  Uiso   1.00
C57    C     0.19769   0.60820   0.17066   0.00000  Uiso   1.00
C58    C     0.28920   0.62601   0.10686   0.00000  Uiso   1.00
C59    C     0.46610   0.66770   0.01494   0.00000  Uiso   1.00
C60    C     0.94248   0.50953   0.13576   0.00000  Uiso   1.00
C61    C     0.87741   0.56416   0.14332   0.00000  Uiso   1.00
C62    C     0.80703   0.59313   0.10014   0.00000  Uiso   1.00
C63    C     0.75518   0.64230   0.11580   0.00000  Uiso   1.00
C64    C     0.90292   0.43811   0.21687   0.00000  Uiso   1.00
C65    C     0.85401   0.36111   0.23552   0.00000  Uiso   1.00
C66    C     0.82364   0.30416   0.31309   0.00000  Uiso   1.00
C67    C     0.06975   0.55084   0.11877   0.00000  Uiso   1.00
C68    C     0.16110   0.56859   0.05496   0.00000  Uiso   1.00
C69    C     0.27120   0.60653   0.04995   0.00000  Uiso   1.00
H70    H     0.98953   0.56047   0.28456   0.00000  Uiso   1.00
H71    H     0.85753   0.64777   0.25981   0.00000  Uiso   1.00
H72    H     0.90452   0.41579   0.39516   0.00000  Uiso   1.00
H73    H     0.21156   0.62324   0.21463   0.00000  Uiso   1.00
H74    H     0.70324   0.73597   0.20734   0.00000  Uiso   1.00
H75    H     0.80233   0.24681   0.49274   0.00000  Uiso   1.00
H76    H     0.44981   0.68426   0.11205   0.00000  Uiso   1.00
H77    H     0.92849   0.49439   0.09154   0.00000  Uiso   1.00
H78    H     0.79315   0.57807   0.05619   0.00000  Uiso   1.00
H79    H     0.84012   0.34608   0.19155   0.00000  Uiso   1.00
H80    H     0.14717   0.55353   0.01102   0.00000  Uiso   1.00
H81    H     0.65097   0.67939   0.04208   0.00000  Uiso   1.00
H82    H     0.75007   0.19023   0.32747   0.00000  Uiso   1.00
H83    H     0.39754   0.62768   0.94679   0.00000  Uiso   1.00
O84    O     0.58914   0.76390   0.10496   0.00000  Uiso   1.00
O85    O     0.71917   0.12214   0.47938   0.00000  Uiso   1.00
O86    O     0.56863   0.69607   0.97993   0.00000  Uiso   1.00
N87    N     0.70953   0.71118   0.17329   0.00000  Uiso   1.00
N88    N     0.80216   0.25385   0.44012   0.00000  Uiso   1.00
N89    N     0.40750   0.66281   0.08422   0.00000  Uiso   1.00
N90    N     0.68141   0.68074   0.08436   0.00000  Uiso   1.00
N91    N     0.77404   0.22340   0.35119   0.00000  Uiso   1.00
N92    N     0.37937   0.63236   0.99529   0.00000  Uiso   1.00
C93    C     0.43352   0.21527   0.54451   0.00000  Uiso   1.00
C94    C     0.31629   0.21802   0.58191   0.00000  Uiso   1.00
C95    C     0.21694   0.15392   0.62996   0.00000  Uiso   1.00
C96    C     0.11839   0.16869   0.65833   0.00000  Uiso   1.00
C97    C     0.93622   0.16138   0.71928   0.00000  Uiso   1.00
C98    C     0.46471   0.26903   0.45699   0.00000  Uiso   1.00
C99    C     0.49017   0.24782   0.40002   0.00000  Uiso   1.00
C100   C     0.51658   0.30554   0.32323   0.00000  Uiso   1.00
C101   C     0.56491   0.37744   0.19023   0.00000  Uiso   1.00
C102   C     0.52068   0.25485   0.57057   0.00000  Uiso   1.00
C103   C     0.59323   0.22172   0.60907   0.00000  Uiso   1.00
C104   C     0.66678   0.26750   0.62789   0.00000  Uiso   1.00
C105   C     0.80201   0.31737   0.67125   0.00000  Uiso   1.00
C106   C     0.43518   0.35549   0.50943   0.00000  Uiso   1.00
C107   C     0.31720   0.29418   0.56286   0.00000  Uiso   1.00
C108   C     0.21877   0.30905   0.59116   0.00000  Uiso   1.00
C109   C     0.11929   0.24498   0.63925   0.00000  Uiso   1.00
C110   C     0.46562   0.34519   0.43794   0.00000  Uiso   1.00
C111   C     0.49200   0.40295   0.36122   0.00000  Uiso   1.00
C112   C     0.51748   0.38183   0.30414   0.00000  Uiso   1.00
C113   C     0.52159   0.33101   0.55152   0.00000  Uiso   1.00
C114   C     0.59505   0.37685   0.57028   0.00000  Uiso   1.00
C115   C     0.66768   0.34380   0.60881   0.00000  Uiso   1.00
H116   H     0.43282   0.15598   0.55933   0.00000  Uiso   1.00
H117   H     0.21628   0.09499   0.64469   0.00000  Uiso   1.00
H118   H     0.48947   0.18889   0.41478   0.00000  Uiso   1.00
H119   H     0.59250   0.16278   0.62381   0.00000  Uiso   1.00
H120   H     0.97658   0.06097   0.73090   0.00000  Uiso   1.00
H121   H     0.55267   0.25895   0.24612   0.00000  Uiso   1.00
H122   H     0.76994   0.20391   0.68689   0.00000  Uiso   1.00
H123   H     0.43588   0.41478   0.49460   0.00000  Uiso   1.00
H124   H     0.21950   0.36799   0.57641   0.00000  Uiso   1.00
H125   H     0.49270   0.46188   0.34650   0.00000  Uiso   1.00
H126   H     0.59572   0.43578   0.55553   0.00000  Uiso   1.00
H127   H     0.97920   0.28254   0.67548   0.00000  Uiso   1.00
H128   H     0.55529   0.48052   0.19070   0.00000  Uiso   1.00
H129   H     0.77255   0.42548   0.63147   0.00000  Uiso   1.00
O130   O     0.83548   0.13631   0.75815   0.00000  Uiso   1.00
O131   O     0.59131   0.39605   0.12214   0.00000  Uiso   1.00
O132   O     0.87635   0.32384   0.70043   0.00000  Uiso   1.00
N133   N     0.00690   0.11953   0.70664   0.00000  Uiso   1.00
N134   N     0.54549   0.30463   0.25340   0.00000  Uiso   1.00
N135   N     0.74864   0.25318   0.66547   0.00000  Uiso   1.00
N136   N     0.00831   0.23876   0.67682   0.00000  Uiso   1.00
N137   N     0.54690   0.42386   0.22358   0.00000  Uiso   1.00
N138   N     0.75004   0.37241   0.63565   0.00000  Uiso   1.00
C139   C     0.78159   0.76013   0.78525   0.00000  Uiso   1.00
C140   C     0.90086   0.79971   0.78379   0.00000  Uiso   1.00
C141   C     0.93718   0.78390   0.84837   0.00000  Uiso   1.00
C142   C     0.04959   0.82642   0.83481   0.00000  Uiso   1.00
C143   C     0.22366   0.87929   0.84401   0.00000  Uiso   1.00
C144   C     0.80317   0.72591   0.73126   0.00000  Uiso   1.00
C145   C     0.75732   0.64805   0.75167   0.00000  Uiso   1.00
C146   C     0.78749   0.62845   0.69387   0.00000  Uiso   1.00
C147   C     0.80981   0.56676   0.62150   0.00000  Uiso   1.00
C148   C     0.73329   0.82578   0.74550   0.00000  Uiso   1.00
C149   C     0.62868   0.83187   0.77787   0.00000  Uiso   1.00
C150   C     0.60001   0.89635   0.73205   0.00000  Uiso   1.00
C151   C     0.51384   0.98971   0.68179   0.00000  Uiso   1.00
C152   C     0.91665   0.86378   0.64632   0.00000  Uiso   1.00
C153   C     0.97422   0.85601   0.70833   0.00000  Uiso   1.00
C154   C     0.08661   0.89857   0.69466   0.00000  Uiso   1.00
C155   C     0.12309   0.88282   0.75921   0.00000  Uiso   1.00
C156   C     0.87653   0.78221   0.65580   0.00000  Uiso   1.00
C157   C     0.90676   0.76272   0.59795   0.00000  Uiso   1.00
C158   C     0.86098   0.68485   0.61827   0.00000  Uiso   1.00
C159   C     0.80665   0.88208   0.67003   0.00000  Uiso   1.00
C160   C     0.77812   0.94655   0.62415   0.00000  Uiso   1.00
C161   C     0.67350   0.95274   0.65645   0.00000  Uiso   1.00
H162   H     0.72447   0.71629   0.84400   0.00000  Uiso   1.00
H163   H     0.88038   0.74031   0.90677   0.00000  Uiso   1.00
H164   H     0.70055   0.60449   0.81007   0.00000  Uiso   1.00
H165   H     0.57194   0.78829   0.83626   0.00000  Uiso   1.00
H166   H     0.08560   0.79175   0.94306   0.00000  Uiso   1.00
H167   H     0.70639   0.50537   0.73918   0.00000  Uiso   1.00
H168   H     0.43517   0.89295   0.79441   0.00000  Uiso   1.00
H169   H     0.97377   0.90761   0.58756   0.00000  Uiso   1.00
H170   H     0.14336   0.94213   0.63625   0.00000  Uiso   1.00
H171   H     0.96353   0.80631   0.53956   0.00000  Uiso   1.00
H172   H     0.83492   0.99011   0.56576   0.00000  Uiso   1.00
H173   H     0.29905   0.95556   0.72351   0.00000  Uiso   1.00
H174   H     0.91983   0.66917   0.51962   0.00000  Uiso   1.00
H175   H     0.64862   0.05675   0.57485   0.00000  Uiso   1.00
O176   O     0.29941   0.89290   0.86994   0.00000  Uiso   1.00
O177   O     0.80187   0.51717   0.60244   0.00000  Uiso   1.00
O178   O     0.44605   0.02566   0.67491   0.00000  Uiso   1.00
N179   N     0.11256   0.82558   0.88471   0.00000  Uiso   1.00
N180   N     0.75802   0.55782   0.69409   0.00000  Uiso   1.00
N181   N     0.50445   0.92016   0.74572   0.00000  Uiso   1.00
N182   N     0.22741   0.91372   0.76657   0.00000  Uiso   1.00
N183   N     0.87288   0.64596   0.57595   0.00000  Uiso   1.00
N184   N     0.61930   0.00830   0.62758   0.00000  Uiso   1.00
C185   C     0.02445   0.45466   0.75966   0.00000  Uiso   1.00
C186   C     0.10462   0.41639   0.79988   0.00000  Uiso   1.00
C187   C     0.15638   0.36726   0.78416   0.00000  Uiso   1.00
C188   C     0.22683   0.33822   0.82729   0.00000  Uiso   1.00
C189   C     0.34863   0.27586   0.88107   0.00000  Uiso   1.00
C190   C     0.07911   0.54243   0.72634   0.00000  Uiso   1.00
C191   C     0.10940   0.59928   0.64878   0.00000  Uiso   1.00
C192   C     0.15836   0.67635   0.63001   0.00000  Uiso   1.00
C193   C     0.24048   0.80969   0.56962   0.00000  Uiso   1.00
C194   C     0.91229   0.42971   0.82443   0.00000  Uiso   1.00
C195   C     0.80230   0.39180   0.82934   0.00000  Uiso   1.00
C196   C     0.71080   0.37399   0.89314   0.00000  Uiso   1.00
C197   C     0.53390   0.33230   0.98506   0.00000  Uiso   1.00
C198   C     0.05752   0.49047   0.86424   0.00000  Uiso   1.00
C199   C     0.12259   0.43584   0.85668   0.00000  Uiso   1.00
C200   C     0.19297   0.40687   0.89986   0.00000  Uiso   1.00
C201   C     0.24482   0.35770   0.88420   0.00000  Uiso   1.00
C202   C     0.09708   0.56188   0.78313   0.00000  Uiso   1.00
C203   C     0.14599   0.63889   0.76448   0.00000  Uiso   1.00
C204   C     0.17636   0.69584   0.68691   0.00000  Uiso   1.00
C205   C     0.93025   0.44916   0.88123   0.00000  Uiso   1.00
C206   C     0.83890   0.43141   0.94504   0.00000  Uiso   1.00
C207   C     0.72880   0.39347   0.95005   0.00000  Uiso   1.00
H208   H     0.01047   0.43953   0.71544   0.00000  Uiso   1.00
H209   H     0.14247   0.35222   0.74019   0.00000  Uiso   1.00
H210   H     0.09548   0.58421   0.60484   0.00000  Uiso   1.00
H211   H     0.78844   0.37676   0.78537   0.00000  Uiso   1.00
H212   H     0.29676   0.26403   0.79266   0.00000  Uiso   1.00
H213   H     0.19767   0.75319   0.50726   0.00000  Uiso   1.00
H214   H     0.55019   0.31574   0.88795   0.00000  Uiso   1.00
H215   H     0.07151   0.50561   0.90846   0.00000  Uiso   1.00
H216   H     0.20685   0.42193   0.94381   0.00000  Uiso   1.00
H217   H     0.15988   0.65392   0.80845   0.00000  Uiso   1.00
H218   H     0.85283   0.44647   0.98898   0.00000  Uiso   1.00
H219   H     0.34903   0.32061   0.95792   0.00000  Uiso   1.00
H220   H     0.24993   0.80977   0.67253   0.00000  Uiso   1.00
H221   H     0.60246   0.37232   0.05321   0.00000  Uiso   1.00
O222   O     0.41086   0.23610   0.89504   0.00000  Uiso   1.00
O223   O     0.28083   0.87786   0.52062   0.00000  Uiso   1.00
O224   O     0.43137   0.30393   0.02007   0.00000  Uiso   1.00
N225   N     0.29047   0.28882   0.82671   0.00000  Uiso   1.00
N226   N     0.19784   0.74615   0.55988   0.00000  Uiso   1.00
N227   N     0.59250   0.33719   0.91578   0.00000  Uiso   1.00
N228   N     0.31859   0.31926   0.91564   0.00000  Uiso   1.00
N229   N     0.22596   0.77660   0.64881   0.00000  Uiso   1.00
N230   N     0.62063   0.36764   0.00471   0.00000  Uiso   1.00
C231   C     0.56648   0.78473   0.45549   0.00000  Uiso   1.00
C232   C     0.68371   0.78198   0.41809   0.00000  Uiso   1.00
C233   C     0.78306   0.84608   0.37004   0.00000  Uiso   1.00
C234   C     0.88161   0.83131   0.34167   0.00000  Uiso   1.00
C235   C     0.06378   0.83862   0.28072   0.00000  Uiso   1.00
C236   C     0.53529   0.73096   0.54301   0.00000  Uiso   1.00
C237   C     0.50983   0.75218   0.59998   0.00000  Uiso   1.00
C238   C     0.48342   0.69446   0.67677   0.00000  Uiso   1.00
C239   C     0.43509   0.62256   0.80977   0.00000  Uiso   1.00
C240   C     0.47932   0.74515   0.42943   0.00000  Uiso   1.00
C241   C     0.40677   0.77828   0.39093   0.00000  Uiso   1.00
C242   C     0.33322   0.73250   0.37211   0.00000  Uiso   1.00
C243   C     0.19799   0.68263   0.32875   0.00000  Uiso   1.00
C244   C     0.56482   0.64451   0.49057   0.00000  Uiso   1.00
C245   C     0.68280   0.70582   0.43714   0.00000  Uiso   1.00
C246   C     0.78122   0.69095   0.40884   0.00000  Uiso   1.00
C247   C     0.88070   0.75502   0.36075   0.00000  Uiso   1.00
C248   C     0.53438   0.65481   0.56206   0.00000  Uiso   1.00
C249   C     0.50800   0.59705   0.63878   0.00000  Uiso   1.00
C250   C     0.48252   0.61816   0.69586   0.00000  Uiso   1.00
C251   C     0.47841   0.66899   0.44848   0.00000  Uiso   1.00
C252   C     0.40495   0.62315   0.42972   0.00000  Uiso   1.00
C253   C     0.33232   0.65620   0.39119   0.00000  Uiso   1.00
H254   H     0.56718   0.84402   0.44067   0.00000  Uiso   1.00
H255   H     0.78372   0.90501   0.35531   0.00000  Uiso   1.00
H256   H     0.51053   0.81111   0.58522   0.00000  Uiso   1.00
H257   H     0.40750   0.83721   0.37619   0.00000  Uiso   1.00
H258   H     0.02342   0.93903   0.26910   0.00000  Uiso   1.00
H259   H     0.44733   0.74105   0.75388   0.00000  Uiso   1.00
H260   H     0.23006   0.79609   0.31311   0.00000  Uiso   1.00
H261   H     0.56412   0.58522   0.50540   0.00000  Uiso   1.00
H262   H     0.78050   0.63201   0.42359   0.00000  Uiso   1.00
H263   H     0.50730   0.53812   0.65350   0.00000  Uiso   1.00
H264   H     0.40428   0.56422   0.44447   0.00000  Uiso   1.00
H265   H     0.02080   0.71746   0.32452   0.00000  Uiso   1.00
H266   H     0.44471   0.51948   0.80930   0.00000  Uiso   1.00
H267   H     0.22745   0.57452   0.36853   0.00000  Uiso   1.00
O268   O     0.16452   0.86369   0.24185   0.00000  Uiso   1.00
O269   O     0.40869   0.60395   0.87786   0.00000  Uiso   1.00
O270   O     0.12365   0.67616   0.29957   0.00000  Uiso   1.00
N271   N     0.99310   0.88047   0.29336   0.00000  Uiso   1.00
N272   N     0.45451   0.69537   0.74660   0.00000  Uiso   1.00
N273   N     0.25136   0.74682   0.33453   0.00000  Uiso   1.00
N274   N     0.99169   0.76124   0.32318   0.00000  Uiso   1.00
N275   N     0.45310   0.57614   0.77642   0.00000  Uiso   1.00
N276   N     0.24996   0.62759   0.36435   0.00000  Uiso   1.00
