data_job_03942
_audit_creation_date              2018-12-19
_audit_creation_method            'Materials Studio'
_symmetry_space_group_name_H-M    'P1'
_symmetry_Int_Tables_number       1
_symmetry_cell_setting            triclinic
loop_
_symmetry_equiv_pos_as_xyz
  x,y,z
_cell_length_a                    12.4130
_cell_length_b                    12.4130
_cell_length_c                    64.8827
_cell_angle_alpha                 90.0000
_cell_angle_beta                  90.0000
_cell_angle_gamma                 120.0000
loop_
_atom_site_label
_atom_site_type_symbol
_atom_site_fract_x
_atom_site_fract_y
_atom_site_fract_z
_atom_site_U_iso_or_equiv
_atom_site_adp_type
_atom_site_occupancy
C1     C     0.50854   0.41119   0.39914   0.00000  Uiso   1.00
C2     C     0.50117   0.33248   0.38057   0.00000  Uiso   1.00
C3     C     0.42610   0.20437   0.37897   0.00000  Uiso   1.00
C4     C     0.43282   0.14971   0.36071   0.00000  Uiso   1.00
C5     C     0.40941   0.01668   0.33432   0.00000  Uiso   1.00
C6     C     0.64503   0.48173   0.40553   0.00000  Uiso   1.00
C7     C     0.69091   0.47912   0.42492   0.00000  Uiso   1.00
C8     C     0.81873   0.55012   0.42767   0.00000  Uiso   1.00
C9     C     0.01865   0.64887   0.44003   0.00000  Uiso   1.00
C10    C     0.47910   0.50895   0.39105   0.00000  Uiso   1.00
C11    C     0.38549   0.52926   0.39826   0.00000  Uiso   1.00
C12    C     0.37363   0.62320   0.38882   0.00000  Uiso   1.00
C13    C     0.31592   0.76422   0.37871   0.00000  Uiso   1.00
C14    C     0.65398   0.54192   0.36955   0.00000  Uiso   1.00
C15    C     0.58017   0.40349   0.36450   0.00000  Uiso   1.00
C16    C     0.58701   0.34901   0.34623   0.00000  Uiso   1.00
C17    C     0.51195   0.22084   0.34461   0.00000  Uiso   1.00
C18    C     0.72403   0.55273   0.38946   0.00000  Uiso   1.00
C19    C     0.85181   0.62376   0.39218   0.00000  Uiso   1.00
C20    C     0.89787   0.62125   0.41157   0.00000  Uiso   1.00
C21    C     0.55810   0.57996   0.37498   0.00000  Uiso   1.00
C22    C     0.54639   0.67389   0.36553   0.00000  Uiso   1.00
C23    C     0.45277   0.69433   0.37272   0.00000  Uiso   1.00
H24    H     0.44705   0.35591   0.41165   0.00000  Uiso   1.00
H25    H     0.36499   0.14945   0.39141   0.00000  Uiso   1.00
H26    H     0.62975   0.42417   0.43735   0.00000  Uiso   1.00
H27    H     0.32437   0.47429   0.41070   0.00000  Uiso   1.00
H28    H     0.30888   0.95186   0.36188   0.00000  Uiso   1.00
H29    H     0.86714   0.53115   0.45875   0.00000  Uiso   1.00
H30    H     0.22320   0.63685   0.40255   0.00000  Uiso   1.00
H31    H     0.71548   0.59720   0.35704   0.00000  Uiso   1.00
H32    H     0.64815   0.40398   0.33380   0.00000  Uiso   1.00
H33    H     0.91291   0.67870   0.37974   0.00000  Uiso   1.00
H34    H     0.60754   0.72882   0.35309   0.00000  Uiso   1.00
H35    H     0.53870   0.15844   0.31513   0.00000  Uiso   1.00
H36    H     0.09697   0.73774   0.41200   0.00000  Uiso   1.00
H37    H     0.45302   0.84343   0.35580   0.00000  Uiso   1.00
O38    O     0.37468   0.92369   0.32421   0.00000  Uiso   1.00
O39    O     0.10710   0.68371   0.45130   0.00000  Uiso   1.00
O40    O     0.26225   0.82238   0.37756   0.00000  Uiso   1.00
N41    N     0.37219   0.02700   0.35407   0.00000  Uiso   1.00
N42    N     0.89413   0.56859   0.44463   0.00000  Uiso   1.00
N43    N     0.29212   0.66743   0.39209   0.00000  Uiso   1.00
N44    N     0.49586   0.13816   0.32891   0.00000  Uiso   1.00
N45    N     0.01780   0.67975   0.41947   0.00000  Uiso   1.00
N46    N     0.41579   0.77859   0.36694   0.00000  Uiso   1.00
C47    C     0.58881   0.09735   0.06580   0.00000  Uiso   1.00
C48    C     0.66752   0.16870   0.04723   0.00000  Uiso   1.00
C49    C     0.79563   0.22173   0.04563   0.00000  Uiso   1.00
C50    C     0.85029   0.28311   0.02737   0.00000  Uiso   1.00
C51    C     0.98332   0.39273   0.00099   0.00000  Uiso   1.00
C52    C     0.51827   0.16330   0.07219   0.00000  Uiso   1.00
C53    C     0.52088   0.21178   0.09158   0.00000  Uiso   1.00
C54    C     0.44988   0.26862   0.09433   0.00000  Uiso   1.00
C55    C     0.35113   0.36978   0.10670   0.00000  Uiso   1.00
C56    C     0.49105   0.97015   0.05771   0.00000  Uiso   1.00
C57    C     0.47074   0.85623   0.06493   0.00000  Uiso   1.00
C58    C     0.37680   0.75043   0.05549   0.00000  Uiso   1.00
C59    C     0.23578   0.55170   0.04537   0.00000  Uiso   1.00
C60    C     0.45808   0.11206   0.03622   0.00000  Uiso   1.00
C61    C     0.59651   0.17668   0.03116   0.00000  Uiso   1.00
C62    C     0.65099   0.23800   0.01290   0.00000  Uiso   1.00
C63    C     0.77916   0.29111   0.01128   0.00000  Uiso   1.00
C64    C     0.44727   0.17129   0.05613   0.00000  Uiso   1.00
C65    C     0.37624   0.22806   0.05885   0.00000  Uiso   1.00
C66    C     0.37875   0.27662   0.07823   0.00000  Uiso   1.00
C67    C     0.42004   0.97814   0.04164   0.00000  Uiso   1.00
C68    C     0.32611   0.87250   0.03219   0.00000  Uiso   1.00
C69    C     0.30567   0.75844   0.03939   0.00000  Uiso   1.00
H70    H     0.64409   0.09114   0.07832   0.00000  Uiso   1.00
H71    H     0.85055   0.21554   0.05808   0.00000  Uiso   1.00
H72    H     0.57583   0.20558   0.10401   0.00000  Uiso   1.00
H73    H     0.52571   0.85008   0.07736   0.00000  Uiso   1.00
H74    H     0.04814   0.35702   0.02855   0.00000  Uiso   1.00
H75    H     0.46885   0.33599   0.12542   0.00000  Uiso   1.00
H76    H     0.36315   0.58634   0.06922   0.00000  Uiso   1.00
H77    H     0.40280   0.11828   0.02371   0.00000  Uiso   1.00
H78    H     0.59602   0.24417   0.00047   0.00000  Uiso   1.00
H79    H     0.32130   0.23421   0.04641   0.00000  Uiso   1.00
H80    H     0.27118   0.87872   0.01976   0.00000  Uiso   1.00
H81    H     0.84156   0.38026   0.98180   0.00000  Uiso   1.00
H82    H     0.26226   0.35923   0.07866   0.00000  Uiso   1.00
H83    H     0.15657   0.60959   0.02246   0.00000  Uiso   1.00
O84    O     0.07631   0.45100   0.99087   0.00000  Uiso   1.00
O85    O     0.31629   0.42338   0.11796   0.00000  Uiso   1.00
O86    O     0.17762   0.43988   0.04423   0.00000  Uiso   1.00
N87    N     0.97300   0.34519   0.02073   0.00000  Uiso   1.00
N88    N     0.43141   0.32554   0.11130   0.00000  Uiso   1.00
N89    N     0.33257   0.62469   0.05876   0.00000  Uiso   1.00
N90    N     0.86184   0.35769   0.99558   0.00000  Uiso   1.00
N91    N     0.32025   0.33805   0.08614   0.00000  Uiso   1.00
N92    N     0.22141   0.63720   0.03360   0.00000  Uiso   1.00
C93    C     0.90265   0.49146   0.73247   0.00000  Uiso   1.00
C94    C     0.83130   0.49883   0.71390   0.00000  Uiso   1.00
C95    C     0.77827   0.57390   0.71230   0.00000  Uiso   1.00
C96    C     0.71689   0.56718   0.69404   0.00000  Uiso   1.00
C97    C     0.60727   0.59059   0.66765   0.00000  Uiso   1.00
C98    C     0.83670   0.35497   0.73886   0.00000  Uiso   1.00
C99    C     0.78822   0.30909   0.75825   0.00000  Uiso   1.00
C100   C     0.73138   0.18127   0.76100   0.00000  Uiso   1.00
C101   C     0.63022   0.98135   0.77337   0.00000  Uiso   1.00
C102   C     0.02985   0.52090   0.72438   0.00000  Uiso   1.00
C103   C     0.14377   0.61451   0.73159   0.00000  Uiso   1.00
C104   C     0.24957   0.62637   0.72216   0.00000  Uiso   1.00
C105   C     0.44830   0.68408   0.71204   0.00000  Uiso   1.00
C106   C     0.88794   0.34602   0.70289   0.00000  Uiso   1.00
C107   C     0.82332   0.41983   0.69783   0.00000  Uiso   1.00
C108   C     0.76200   0.41299   0.67957   0.00000  Uiso   1.00
C109   C     0.70889   0.48805   0.67794   0.00000  Uiso   1.00
C110   C     0.82871   0.27597   0.72279   0.00000  Uiso   1.00
C111   C     0.77194   0.14819   0.72552   0.00000  Uiso   1.00
C112   C     0.72338   0.10213   0.74490   0.00000  Uiso   1.00
C113   C     0.02186   0.44190   0.70831   0.00000  Uiso   1.00
C114   C     0.12750   0.45361   0.69886   0.00000  Uiso   1.00
C115   C     0.24156   0.54723   0.70606   0.00000  Uiso   1.00
H116   H     0.90886   0.55295   0.74498   0.00000  Uiso   1.00
H117   H     0.78446   0.63501   0.72474   0.00000  Uiso   1.00
H118   H     0.79442   0.37025   0.77068   0.00000  Uiso   1.00
H119   H     0.14992   0.67563   0.74403   0.00000  Uiso   1.00
H120   H     0.64298   0.69112   0.69522   0.00000  Uiso   1.00
H121   H     0.66401   0.13286   0.79209   0.00000  Uiso   1.00
H122   H     0.41366   0.77680   0.73589   0.00000  Uiso   1.00
H123   H     0.88172   0.28452   0.69037   0.00000  Uiso   1.00
H124   H     0.75583   0.35185   0.66714   0.00000  Uiso   1.00
H125   H     0.76579   0.08709   0.71308   0.00000  Uiso   1.00
H126   H     0.12128   0.39246   0.68642   0.00000  Uiso   1.00
H127   H     0.61974   0.46130   0.64846   0.00000  Uiso   1.00
H128   H     0.64077   0.90303   0.74533   0.00000  Uiso   1.00
H129   H     0.39041   0.54698   0.68913   0.00000  Uiso   1.00
O130   O     0.54900   0.62532   0.65754   0.00000  Uiso   1.00
O131   O     0.57662   0.89290   0.78463   0.00000  Uiso   1.00
O132   O     0.56012   0.73775   0.71090   0.00000  Uiso   1.00
N133   N     0.65481   0.62781   0.68740   0.00000  Uiso   1.00
N134   N     0.67446   0.10587   0.77797   0.00000  Uiso   1.00
N135   N     0.37531   0.70788   0.72543   0.00000  Uiso   1.00
N136   N     0.64231   0.50414   0.66224   0.00000  Uiso   1.00
N137   N     0.66195   0.98220   0.75281   0.00000  Uiso   1.00
N138   N     0.36280   0.58421   0.70027   0.00000  Uiso   1.00
C139   C     0.49146   0.58881   0.89914   0.00000  Uiso   1.00
C140   C     0.49883   0.66752   0.88057   0.00000  Uiso   1.00
C141   C     0.57390   0.79563   0.87897   0.00000  Uiso   1.00
C142   C     0.56718   0.85029   0.86071   0.00000  Uiso   1.00
C143   C     0.59059   0.98332   0.83432   0.00000  Uiso   1.00
C144   C     0.35497   0.51827   0.90553   0.00000  Uiso   1.00
C145   C     0.30909   0.52088   0.92492   0.00000  Uiso   1.00
C146   C     0.18127   0.44988   0.92767   0.00000  Uiso   1.00
C147   C     0.98135   0.35113   0.94003   0.00000  Uiso   1.00
C148   C     0.52090   0.49105   0.89105   0.00000  Uiso   1.00
C149   C     0.61451   0.47074   0.89826   0.00000  Uiso   1.00
C150   C     0.62637   0.37680   0.88882   0.00000  Uiso   1.00
C151   C     0.68408   0.23578   0.87871   0.00000  Uiso   1.00
C152   C     0.34602   0.45808   0.86955   0.00000  Uiso   1.00
C153   C     0.41983   0.59651   0.86450   0.00000  Uiso   1.00
C154   C     0.41299   0.65099   0.84623   0.00000  Uiso   1.00
C155   C     0.48805   0.77916   0.84461   0.00000  Uiso   1.00
C156   C     0.27597   0.44727   0.88946   0.00000  Uiso   1.00
C157   C     0.14819   0.37624   0.89218   0.00000  Uiso   1.00
C158   C     0.10213   0.37875   0.91157   0.00000  Uiso   1.00
C159   C     0.44190   0.42004   0.87498   0.00000  Uiso   1.00
C160   C     0.45361   0.32611   0.86553   0.00000  Uiso   1.00
C161   C     0.54723   0.30567   0.87272   0.00000  Uiso   1.00
H162   H     0.55295   0.64409   0.91165   0.00000  Uiso   1.00
H163   H     0.63501   0.85055   0.89141   0.00000  Uiso   1.00
H164   H     0.37025   0.57583   0.93735   0.00000  Uiso   1.00
H165   H     0.67563   0.52571   0.91070   0.00000  Uiso   1.00
H166   H     0.69112   0.04814   0.86188   0.00000  Uiso   1.00
H167   H     0.13286   0.46885   0.95875   0.00000  Uiso   1.00
H168   H     0.77680   0.36315   0.90255   0.00000  Uiso   1.00
H169   H     0.28452   0.40280   0.85704   0.00000  Uiso   1.00
H170   H     0.35185   0.59602   0.83380   0.00000  Uiso   1.00
H171   H     0.08709   0.32130   0.87974   0.00000  Uiso   1.00
H172   H     0.39246   0.27118   0.85309   0.00000  Uiso   1.00
H173   H     0.46130   0.84156   0.81513   0.00000  Uiso   1.00
H174   H     0.90303   0.26226   0.91200   0.00000  Uiso   1.00
H175   H     0.54698   0.15657   0.85580   0.00000  Uiso   1.00
O176   O     0.62532   0.07631   0.82421   0.00000  Uiso   1.00
O177   O     0.89290   0.31629   0.95130   0.00000  Uiso   1.00
O178   O     0.73775   0.17762   0.87756   0.00000  Uiso   1.00
N179   N     0.62781   0.97300   0.85407   0.00000  Uiso   1.00
N180   N     0.10587   0.43141   0.94463   0.00000  Uiso   1.00
N181   N     0.70788   0.33257   0.89209   0.00000  Uiso   1.00
N182   N     0.50414   0.86184   0.82891   0.00000  Uiso   1.00
N183   N     0.98220   0.32025   0.91947   0.00000  Uiso   1.00
N184   N     0.58421   0.22141   0.86694   0.00000  Uiso   1.00
C185   C     0.41119   0.90265   0.56580   0.00000  Uiso   1.00
C186   C     0.33248   0.83130   0.54723   0.00000  Uiso   1.00
C187   C     0.20437   0.77827   0.54563   0.00000  Uiso   1.00
C188   C     0.14971   0.71689   0.52737   0.00000  Uiso   1.00
C189   C     0.01668   0.60727   0.50099   0.00000  Uiso   1.00
C190   C     0.48173   0.83670   0.57219   0.00000  Uiso   1.00
C191   C     0.47912   0.78822   0.59158   0.00000  Uiso   1.00
C192   C     0.55012   0.73138   0.59433   0.00000  Uiso   1.00
C193   C     0.64887   0.63022   0.60670   0.00000  Uiso   1.00
C194   C     0.50895   0.02985   0.55771   0.00000  Uiso   1.00
C195   C     0.52926   0.14377   0.56493   0.00000  Uiso   1.00
C196   C     0.62320   0.24957   0.55549   0.00000  Uiso   1.00
C197   C     0.76422   0.44830   0.54537   0.00000  Uiso   1.00
C198   C     0.54192   0.88794   0.53622   0.00000  Uiso   1.00
C199   C     0.40349   0.82332   0.53116   0.00000  Uiso   1.00
C200   C     0.34901   0.76200   0.51290   0.00000  Uiso   1.00
C201   C     0.22084   0.70889   0.51128   0.00000  Uiso   1.00
C202   C     0.55273   0.82871   0.55613   0.00000  Uiso   1.00
C203   C     0.62376   0.77194   0.55885   0.00000  Uiso   1.00
C204   C     0.62125   0.72338   0.57823   0.00000  Uiso   1.00
C205   C     0.57996   0.02186   0.54164   0.00000  Uiso   1.00
C206   C     0.67389   0.12750   0.53219   0.00000  Uiso   1.00
C207   C     0.69433   0.24156   0.53939   0.00000  Uiso   1.00
H208   H     0.35591   0.90886   0.57832   0.00000  Uiso   1.00
H209   H     0.14945   0.78446   0.55808   0.00000  Uiso   1.00
H210   H     0.42417   0.79442   0.60401   0.00000  Uiso   1.00
H211   H     0.47429   0.14992   0.57736   0.00000  Uiso   1.00
H212   H     0.95186   0.64298   0.52855   0.00000  Uiso   1.00
H213   H     0.53115   0.66401   0.62542   0.00000  Uiso   1.00
H214   H     0.63685   0.41366   0.56922   0.00000  Uiso   1.00
H215   H     0.59720   0.88172   0.52371   0.00000  Uiso   1.00
H216   H     0.40398   0.75583   0.50047   0.00000  Uiso   1.00
H217   H     0.67870   0.76579   0.54641   0.00000  Uiso   1.00
H218   H     0.72882   0.12128   0.51976   0.00000  Uiso   1.00
H219   H     0.15844   0.61974   0.48180   0.00000  Uiso   1.00
H220   H     0.73774   0.64077   0.57866   0.00000  Uiso   1.00
H221   H     0.84343   0.39041   0.52246   0.00000  Uiso   1.00
O222   O     0.92369   0.54900   0.49087   0.00000  Uiso   1.00
O223   O     0.68371   0.57662   0.61796   0.00000  Uiso   1.00
O224   O     0.82238   0.56012   0.54423   0.00000  Uiso   1.00
N225   N     0.02700   0.65481   0.52073   0.00000  Uiso   1.00
N226   N     0.56859   0.67446   0.61130   0.00000  Uiso   1.00
N227   N     0.66743   0.37531   0.55876   0.00000  Uiso   1.00
N228   N     0.13816   0.64231   0.49558   0.00000  Uiso   1.00
N229   N     0.67975   0.66195   0.58614   0.00000  Uiso   1.00
N230   N     0.77859   0.36280   0.53360   0.00000  Uiso   1.00
C231   C     0.09735   0.50854   0.23247   0.00000  Uiso   1.00
C232   C     0.16870   0.50117   0.21390   0.00000  Uiso   1.00
C233   C     0.22173   0.42610   0.21230   0.00000  Uiso   1.00
C234   C     0.28311   0.43282   0.19404   0.00000  Uiso   1.00
C235   C     0.39273   0.40941   0.16765   0.00000  Uiso   1.00
C236   C     0.16330   0.64503   0.23886   0.00000  Uiso   1.00
C237   C     0.21178   0.69091   0.25825   0.00000  Uiso   1.00
C238   C     0.26862   0.81873   0.26100   0.00000  Uiso   1.00
C239   C     0.36978   0.01865   0.27337   0.00000  Uiso   1.00
C240   C     0.97015   0.47910   0.22438   0.00000  Uiso   1.00
C241   C     0.85623   0.38549   0.23159   0.00000  Uiso   1.00
C242   C     0.75043   0.37363   0.22216   0.00000  Uiso   1.00
C243   C     0.55170   0.31592   0.21204   0.00000  Uiso   1.00
C244   C     0.11206   0.65398   0.20289   0.00000  Uiso   1.00
C245   C     0.17668   0.58017   0.19783   0.00000  Uiso   1.00
C246   C     0.23800   0.58701   0.17957   0.00000  Uiso   1.00
C247   C     0.29111   0.51195   0.17794   0.00000  Uiso   1.00
C248   C     0.17129   0.72403   0.22279   0.00000  Uiso   1.00
C249   C     0.22806   0.85181   0.22552   0.00000  Uiso   1.00
C250   C     0.27662   0.89787   0.24490   0.00000  Uiso   1.00
C251   C     0.97814   0.55810   0.20831   0.00000  Uiso   1.00
C252   C     0.87250   0.54639   0.19886   0.00000  Uiso   1.00
C253   C     0.75844   0.45277   0.20606   0.00000  Uiso   1.00
H254   H     0.09114   0.44705   0.24498   0.00000  Uiso   1.00
H255   H     0.21554   0.36499   0.22474   0.00000  Uiso   1.00
H256   H     0.20558   0.62975   0.27068   0.00000  Uiso   1.00
H257   H     0.85008   0.32437   0.24403   0.00000  Uiso   1.00
H258   H     0.35702   0.30888   0.19522   0.00000  Uiso   1.00
H259   H     0.33599   0.86714   0.29209   0.00000  Uiso   1.00
H260   H     0.58634   0.22320   0.23589   0.00000  Uiso   1.00
H261   H     0.11828   0.71548   0.19037   0.00000  Uiso   1.00
H262   H     0.24417   0.64815   0.16714   0.00000  Uiso   1.00
H263   H     0.23421   0.91291   0.21308   0.00000  Uiso   1.00
H264   H     0.87872   0.60754   0.18642   0.00000  Uiso   1.00
H265   H     0.38026   0.53870   0.14846   0.00000  Uiso   1.00
H266   H     0.35923   0.09697   0.24533   0.00000  Uiso   1.00
H267   H     0.60959   0.45302   0.18913   0.00000  Uiso   1.00
O268   O     0.45100   0.37468   0.15754   0.00000  Uiso   1.00
O269   O     0.42338   0.10710   0.28463   0.00000  Uiso   1.00
O270   O     0.43988   0.26225   0.21090   0.00000  Uiso   1.00
N271   N     0.34519   0.37219   0.18740   0.00000  Uiso   1.00
N272   N     0.32554   0.89413   0.27797   0.00000  Uiso   1.00
N273   N     0.62469   0.29212   0.22543   0.00000  Uiso   1.00
N274   N     0.35769   0.49586   0.16224   0.00000  Uiso   1.00
N275   N     0.33805   0.01780   0.25281   0.00000  Uiso   1.00
N276   N     0.63720   0.41579   0.20027   0.00000  Uiso   1.00
C277   C     0.41119   0.50854   0.26753   0.00000  Uiso   1.00
C278   C     0.33248   0.50117   0.28610   0.00000  Uiso   1.00
C279   C     0.20437   0.42610   0.28770   0.00000  Uiso   1.00
C280   C     0.14971   0.43282   0.30596   0.00000  Uiso   1.00
C281   C     0.01668   0.40941   0.33235   0.00000  Uiso   1.00
C282   C     0.48173   0.64503   0.26114   0.00000  Uiso   1.00
C283   C     0.47912   0.69091   0.24175   0.00000  Uiso   1.00
C284   C     0.55012   0.81873   0.23900   0.00000  Uiso   1.00
C285   C     0.64887   0.01865   0.22663   0.00000  Uiso   1.00
C286   C     0.50895   0.47910   0.27562   0.00000  Uiso   1.00
C287   C     0.52926   0.38549   0.26841   0.00000  Uiso   1.00
C288   C     0.62320   0.37363   0.27784   0.00000  Uiso   1.00
C289   C     0.76422   0.31592   0.28796   0.00000  Uiso   1.00
C290   C     0.54192   0.65398   0.29711   0.00000  Uiso   1.00
C291   C     0.40349   0.58017   0.30217   0.00000  Uiso   1.00
C292   C     0.34901   0.58701   0.32043   0.00000  Uiso   1.00
C293   C     0.22084   0.51195   0.32206   0.00000  Uiso   1.00
C294   C     0.55273   0.72403   0.27721   0.00000  Uiso   1.00
C295   C     0.62376   0.85181   0.27448   0.00000  Uiso   1.00
C296   C     0.62125   0.89787   0.25510   0.00000  Uiso   1.00
C297   C     0.57996   0.55810   0.29169   0.00000  Uiso   1.00
C298   C     0.67389   0.54639   0.30114   0.00000  Uiso   1.00
C299   C     0.69433   0.45277   0.29394   0.00000  Uiso   1.00
H300   H     0.35591   0.44705   0.25502   0.00000  Uiso   1.00
H301   H     0.14945   0.36499   0.27526   0.00000  Uiso   1.00
H302   H     0.42417   0.62975   0.22932   0.00000  Uiso   1.00
H303   H     0.47429   0.32437   0.25597   0.00000  Uiso   1.00
H304   H     0.95186   0.30888   0.30478   0.00000  Uiso   1.00
H305   H     0.53115   0.86714   0.20791   0.00000  Uiso   1.00
H306   H     0.63685   0.22320   0.26411   0.00000  Uiso   1.00
H307   H     0.59720   0.71548   0.30963   0.00000  Uiso   1.00
H308   H     0.40398   0.64815   0.33286   0.00000  Uiso   1.00
H309   H     0.67870   0.91291   0.28692   0.00000  Uiso   1.00
H310   H     0.72882   0.60754   0.31358   0.00000  Uiso   1.00
H311   H     0.15844   0.53870   0.35154   0.00000  Uiso   1.00
H312   H     0.73774   0.09697   0.25467   0.00000  Uiso   1.00
H313   H     0.84343   0.45302   0.31087   0.00000  Uiso   1.00
O314   O     0.92369   0.37468   0.34246   0.00000  Uiso   1.00
O315   O     0.68371   0.10710   0.21537   0.00000  Uiso   1.00
O316   O     0.82238   0.26225   0.28910   0.00000  Uiso   1.00
N317   N     0.02700   0.37219   0.31260   0.00000  Uiso   1.00
N318   N     0.56859   0.89413   0.22203   0.00000  Uiso   1.00
N319   N     0.66743   0.29212   0.27457   0.00000  Uiso   1.00
N320   N     0.13816   0.49586   0.33776   0.00000  Uiso   1.00
N321   N     0.67975   0.01780   0.24719   0.00000  Uiso   1.00
N322   N     0.77859   0.41579   0.29973   0.00000  Uiso   1.00
C323   C     0.09735   0.58881   0.60086   0.00000  Uiso   1.00
C324   C     0.16870   0.66752   0.61943   0.00000  Uiso   1.00
C325   C     0.22173   0.79563   0.62103   0.00000  Uiso   1.00
C326   C     0.28311   0.85029   0.63929   0.00000  Uiso   1.00
C327   C     0.39273   0.98332   0.66568   0.00000  Uiso   1.00
C328   C     0.16330   0.51827   0.59447   0.00000  Uiso   1.00
C329   C     0.21178   0.52088   0.57508   0.00000  Uiso   1.00
C330   C     0.26862   0.44988   0.57233   0.00000  Uiso   1.00
C331   C     0.36978   0.35113   0.55997   0.00000  Uiso   1.00
C332   C     0.97015   0.49105   0.60895   0.00000  Uiso   1.00
C333   C     0.85623   0.47074   0.60174   0.00000  Uiso   1.00
C334   C     0.75043   0.37680   0.61118   0.00000  Uiso   1.00
C335   C     0.55170   0.23578   0.62129   0.00000  Uiso   1.00
C336   C     0.11206   0.45808   0.63045   0.00000  Uiso   1.00
C337   C     0.17668   0.59651   0.63550   0.00000  Uiso   1.00
C338   C     0.23800   0.65099   0.65377   0.00000  Uiso   1.00
C339   C     0.29111   0.77916   0.65539   0.00000  Uiso   1.00
C340   C     0.17129   0.44727   0.61054   0.00000  Uiso   1.00
C341   C     0.22806   0.37624   0.60782   0.00000  Uiso   1.00
C342   C     0.27662   0.37875   0.58843   0.00000  Uiso   1.00
C343   C     0.97814   0.42004   0.62502   0.00000  Uiso   1.00
C344   C     0.87250   0.32611   0.63447   0.00000  Uiso   1.00
C345   C     0.75844   0.30567   0.62728   0.00000  Uiso   1.00
H346   H     0.09114   0.64409   0.58835   0.00000  Uiso   1.00
H347   H     0.21554   0.85055   0.60859   0.00000  Uiso   1.00
H348   H     0.20558   0.57583   0.56265   0.00000  Uiso   1.00
H349   H     0.85008   0.52571   0.58930   0.00000  Uiso   1.00
H350   H     0.35702   0.04814   0.63812   0.00000  Uiso   1.00
H351   H     0.33599   0.46885   0.54125   0.00000  Uiso   1.00
H352   H     0.58634   0.36315   0.59745   0.00000  Uiso   1.00
H353   H     0.11828   0.40280   0.64296   0.00000  Uiso   1.00
H354   H     0.24417   0.59602   0.66620   0.00000  Uiso   1.00
H355   H     0.23421   0.32130   0.62026   0.00000  Uiso   1.00
H356   H     0.87872   0.27118   0.64691   0.00000  Uiso   1.00
H357   H     0.38026   0.84156   0.68487   0.00000  Uiso   1.00
H358   H     0.35923   0.26226   0.58800   0.00000  Uiso   1.00
H359   H     0.60959   0.15657   0.64420   0.00000  Uiso   1.00
O360   O     0.45100   0.07631   0.67579   0.00000  Uiso   1.00
O361   O     0.42338   0.31629   0.54870   0.00000  Uiso   1.00
O362   O     0.43988   0.17762   0.62244   0.00000  Uiso   1.00
N363   N     0.34519   0.97300   0.64593   0.00000  Uiso   1.00
N364   N     0.32554   0.43141   0.55537   0.00000  Uiso   1.00
N365   N     0.62469   0.33257   0.60791   0.00000  Uiso   1.00
N366   N     0.35769   0.86184   0.67109   0.00000  Uiso   1.00
N367   N     0.33805   0.32025   0.58053   0.00000  Uiso   1.00
N368   N     0.63720   0.22141   0.63306   0.00000  Uiso   1.00
C369   C     0.49146   0.90265   0.93420   0.00000  Uiso   1.00
C370   C     0.49883   0.83130   0.95277   0.00000  Uiso   1.00
C371   C     0.57390   0.77827   0.95437   0.00000  Uiso   1.00
C372   C     0.56718   0.71689   0.97263   0.00000  Uiso   1.00
C373   C     0.59059   0.60727   0.99901   0.00000  Uiso   1.00
C374   C     0.35497   0.83670   0.92781   0.00000  Uiso   1.00
C375   C     0.30909   0.78822   0.90842   0.00000  Uiso   1.00
C376   C     0.18127   0.73138   0.90567   0.00000  Uiso   1.00
C377   C     0.98135   0.63022   0.89330   0.00000  Uiso   1.00
C378   C     0.52090   0.02985   0.94229   0.00000  Uiso   1.00
C379   C     0.61451   0.14377   0.93507   0.00000  Uiso   1.00
C380   C     0.62637   0.24957   0.94451   0.00000  Uiso   1.00
C381   C     0.68408   0.44830   0.95463   0.00000  Uiso   1.00
C382   C     0.34602   0.88794   0.96378   0.00000  Uiso   1.00
C383   C     0.41983   0.82332   0.96884   0.00000  Uiso   1.00
C384   C     0.41299   0.76200   0.98710   0.00000  Uiso   1.00
C385   C     0.48805   0.70889   0.98872   0.00000  Uiso   1.00
C386   C     0.27597   0.82871   0.94387   0.00000  Uiso   1.00
C387   C     0.14819   0.77194   0.94115   0.00000  Uiso   1.00
C388   C     0.10213   0.72338   0.92177   0.00000  Uiso   1.00
C389   C     0.44190   0.02186   0.95836   0.00000  Uiso   1.00
C390   C     0.45361   0.12750   0.96781   0.00000  Uiso   1.00
C391   C     0.54723   0.24156   0.96061   0.00000  Uiso   1.00
H392   H     0.55295   0.90886   0.92168   0.00000  Uiso   1.00
H393   H     0.63501   0.78446   0.94192   0.00000  Uiso   1.00
H394   H     0.37025   0.79442   0.89599   0.00000  Uiso   1.00
H395   H     0.67563   0.14992   0.92264   0.00000  Uiso   1.00
H396   H     0.69112   0.64298   0.97145   0.00000  Uiso   1.00
H397   H     0.13286   0.66401   0.87458   0.00000  Uiso   1.00
H398   H     0.77680   0.41366   0.93078   0.00000  Uiso   1.00
H399   H     0.28452   0.88172   0.97629   0.00000  Uiso   1.00
H400   H     0.35185   0.75583   0.99953   0.00000  Uiso   1.00
H401   H     0.08709   0.76579   0.95359   0.00000  Uiso   1.00
H402   H     0.39246   0.12128   0.98024   0.00000  Uiso   1.00
H403   H     0.46130   0.61974   0.01820   0.00000  Uiso   1.00
H404   H     0.90303   0.64077   0.92134   0.00000  Uiso   1.00
H405   H     0.54698   0.39041   0.97754   0.00000  Uiso   1.00
O406   O     0.62532   0.54900   0.00913   0.00000  Uiso   1.00
O407   O     0.89290   0.57662   0.88204   0.00000  Uiso   1.00
O408   O     0.73775   0.56012   0.95577   0.00000  Uiso   1.00
N409   N     0.62781   0.65481   0.97927   0.00000  Uiso   1.00
N410   N     0.10587   0.67446   0.88870   0.00000  Uiso   1.00
N411   N     0.70788   0.37531   0.94124   0.00000  Uiso   1.00
N412   N     0.50414   0.64231   0.00442   0.00000  Uiso   1.00
N413   N     0.98220   0.66195   0.91386   0.00000  Uiso   1.00
N414   N     0.58421   0.36280   0.96640   0.00000  Uiso   1.00
C415   C     0.58881   0.49146   0.76753   0.00000  Uiso   1.00
C416   C     0.66752   0.49883   0.78610   0.00000  Uiso   1.00
C417   C     0.79563   0.57390   0.78770   0.00000  Uiso   1.00
C418   C     0.85029   0.56718   0.80596   0.00000  Uiso   1.00
C419   C     0.98332   0.59059   0.83235   0.00000  Uiso   1.00
C420   C     0.51827   0.35497   0.76114   0.00000  Uiso   1.00
C421   C     0.52088   0.30909   0.74175   0.00000  Uiso   1.00
C422   C     0.44988   0.18127   0.73900   0.00000  Uiso   1.00
C423   C     0.35113   0.98135   0.72663   0.00000  Uiso   1.00
C424   C     0.49105   0.52090   0.77562   0.00000  Uiso   1.00
C425   C     0.47074   0.61451   0.76841   0.00000  Uiso   1.00
C426   C     0.37680   0.62637   0.77784   0.00000  Uiso   1.00
C427   C     0.23578   0.68408   0.78796   0.00000  Uiso   1.00
C428   C     0.45808   0.34602   0.79711   0.00000  Uiso   1.00
C429   C     0.59651   0.41983   0.80217   0.00000  Uiso   1.00
C430   C     0.65099   0.41299   0.82043   0.00000  Uiso   1.00
C431   C     0.77916   0.48805   0.82206   0.00000  Uiso   1.00
C432   C     0.44727   0.27597   0.77721   0.00000  Uiso   1.00
C433   C     0.37624   0.14819   0.77448   0.00000  Uiso   1.00
C434   C     0.37875   0.10213   0.75510   0.00000  Uiso   1.00
C435   C     0.42004   0.44190   0.79169   0.00000  Uiso   1.00
C436   C     0.32611   0.45361   0.80114   0.00000  Uiso   1.00
C437   C     0.30567   0.54723   0.79394   0.00000  Uiso   1.00
H438   H     0.64409   0.55295   0.75502   0.00000  Uiso   1.00
H439   H     0.85055   0.63501   0.77526   0.00000  Uiso   1.00
H440   H     0.57583   0.37025   0.72932   0.00000  Uiso   1.00
H441   H     0.52571   0.67563   0.75597   0.00000  Uiso   1.00
H442   H     0.04814   0.69112   0.80478   0.00000  Uiso   1.00
H443   H     0.46885   0.13286   0.70791   0.00000  Uiso   1.00
H444   H     0.36315   0.77680   0.76411   0.00000  Uiso   1.00
H445   H     0.40280   0.28452   0.80963   0.00000  Uiso   1.00
H446   H     0.59602   0.35185   0.83286   0.00000  Uiso   1.00
H447   H     0.32130   0.08709   0.78692   0.00000  Uiso   1.00
H448   H     0.27118   0.39246   0.81358   0.00000  Uiso   1.00
H449   H     0.84156   0.46130   0.85154   0.00000  Uiso   1.00
H450   H     0.26226   0.90303   0.75467   0.00000  Uiso   1.00
H451   H     0.15657   0.54698   0.81087   0.00000  Uiso   1.00
O452   O     0.07631   0.62532   0.84246   0.00000  Uiso   1.00
O453   O     0.31629   0.89290   0.71537   0.00000  Uiso   1.00
O454   O     0.17762   0.73775   0.78910   0.00000  Uiso   1.00
N455   N     0.97300   0.62781   0.81260   0.00000  Uiso   1.00
N456   N     0.43141   0.10587   0.72203   0.00000  Uiso   1.00
N457   N     0.33257   0.70788   0.77457   0.00000  Uiso   1.00
N458   N     0.86184   0.50414   0.83776   0.00000  Uiso   1.00
N459   N     0.32025   0.98220   0.74719   0.00000  Uiso   1.00
N460   N     0.22141   0.58421   0.79973   0.00000  Uiso   1.00
C461   C     0.90265   0.41119   0.10086   0.00000  Uiso   1.00
C462   C     0.83130   0.33248   0.11943   0.00000  Uiso   1.00
C463   C     0.77827   0.20437   0.12103   0.00000  Uiso   1.00
C464   C     0.71689   0.14971   0.13929   0.00000  Uiso   1.00
C465   C     0.60727   0.01668   0.16568   0.00000  Uiso   1.00
C466   C     0.83670   0.48173   0.09447   0.00000  Uiso   1.00
C467   C     0.78822   0.47912   0.07508   0.00000  Uiso   1.00
C468   C     0.73138   0.55012   0.07233   0.00000  Uiso   1.00
C469   C     0.63022   0.64887   0.05997   0.00000  Uiso   1.00
C470   C     0.02985   0.50895   0.10895   0.00000  Uiso   1.00
C471   C     0.14377   0.52926   0.10174   0.00000  Uiso   1.00
C472   C     0.24957   0.62320   0.11118   0.00000  Uiso   1.00
C473   C     0.44830   0.76422   0.12129   0.00000  Uiso   1.00
C474   C     0.88794   0.54192   0.13045   0.00000  Uiso   1.00
C475   C     0.82332   0.40349   0.13550   0.00000  Uiso   1.00
C476   C     0.76200   0.34901   0.15377   0.00000  Uiso   1.00
C477   C     0.70889   0.22084   0.15539   0.00000  Uiso   1.00
C478   C     0.82871   0.55273   0.11054   0.00000  Uiso   1.00
C479   C     0.77194   0.62376   0.10782   0.00000  Uiso   1.00
C480   C     0.72338   0.62125   0.08843   0.00000  Uiso   1.00
C481   C     0.02186   0.57996   0.12502   0.00000  Uiso   1.00
C482   C     0.12750   0.67389   0.13447   0.00000  Uiso   1.00
C483   C     0.24156   0.69433   0.12728   0.00000  Uiso   1.00
H484   H     0.90886   0.35591   0.08835   0.00000  Uiso   1.00
H485   H     0.78446   0.14945   0.10859   0.00000  Uiso   1.00
H486   H     0.79442   0.42417   0.06265   0.00000  Uiso   1.00
H487   H     0.14992   0.47429   0.08930   0.00000  Uiso   1.00
H488   H     0.64298   0.95186   0.13812   0.00000  Uiso   1.00
H489   H     0.66401   0.53115   0.04125   0.00000  Uiso   1.00
H490   H     0.41366   0.63685   0.09745   0.00000  Uiso   1.00
H491   H     0.88172   0.59720   0.14296   0.00000  Uiso   1.00
H492   H     0.75583   0.40398   0.16620   0.00000  Uiso   1.00
H493   H     0.76579   0.67870   0.12026   0.00000  Uiso   1.00
H494   H     0.12128   0.72882   0.14691   0.00000  Uiso   1.00
H495   H     0.61974   0.15844   0.18487   0.00000  Uiso   1.00
H496   H     0.64077   0.73774   0.08800   0.00000  Uiso   1.00
H497   H     0.39041   0.84343   0.14420   0.00000  Uiso   1.00
O498   O     0.54900   0.92369   0.17579   0.00000  Uiso   1.00
O499   O     0.57662   0.68371   0.04870   0.00000  Uiso   1.00
O500   O     0.56012   0.82238   0.12244   0.00000  Uiso   1.00
N501   N     0.65481   0.02700   0.14593   0.00000  Uiso   1.00
N502   N     0.67446   0.56859   0.05537   0.00000  Uiso   1.00
N503   N     0.37531   0.66743   0.10791   0.00000  Uiso   1.00
N504   N     0.64231   0.13816   0.17109   0.00000  Uiso   1.00
N505   N     0.66195   0.67975   0.08053   0.00000  Uiso   1.00
N506   N     0.36280   0.77859   0.13306   0.00000  Uiso   1.00
C507   C     0.50854   0.09735   0.43420   0.00000  Uiso   1.00
C508   C     0.50117   0.16870   0.45277   0.00000  Uiso   1.00
C509   C     0.42610   0.22173   0.45437   0.00000  Uiso   1.00
C510   C     0.43282   0.28311   0.47263   0.00000  Uiso   1.00
C511   C     0.40941   0.39273   0.49901   0.00000  Uiso   1.00
C512   C     0.64503   0.16330   0.42781   0.00000  Uiso   1.00
C513   C     0.69091   0.21178   0.40842   0.00000  Uiso   1.00
C514   C     0.81873   0.26862   0.40567   0.00000  Uiso   1.00
C515   C     0.01865   0.36978   0.39330   0.00000  Uiso   1.00
C516   C     0.47910   0.97015   0.44229   0.00000  Uiso   1.00
C517   C     0.38549   0.85623   0.43507   0.00000  Uiso   1.00
C518   C     0.37363   0.75043   0.44451   0.00000  Uiso   1.00
C519   C     0.31592   0.55170   0.45463   0.00000  Uiso   1.00
C520   C     0.65398   0.11206   0.46378   0.00000  Uiso   1.00
C521   C     0.58017   0.17668   0.46884   0.00000  Uiso   1.00
C522   C     0.58701   0.23800   0.48710   0.00000  Uiso   1.00
C523   C     0.51195   0.29111   0.48872   0.00000  Uiso   1.00
C524   C     0.72403   0.17129   0.44387   0.00000  Uiso   1.00
C525   C     0.85181   0.22806   0.44115   0.00000  Uiso   1.00
C526   C     0.89787   0.27662   0.42177   0.00000  Uiso   1.00
C527   C     0.55810   0.97814   0.45836   0.00000  Uiso   1.00
C528   C     0.54639   0.87250   0.46781   0.00000  Uiso   1.00
C529   C     0.45277   0.75844   0.46061   0.00000  Uiso   1.00
H530   H     0.44705   0.09114   0.42168   0.00000  Uiso   1.00
H531   H     0.36499   0.21554   0.44192   0.00000  Uiso   1.00
H532   H     0.62975   0.20558   0.39599   0.00000  Uiso   1.00
H533   H     0.32437   0.85008   0.42264   0.00000  Uiso   1.00
H534   H     0.30888   0.35702   0.47145   0.00000  Uiso   1.00
H535   H     0.86714   0.33599   0.37458   0.00000  Uiso   1.00
H536   H     0.22320   0.58634   0.43078   0.00000  Uiso   1.00
H537   H     0.71548   0.11828   0.47629   0.00000  Uiso   1.00
H538   H     0.64815   0.24417   0.49953   0.00000  Uiso   1.00
H539   H     0.91291   0.23421   0.45359   0.00000  Uiso   1.00
H540   H     0.60754   0.87872   0.48024   0.00000  Uiso   1.00
H541   H     0.53870   0.38026   0.51820   0.00000  Uiso   1.00
H542   H     0.09697   0.35923   0.42134   0.00000  Uiso   1.00
H543   H     0.45302   0.60959   0.47754   0.00000  Uiso   1.00
O544   O     0.37468   0.45100   0.50913   0.00000  Uiso   1.00
O545   O     0.10710   0.42338   0.38204   0.00000  Uiso   1.00
O546   O     0.26225   0.43988   0.45577   0.00000  Uiso   1.00
N547   N     0.37219   0.34519   0.47927   0.00000  Uiso   1.00
N548   N     0.89413   0.32554   0.38870   0.00000  Uiso   1.00
N549   N     0.29212   0.62469   0.44124   0.00000  Uiso   1.00
N550   N     0.49586   0.35769   0.50442   0.00000  Uiso   1.00
N551   N     0.01780   0.33805   0.41386   0.00000  Uiso   1.00
N552   N     0.41579   0.63720   0.46640   0.00000  Uiso   1.00
