data_job_04938
_audit_creation_date              2018-12-19
_audit_creation_method            'Materials Studio'
_symmetry_space_group_name_H-M    'P1'
_symmetry_Int_Tables_number       1
_symmetry_cell_setting            triclinic
loop_
_symmetry_equiv_pos_as_xyz
  x,y,z
_cell_length_a                    7.0812
_cell_length_b                    12.4081
_cell_length_c                    26.5021
_cell_angle_alpha                 90.0000
_cell_angle_beta                  90.0000
_cell_angle_gamma                 90.0000
loop_
_atom_site_label
_atom_site_type_symbol
_atom_site_fract_x
_atom_site_fract_y
_atom_site_fract_z
_atom_site_U_iso_or_equiv
_atom_site_adp_type
_atom_site_occupancy
C1     C     0.08188   0.47761   0.61805   0.00000  Uiso   1.00
C2     C     0.14074   0.47125   0.56278   0.00000  Uiso   1.00
C3     C     0.02517   0.49207   0.52163   0.00000  Uiso   1.00
C4     C     0.10566   0.48179   0.47410   0.00000  Uiso   1.00
C5     C     0.16824   0.47643   0.38921   0.00000  Uiso   1.00
C6     C     0.12530   0.36736   0.64068   0.00000  Uiso   1.00
C7     C     0.99675   0.30085   0.66503   0.00000  Uiso   1.00
C8     C     0.06426   0.20312   0.68308   0.00000  Uiso   1.00
C9     C     0.10290   0.03651   0.71916   0.00000  Uiso   1.00
C10    C     0.21839   0.55632   0.64300   0.00000  Uiso   1.00
C11    C     0.16811   0.64867   0.66931   0.00000  Uiso   1.00
C12    C     0.31398   0.71001   0.68933   0.00000  Uiso   1.00
C13    C     0.49715   0.83678   0.72900   0.00000  Uiso   1.00
C14    C     0.43034   0.42232   0.60682   0.00000  Uiso   1.00
C15    C     0.33001   0.44122   0.55668   0.00000  Uiso   1.00
C16    C     0.41070   0.43091   0.50921   0.00000  Uiso   1.00
C17    C     0.29527   0.45171   0.46799   0.00000  Uiso   1.00
C18    C     0.31456   0.33733   0.63458   0.00000  Uiso   1.00
C19    C     0.38228   0.23968   0.65261   0.00000  Uiso   1.00
C20    C     0.25386   0.17304   0.67697   0.00000  Uiso   1.00
C21    C     0.40766   0.52629   0.63690   0.00000  Uiso   1.00
C22    C     0.55363   0.58750   0.65688   0.00000  Uiso   1.00
C23    C     0.50359   0.67993   0.68322   0.00000  Uiso   1.00
H24    H     0.93453   0.50098   0.62280   0.00000  Uiso   1.00
H25    H     0.87870   0.51530   0.52637   0.00000  Uiso   1.00
H26    H     0.85030   0.32411   0.66975   0.00000  Uiso   1.00
H27    H     0.02163   0.67188   0.67402   0.00000  Uiso   1.00
H28    H     0.90026   0.51789   0.41676   0.00000  Uiso   1.00
H29    H     0.84038   0.11478   0.71910   0.00000  Uiso   1.00
H30    H     0.20166   0.84811   0.72812   0.00000  Uiso   1.00
H31    H     0.57769   0.39894   0.60208   0.00000  Uiso   1.00
H32    H     0.55717   0.40767   0.50450   0.00000  Uiso   1.00
H33    H     0.52875   0.21648   0.64788   0.00000  Uiso   1.00
H34    H     0.70008   0.56424   0.65216   0.00000  Uiso   1.00
H35    H     0.45092   0.43053   0.39901   0.00000  Uiso   1.00
H36    H     0.39104   0.02742   0.70136   0.00000  Uiso   1.00
H37    H     0.75232   0.76075   0.71037   0.00000  Uiso   1.00
O38    O     0.15046   0.48176   0.34407   0.00000  Uiso   1.00
O39    O     0.07191   0.95290   0.74074   0.00000  Uiso   1.00
O40    O     0.54590   0.91501   0.75257   0.00000  Uiso   1.00
N41    N     0.03268   0.49616   0.42597   0.00000  Uiso   1.00
N42    N     0.97669   0.11926   0.70864   0.00000  Uiso   1.00
N43    N     0.31446   0.80485   0.71708   0.00000  Uiso   1.00
N44    N     0.32899   0.44915   0.41642   0.00000  Uiso   1.00
N45    N     0.27300   0.07226   0.69909   0.00000  Uiso   1.00
N46    N     0.61076   0.75784   0.70753   0.00000  Uiso   1.00
C47    C     0.41812   0.52239   0.11805   0.00000  Uiso   1.00
C48    C     0.35926   0.52875   0.06278   0.00000  Uiso   1.00
C49    C     0.47483   0.50793   0.02163   0.00000  Uiso   1.00
C50    C     0.39434   0.51821   0.97410   0.00000  Uiso   1.00
C51    C     0.33176   0.52357   0.88921   0.00000  Uiso   1.00
C52    C     0.37470   0.63264   0.14068   0.00000  Uiso   1.00
C53    C     0.50325   0.69915   0.16503   0.00000  Uiso   1.00
C54    C     0.43574   0.79688   0.18308   0.00000  Uiso   1.00
C55    C     0.39710   0.96349   0.21916   0.00000  Uiso   1.00
C56    C     0.28161   0.44368   0.14300   0.00000  Uiso   1.00
C57    C     0.33189   0.35133   0.16931   0.00000  Uiso   1.00
C58    C     0.18602   0.28999   0.18933   0.00000  Uiso   1.00
C59    C     0.00285   0.16322   0.22900   0.00000  Uiso   1.00
C60    C     0.06966   0.57768   0.10682   0.00000  Uiso   1.00
C61    C     0.16999   0.55878   0.05668   0.00000  Uiso   1.00
C62    C     0.08930   0.56909   0.00921   0.00000  Uiso   1.00
C63    C     0.20473   0.54829   0.96799   0.00000  Uiso   1.00
C64    C     0.18544   0.66267   0.13458   0.00000  Uiso   1.00
C65    C     0.11772   0.76032   0.15261   0.00000  Uiso   1.00
C66    C     0.24614   0.82696   0.17697   0.00000  Uiso   1.00
C67    C     0.09234   0.47371   0.13690   0.00000  Uiso   1.00
C68    C     0.94637   0.41250   0.15688   0.00000  Uiso   1.00
C69    C     0.99641   0.32007   0.18322   0.00000  Uiso   1.00
H70    H     0.56547   0.49902   0.12280   0.00000  Uiso   1.00
H71    H     0.62130   0.48470   0.02637   0.00000  Uiso   1.00
H72    H     0.64970   0.67589   0.16975   0.00000  Uiso   1.00
H73    H     0.47837   0.32812   0.17402   0.00000  Uiso   1.00
H74    H     0.59974   0.48211   0.91676   0.00000  Uiso   1.00
H75    H     0.65962   0.88522   0.21910   0.00000  Uiso   1.00
H76    H     0.29834   0.15189   0.22812   0.00000  Uiso   1.00
H77    H     0.92231   0.60106   0.10208   0.00000  Uiso   1.00
H78    H     0.94283   0.59233   0.00450   0.00000  Uiso   1.00
H79    H     0.97125   0.78352   0.14788   0.00000  Uiso   1.00
H80    H     0.79992   0.43576   0.15216   0.00000  Uiso   1.00
H81    H     0.04908   0.56947   0.89901   0.00000  Uiso   1.00
H82    H     0.10896   0.97258   0.20136   0.00000  Uiso   1.00
H83    H     0.74768   0.23925   0.21037   0.00000  Uiso   1.00
O84    O     0.34954   0.51824   0.84407   0.00000  Uiso   1.00
O85    O     0.42809   0.04710   0.24074   0.00000  Uiso   1.00
O86    O     0.95410   0.08499   0.25257   0.00000  Uiso   1.00
N87    N     0.46732   0.50384   0.92597   0.00000  Uiso   1.00
N88    N     0.52331   0.88074   0.20864   0.00000  Uiso   1.00
N89    N     0.18554   0.19515   0.21708   0.00000  Uiso   1.00
N90    N     0.17101   0.55085   0.91642   0.00000  Uiso   1.00
N91    N     0.22700   0.92774   0.19909   0.00000  Uiso   1.00
N92    N     0.88924   0.24216   0.20753   0.00000  Uiso   1.00
C93    C     0.91812   0.97761   0.88195   0.00000  Uiso   1.00
C94    C     0.85926   0.97125   0.93722   0.00000  Uiso   1.00
C95    C     0.97483   0.99207   0.97837   0.00000  Uiso   1.00
C96    C     0.89434   0.98179   0.02590   0.00000  Uiso   1.00
C97    C     0.83176   0.97643   0.11079   0.00000  Uiso   1.00
C98    C     0.87470   0.86736   0.85932   0.00000  Uiso   1.00
C99    C     0.00325   0.80085   0.83497   0.00000  Uiso   1.00
C100   C     0.93574   0.70312   0.81692   0.00000  Uiso   1.00
C101   C     0.89710   0.53651   0.78084   0.00000  Uiso   1.00
C102   C     0.78161   0.05632   0.85700   0.00000  Uiso   1.00
C103   C     0.83189   0.14867   0.83069   0.00000  Uiso   1.00
C104   C     0.68602   0.21001   0.81067   0.00000  Uiso   1.00
C105   C     0.50285   0.33678   0.77100   0.00000  Uiso   1.00
C106   C     0.56966   0.92232   0.89318   0.00000  Uiso   1.00
C107   C     0.66999   0.94122   0.94332   0.00000  Uiso   1.00
C108   C     0.58930   0.93091   0.99079   0.00000  Uiso   1.00
C109   C     0.70473   0.95171   0.03201   0.00000  Uiso   1.00
C110   C     0.68544   0.83733   0.86542   0.00000  Uiso   1.00
C111   C     0.61772   0.73968   0.84739   0.00000  Uiso   1.00
C112   C     0.74614   0.67304   0.82303   0.00000  Uiso   1.00
C113   C     0.59234   0.02629   0.86310   0.00000  Uiso   1.00
C114   C     0.44637   0.08750   0.84312   0.00000  Uiso   1.00
C115   C     0.49641   0.17993   0.81678   0.00000  Uiso   1.00
H116   H     0.06547   0.00098   0.87720   0.00000  Uiso   1.00
H117   H     0.12130   0.01530   0.97363   0.00000  Uiso   1.00
H118   H     0.14970   0.82411   0.83025   0.00000  Uiso   1.00
H119   H     0.97837   0.17188   0.82598   0.00000  Uiso   1.00
H120   H     0.09974   0.01789   0.08324   0.00000  Uiso   1.00
H121   H     0.15962   0.61478   0.78090   0.00000  Uiso   1.00
H122   H     0.79834   0.34811   0.77188   0.00000  Uiso   1.00
H123   H     0.42231   0.89894   0.89792   0.00000  Uiso   1.00
H124   H     0.44283   0.90767   0.99550   0.00000  Uiso   1.00
H125   H     0.47125   0.71648   0.85212   0.00000  Uiso   1.00
H126   H     0.29992   0.06424   0.84784   0.00000  Uiso   1.00
H127   H     0.54908   0.93053   0.10099   0.00000  Uiso   1.00
H128   H     0.60896   0.52742   0.79864   0.00000  Uiso   1.00
H129   H     0.24768   0.26075   0.78963   0.00000  Uiso   1.00
O130   O     0.84954   0.98176   0.15593   0.00000  Uiso   1.00
O131   O     0.92809   0.45290   0.75926   0.00000  Uiso   1.00
O132   O     0.45410   0.41501   0.74743   0.00000  Uiso   1.00
N133   N     0.96732   0.99616   0.07403   0.00000  Uiso   1.00
N134   N     0.02331   0.61926   0.79136   0.00000  Uiso   1.00
N135   N     0.68554   0.30485   0.78292   0.00000  Uiso   1.00
N136   N     0.67101   0.94915   0.08358   0.00000  Uiso   1.00
N137   N     0.72700   0.57226   0.80091   0.00000  Uiso   1.00
N138   N     0.38924   0.25784   0.79247   0.00000  Uiso   1.00
C139   C     0.58188   0.02239   0.38195   0.00000  Uiso   1.00
C140   C     0.64074   0.02875   0.43722   0.00000  Uiso   1.00
C141   C     0.52517   0.00793   0.47837   0.00000  Uiso   1.00
C142   C     0.60566   0.01821   0.52590   0.00000  Uiso   1.00
C143   C     0.66824   0.02357   0.61079   0.00000  Uiso   1.00
C144   C     0.62530   0.13264   0.35932   0.00000  Uiso   1.00
C145   C     0.49675   0.19915   0.33497   0.00000  Uiso   1.00
C146   C     0.56426   0.29688   0.31692   0.00000  Uiso   1.00
C147   C     0.60290   0.46349   0.28084   0.00000  Uiso   1.00
C148   C     0.71839   0.94368   0.35700   0.00000  Uiso   1.00
C149   C     0.66811   0.85133   0.33069   0.00000  Uiso   1.00
C150   C     0.81398   0.78999   0.31067   0.00000  Uiso   1.00
C151   C     0.99715   0.66322   0.27100   0.00000  Uiso   1.00
C152   C     0.93034   0.07768   0.39318   0.00000  Uiso   1.00
C153   C     0.83001   0.05878   0.44332   0.00000  Uiso   1.00
C154   C     0.91070   0.06909   0.49079   0.00000  Uiso   1.00
C155   C     0.79527   0.04829   0.53201   0.00000  Uiso   1.00
C156   C     0.81456   0.16267   0.36542   0.00000  Uiso   1.00
C157   C     0.88228   0.26032   0.34739   0.00000  Uiso   1.00
C158   C     0.75386   0.32696   0.32303   0.00000  Uiso   1.00
C159   C     0.90766   0.97371   0.36310   0.00000  Uiso   1.00
C160   C     0.05363   0.91250   0.34312   0.00000  Uiso   1.00
C161   C     0.00359   0.82007   0.31678   0.00000  Uiso   1.00
H162   H     0.43453   0.99902   0.37720   0.00000  Uiso   1.00
H163   H     0.37870   0.98470   0.47363   0.00000  Uiso   1.00
H164   H     0.35030   0.17589   0.33025   0.00000  Uiso   1.00
H165   H     0.52163   0.82812   0.32598   0.00000  Uiso   1.00
H166   H     0.40026   0.98211   0.58324   0.00000  Uiso   1.00
H167   H     0.34038   0.38522   0.28090   0.00000  Uiso   1.00
H168   H     0.70166   0.65189   0.27188   0.00000  Uiso   1.00
H169   H     0.07769   0.10106   0.39792   0.00000  Uiso   1.00
H170   H     0.05717   0.09233   0.49550   0.00000  Uiso   1.00
H171   H     0.02875   0.28352   0.35212   0.00000  Uiso   1.00
H172   H     0.20008   0.93576   0.34784   0.00000  Uiso   1.00
H173   H     0.95092   0.06947   0.60099   0.00000  Uiso   1.00
H174   H     0.89104   0.47258   0.29864   0.00000  Uiso   1.00
H175   H     0.25232   0.73925   0.28963   0.00000  Uiso   1.00
O176   O     0.65046   0.01824   0.65593   0.00000  Uiso   1.00
O177   O     0.57191   0.54710   0.25926   0.00000  Uiso   1.00
O178   O     0.04590   0.58499   0.24743   0.00000  Uiso   1.00
N179   N     0.53268   0.00384   0.57403   0.00000  Uiso   1.00
N180   N     0.47669   0.38074   0.29136   0.00000  Uiso   1.00
N181   N     0.81446   0.69515   0.28292   0.00000  Uiso   1.00
N182   N     0.82899   0.05085   0.58358   0.00000  Uiso   1.00
N183   N     0.77300   0.42774   0.30091   0.00000  Uiso   1.00
N184   N     0.11076   0.74216   0.29247   0.00000  Uiso   1.00
