data_job_01091
_audit_creation_date              2018-12-19
_audit_creation_method            'Materials Studio'
_symmetry_space_group_name_H-M    'P1'
_symmetry_Int_Tables_number       1
_symmetry_cell_setting            triclinic
loop_
_symmetry_equiv_pos_as_xyz
  x,y,z
_cell_length_a                    21.4629
_cell_length_b                    11.6810
_cell_length_c                    23.5333
_cell_angle_alpha                 90.0000
_cell_angle_beta                  90.0000
_cell_angle_gamma                 90.0000
loop_
_atom_site_label
_atom_site_type_symbol
_atom_site_fract_x
_atom_site_fract_y
_atom_site_fract_z
_atom_site_U_iso_or_equiv
_atom_site_adp_type
_atom_site_occupancy
C1     C     0.40245   0.92840   0.11958   0.00000  Uiso   1.00
C2     C     0.34607   0.88884   0.15377   0.00000  Uiso   1.00
C3     C     0.31218   0.95548   0.19156   0.00000  Uiso   1.00
C4     C     0.26219   0.90344   0.21866   0.00000  Uiso   1.00
C5     C     0.17702   0.85941   0.27335   0.00000  Uiso   1.00
C6     C     0.45514   0.84613   0.13447   0.00000  Uiso   1.00
C7     C     0.51296   0.87688   0.15602   0.00000  Uiso   1.00
C8     C     0.55479   0.78888   0.16687   0.00000  Uiso   1.00
C9     C     0.63897   0.67856   0.19155   0.00000  Uiso   1.00
C10    C     0.38660   0.90568   0.05743   0.00000  Uiso   1.00
C11    C     0.38680   0.98648   0.01420   0.00000  Uiso   1.00
C12    C     0.37094   0.94861   0.96018   0.00000  Uiso   1.00
C13    C     0.34870   0.93075   0.86525   0.00000  Uiso   1.00
C14    C     0.37393   0.71745   0.10051   0.00000  Uiso   1.00
C15    C     0.33058   0.77426   0.14342   0.00000  Uiso   1.00
C16    C     0.28063   0.72209   0.17046   0.00000  Uiso   1.00
C17    C     0.24667   0.78865   0.20828   0.00000  Uiso   1.00
C18    C     0.43965   0.73155   0.12412   0.00000  Uiso   1.00
C19    C     0.48141   0.64349   0.13493   0.00000  Uiso   1.00
C20    C     0.53927   0.67409   0.15649   0.00000  Uiso   1.00
C21    C     0.37111   0.79110   0.04707   0.00000  Uiso   1.00
C22    C     0.35525   0.75309   0.99311   0.00000  Uiso   1.00
C23    C     0.35542   0.83383   0.94980   0.00000  Uiso   1.00
H24    H     0.41451   0.01760   0.12764   0.00000  Uiso   1.00
H25    H     0.32419   0.04415   0.19956   0.00000  Uiso   1.00
H26    H     0.52493   0.96555   0.16402   0.00000  Uiso   1.00
H27    H     0.39879   0.07514   0.02223   0.00000  Uiso   1.00
H28    H     0.21722   0.02304   0.27475   0.00000  Uiso   1.00
H29    H     0.64052   0.85732   0.19980   0.00000  Uiso   1.00
H30    H     0.37453   0.08841   0.90079   0.00000  Uiso   1.00
H31    H     0.36187   0.62825   0.09245   0.00000  Uiso   1.00
H32    H     0.26865   0.63342   0.16244   0.00000  Uiso   1.00
H33    H     0.46941   0.55483   0.12691   0.00000  Uiso   1.00
H34    H     0.34326   0.66442   0.98511   0.00000  Uiso   1.00
H35    H     0.17216   0.68968   0.24463   0.00000  Uiso   1.00
H36    H     0.59546   0.52396   0.16967   0.00000  Uiso   1.00
H37    H     0.32946   0.75505   0.87066   0.00000  Uiso   1.00
O38    O     0.13433   0.86678   0.30638   0.00000  Uiso   1.00
O39    O     0.68968   0.64937   0.20804   0.00000  Uiso   1.00
O40    O     0.34070   0.95255   0.81575   0.00000  Uiso   1.00
N41    N     0.21940   0.94387   0.25805   0.00000  Uiso   1.00
N42    N     0.61516   0.78894   0.18798   0.00000  Uiso   1.00
N43    N     0.36649   0.00498   0.90843   0.00000  Uiso   1.00
N44    N     0.19515   0.76450   0.24184   0.00000  Uiso   1.00
N45    N     0.59091   0.60956   0.17177   0.00000  Uiso   1.00
N46    N     0.34224   0.82561   0.89222   0.00000  Uiso   1.00
C47    C     0.09755   0.57160   0.61958   0.00000  Uiso   1.00
C48    C     0.15393   0.61116   0.65377   0.00000  Uiso   1.00
C49    C     0.18782   0.54452   0.69156   0.00000  Uiso   1.00
C50    C     0.23781   0.59656   0.71866   0.00000  Uiso   1.00
C51    C     0.32298   0.64059   0.77335   0.00000  Uiso   1.00
C52    C     0.04486   0.65387   0.63447   0.00000  Uiso   1.00
C53    C     0.98704   0.62312   0.65602   0.00000  Uiso   1.00
C54    C     0.94521   0.71112   0.66687   0.00000  Uiso   1.00
C55    C     0.86103   0.82144   0.69155   0.00000  Uiso   1.00
C56    C     0.11340   0.59432   0.55743   0.00000  Uiso   1.00
C57    C     0.11320   0.51352   0.51420   0.00000  Uiso   1.00
C58    C     0.12906   0.55139   0.46018   0.00000  Uiso   1.00
C59    C     0.15130   0.56925   0.36525   0.00000  Uiso   1.00
C60    C     0.12607   0.78255   0.60051   0.00000  Uiso   1.00
C61    C     0.16942   0.72574   0.64342   0.00000  Uiso   1.00
C62    C     0.21937   0.77791   0.67046   0.00000  Uiso   1.00
C63    C     0.25333   0.71135   0.70828   0.00000  Uiso   1.00
C64    C     0.06035   0.76845   0.62412   0.00000  Uiso   1.00
C65    C     0.01859   0.85651   0.63493   0.00000  Uiso   1.00
C66    C     0.96073   0.82591   0.65649   0.00000  Uiso   1.00
C67    C     0.12889   0.70890   0.54707   0.00000  Uiso   1.00
C68    C     0.14475   0.74691   0.49311   0.00000  Uiso   1.00
C69    C     0.14458   0.66617   0.44980   0.00000  Uiso   1.00
H70    H     0.08549   0.48240   0.62764   0.00000  Uiso   1.00
H71    H     0.17581   0.45585   0.69956   0.00000  Uiso   1.00
H72    H     0.97507   0.53445   0.66402   0.00000  Uiso   1.00
H73    H     0.10121   0.42486   0.52223   0.00000  Uiso   1.00
H74    H     0.28278   0.47696   0.77475   0.00000  Uiso   1.00
H75    H     0.85948   0.64268   0.69980   0.00000  Uiso   1.00
H76    H     0.12547   0.41159   0.40079   0.00000  Uiso   1.00
H77    H     0.13813   0.87175   0.59245   0.00000  Uiso   1.00
H78    H     0.23135   0.86658   0.66244   0.00000  Uiso   1.00
H79    H     0.03059   0.94517   0.62691   0.00000  Uiso   1.00
H80    H     0.15674   0.83558   0.48511   0.00000  Uiso   1.00
H81    H     0.32784   0.81032   0.74463   0.00000  Uiso   1.00
H82    H     0.90454   0.97604   0.66967   0.00000  Uiso   1.00
H83    H     0.17054   0.74495   0.37066   0.00000  Uiso   1.00
O84    O     0.36567   0.63322   0.80638   0.00000  Uiso   1.00
O85    O     0.81032   0.85063   0.70804   0.00000  Uiso   1.00
O86    O     0.15930   0.54745   0.31575   0.00000  Uiso   1.00
N87    N     0.28060   0.55613   0.75805   0.00000  Uiso   1.00
N88    N     0.88484   0.71106   0.68798   0.00000  Uiso   1.00
N89    N     0.13351   0.49502   0.40843   0.00000  Uiso   1.00
N90    N     0.30485   0.73550   0.74184   0.00000  Uiso   1.00
N91    N     0.90909   0.89044   0.67177   0.00000  Uiso   1.00
N92    N     0.15776   0.67439   0.39222   0.00000  Uiso   1.00
C93    C     0.59755   0.92840   0.38042   0.00000  Uiso   1.00
C94    C     0.65393   0.88884   0.34623   0.00000  Uiso   1.00
C95    C     0.68782   0.95548   0.30844   0.00000  Uiso   1.00
C96    C     0.73781   0.90344   0.28134   0.00000  Uiso   1.00
C97    C     0.82298   0.85941   0.22665   0.00000  Uiso   1.00
C98    C     0.54486   0.84613   0.36553   0.00000  Uiso   1.00
C99    C     0.48704   0.87688   0.34398   0.00000  Uiso   1.00
C100   C     0.44521   0.78888   0.33313   0.00000  Uiso   1.00
C101   C     0.36103   0.67856   0.30845   0.00000  Uiso   1.00
C102   C     0.61340   0.90568   0.44257   0.00000  Uiso   1.00
C103   C     0.61320   0.98648   0.48580   0.00000  Uiso   1.00
C104   C     0.62906   0.94861   0.53982   0.00000  Uiso   1.00
C105   C     0.65130   0.93075   0.63475   0.00000  Uiso   1.00
C106   C     0.62607   0.71745   0.39949   0.00000  Uiso   1.00
C107   C     0.66942   0.77426   0.35658   0.00000  Uiso   1.00
C108   C     0.71937   0.72209   0.32954   0.00000  Uiso   1.00
C109   C     0.75333   0.78865   0.29172   0.00000  Uiso   1.00
C110   C     0.56035   0.73155   0.37588   0.00000  Uiso   1.00
C111   C     0.51859   0.64349   0.36507   0.00000  Uiso   1.00
C112   C     0.46073   0.67409   0.34351   0.00000  Uiso   1.00
C113   C     0.62889   0.79110   0.45293   0.00000  Uiso   1.00
C114   C     0.64475   0.75309   0.50689   0.00000  Uiso   1.00
C115   C     0.64458   0.83383   0.55020   0.00000  Uiso   1.00
H116   H     0.58549   0.01760   0.37236   0.00000  Uiso   1.00
H117   H     0.67581   0.04415   0.30044   0.00000  Uiso   1.00
H118   H     0.47507   0.96555   0.33598   0.00000  Uiso   1.00
H119   H     0.60121   0.07514   0.47777   0.00000  Uiso   1.00
H120   H     0.78278   0.02304   0.22525   0.00000  Uiso   1.00
H121   H     0.35948   0.85732   0.30020   0.00000  Uiso   1.00
H122   H     0.62547   0.08841   0.59921   0.00000  Uiso   1.00
H123   H     0.63813   0.62825   0.40755   0.00000  Uiso   1.00
H124   H     0.73135   0.63342   0.33756   0.00000  Uiso   1.00
H125   H     0.53059   0.55483   0.37309   0.00000  Uiso   1.00
H126   H     0.65674   0.66442   0.51489   0.00000  Uiso   1.00
H127   H     0.82784   0.68968   0.25537   0.00000  Uiso   1.00
H128   H     0.40454   0.52396   0.33033   0.00000  Uiso   1.00
H129   H     0.67054   0.75505   0.62934   0.00000  Uiso   1.00
O130   O     0.86567   0.86678   0.19362   0.00000  Uiso   1.00
O131   O     0.31032   0.64937   0.29196   0.00000  Uiso   1.00
O132   O     0.65930   0.95255   0.68425   0.00000  Uiso   1.00
N133   N     0.78060   0.94387   0.24195   0.00000  Uiso   1.00
N134   N     0.38484   0.78894   0.31202   0.00000  Uiso   1.00
N135   N     0.63351   0.00498   0.59157   0.00000  Uiso   1.00
N136   N     0.80485   0.76450   0.25816   0.00000  Uiso   1.00
N137   N     0.40909   0.60956   0.32823   0.00000  Uiso   1.00
N138   N     0.65776   0.82561   0.60778   0.00000  Uiso   1.00
C139   C     0.90245   0.57160   0.88042   0.00000  Uiso   1.00
C140   C     0.84607   0.61116   0.84623   0.00000  Uiso   1.00
C141   C     0.81218   0.54452   0.80844   0.00000  Uiso   1.00
C142   C     0.76219   0.59656   0.78134   0.00000  Uiso   1.00
C143   C     0.67702   0.64059   0.72665   0.00000  Uiso   1.00
C144   C     0.95514   0.65387   0.86553   0.00000  Uiso   1.00
C145   C     0.01296   0.62312   0.84398   0.00000  Uiso   1.00
C146   C     0.05479   0.71112   0.83313   0.00000  Uiso   1.00
C147   C     0.13897   0.82144   0.80845   0.00000  Uiso   1.00
C148   C     0.88660   0.59432   0.94257   0.00000  Uiso   1.00
C149   C     0.88680   0.51352   0.98580   0.00000  Uiso   1.00
C150   C     0.87094   0.55139   0.03982   0.00000  Uiso   1.00
C151   C     0.84870   0.56925   0.13475   0.00000  Uiso   1.00
C152   C     0.87393   0.78255   0.89949   0.00000  Uiso   1.00
C153   C     0.83058   0.72574   0.85658   0.00000  Uiso   1.00
C154   C     0.78063   0.77791   0.82954   0.00000  Uiso   1.00
C155   C     0.74667   0.71135   0.79172   0.00000  Uiso   1.00
C156   C     0.93965   0.76845   0.87588   0.00000  Uiso   1.00
C157   C     0.98141   0.85651   0.86507   0.00000  Uiso   1.00
C158   C     0.03927   0.82591   0.84351   0.00000  Uiso   1.00
C159   C     0.87111   0.70890   0.95293   0.00000  Uiso   1.00
C160   C     0.85525   0.74691   0.00689   0.00000  Uiso   1.00
C161   C     0.85542   0.66617   0.05020   0.00000  Uiso   1.00
H162   H     0.91451   0.48240   0.87236   0.00000  Uiso   1.00
H163   H     0.82419   0.45585   0.80044   0.00000  Uiso   1.00
H164   H     0.02493   0.53445   0.83598   0.00000  Uiso   1.00
H165   H     0.89879   0.42486   0.97777   0.00000  Uiso   1.00
H166   H     0.71722   0.47696   0.72525   0.00000  Uiso   1.00
H167   H     0.14052   0.64268   0.80020   0.00000  Uiso   1.00
H168   H     0.87453   0.41159   0.09921   0.00000  Uiso   1.00
H169   H     0.86187   0.87175   0.90755   0.00000  Uiso   1.00
H170   H     0.76865   0.86658   0.83756   0.00000  Uiso   1.00
H171   H     0.96941   0.94517   0.87309   0.00000  Uiso   1.00
H172   H     0.84326   0.83558   0.01489   0.00000  Uiso   1.00
H173   H     0.67216   0.81032   0.75537   0.00000  Uiso   1.00
H174   H     0.09546   0.97604   0.83033   0.00000  Uiso   1.00
H175   H     0.82946   0.74495   0.12934   0.00000  Uiso   1.00
O176   O     0.63433   0.63322   0.69362   0.00000  Uiso   1.00
O177   O     0.18968   0.85063   0.79196   0.00000  Uiso   1.00
O178   O     0.84070   0.54745   0.18425   0.00000  Uiso   1.00
N179   N     0.71940   0.55613   0.74195   0.00000  Uiso   1.00
N180   N     0.11516   0.71106   0.81202   0.00000  Uiso   1.00
N181   N     0.86649   0.49502   0.09157   0.00000  Uiso   1.00
N182   N     0.69515   0.73550   0.75816   0.00000  Uiso   1.00
N183   N     0.09091   0.89044   0.82823   0.00000  Uiso   1.00
N184   N     0.84224   0.67439   0.10778   0.00000  Uiso   1.00
C185   C     0.59755   0.07160   0.88042   0.00000  Uiso   1.00
C186   C     0.65393   0.11116   0.84623   0.00000  Uiso   1.00
C187   C     0.68782   0.04452   0.80844   0.00000  Uiso   1.00
C188   C     0.73781   0.09656   0.78134   0.00000  Uiso   1.00
C189   C     0.82298   0.14059   0.72665   0.00000  Uiso   1.00
C190   C     0.54486   0.15387   0.86553   0.00000  Uiso   1.00
C191   C     0.48704   0.12312   0.84398   0.00000  Uiso   1.00
C192   C     0.44521   0.21112   0.83313   0.00000  Uiso   1.00
C193   C     0.36103   0.32144   0.80845   0.00000  Uiso   1.00
C194   C     0.61340   0.09432   0.94257   0.00000  Uiso   1.00
C195   C     0.61320   0.01352   0.98580   0.00000  Uiso   1.00
C196   C     0.62906   0.05139   0.03982   0.00000  Uiso   1.00
C197   C     0.65130   0.06925   0.13475   0.00000  Uiso   1.00
C198   C     0.62607   0.28255   0.89949   0.00000  Uiso   1.00
C199   C     0.66942   0.22574   0.85658   0.00000  Uiso   1.00
C200   C     0.71937   0.27791   0.82954   0.00000  Uiso   1.00
C201   C     0.75333   0.21135   0.79172   0.00000  Uiso   1.00
C202   C     0.56035   0.26845   0.87588   0.00000  Uiso   1.00
C203   C     0.51859   0.35651   0.86507   0.00000  Uiso   1.00
C204   C     0.46073   0.32591   0.84351   0.00000  Uiso   1.00
C205   C     0.62889   0.20890   0.95293   0.00000  Uiso   1.00
C206   C     0.64475   0.24691   0.00689   0.00000  Uiso   1.00
C207   C     0.64458   0.16617   0.05020   0.00000  Uiso   1.00
H208   H     0.58549   0.98240   0.87236   0.00000  Uiso   1.00
H209   H     0.67581   0.95585   0.80044   0.00000  Uiso   1.00
H210   H     0.47507   0.03445   0.83598   0.00000  Uiso   1.00
H211   H     0.60121   0.92486   0.97777   0.00000  Uiso   1.00
H212   H     0.78278   0.97696   0.72525   0.00000  Uiso   1.00
H213   H     0.35948   0.14268   0.80020   0.00000  Uiso   1.00
H214   H     0.62547   0.91159   0.09921   0.00000  Uiso   1.00
H215   H     0.63813   0.37175   0.90755   0.00000  Uiso   1.00
H216   H     0.73135   0.36658   0.83756   0.00000  Uiso   1.00
H217   H     0.53059   0.44517   0.87309   0.00000  Uiso   1.00
H218   H     0.65674   0.33558   0.01489   0.00000  Uiso   1.00
H219   H     0.82784   0.31032   0.75537   0.00000  Uiso   1.00
H220   H     0.40454   0.47604   0.83033   0.00000  Uiso   1.00
H221   H     0.67054   0.24495   0.12934   0.00000  Uiso   1.00
O222   O     0.86567   0.13322   0.69362   0.00000  Uiso   1.00
O223   O     0.31032   0.35063   0.79196   0.00000  Uiso   1.00
O224   O     0.65930   0.04745   0.18425   0.00000  Uiso   1.00
N225   N     0.78060   0.05613   0.74195   0.00000  Uiso   1.00
N226   N     0.38484   0.21106   0.81202   0.00000  Uiso   1.00
N227   N     0.63351   0.99502   0.09157   0.00000  Uiso   1.00
N228   N     0.80485   0.23550   0.75816   0.00000  Uiso   1.00
N229   N     0.40909   0.39044   0.82823   0.00000  Uiso   1.00
N230   N     0.65776   0.17439   0.10778   0.00000  Uiso   1.00
C231   C     0.90245   0.42840   0.38042   0.00000  Uiso   1.00
C232   C     0.84607   0.38884   0.34623   0.00000  Uiso   1.00
C233   C     0.81218   0.45548   0.30844   0.00000  Uiso   1.00
C234   C     0.76219   0.40344   0.28134   0.00000  Uiso   1.00
C235   C     0.67702   0.35941   0.22665   0.00000  Uiso   1.00
C236   C     0.95514   0.34613   0.36553   0.00000  Uiso   1.00
C237   C     0.01296   0.37688   0.34398   0.00000  Uiso   1.00
C238   C     0.05479   0.28888   0.33313   0.00000  Uiso   1.00
C239   C     0.13897   0.17856   0.30845   0.00000  Uiso   1.00
C240   C     0.88660   0.40568   0.44257   0.00000  Uiso   1.00
C241   C     0.88680   0.48648   0.48580   0.00000  Uiso   1.00
C242   C     0.87094   0.44861   0.53982   0.00000  Uiso   1.00
C243   C     0.84870   0.43075   0.63475   0.00000  Uiso   1.00
C244   C     0.87393   0.21745   0.39949   0.00000  Uiso   1.00
C245   C     0.83058   0.27426   0.35658   0.00000  Uiso   1.00
C246   C     0.78063   0.22209   0.32954   0.00000  Uiso   1.00
C247   C     0.74667   0.28865   0.29172   0.00000  Uiso   1.00
C248   C     0.93965   0.23155   0.37588   0.00000  Uiso   1.00
C249   C     0.98141   0.14349   0.36507   0.00000  Uiso   1.00
C250   C     0.03927   0.17409   0.34351   0.00000  Uiso   1.00
C251   C     0.87111   0.29110   0.45293   0.00000  Uiso   1.00
C252   C     0.85525   0.25309   0.50689   0.00000  Uiso   1.00
C253   C     0.85542   0.33383   0.55020   0.00000  Uiso   1.00
H254   H     0.91451   0.51760   0.37236   0.00000  Uiso   1.00
H255   H     0.82419   0.54415   0.30044   0.00000  Uiso   1.00
H256   H     0.02493   0.46555   0.33598   0.00000  Uiso   1.00
H257   H     0.89879   0.57514   0.47777   0.00000  Uiso   1.00
H258   H     0.71722   0.52304   0.22525   0.00000  Uiso   1.00
H259   H     0.14052   0.35732   0.30020   0.00000  Uiso   1.00
H260   H     0.87453   0.58841   0.59921   0.00000  Uiso   1.00
H261   H     0.86187   0.12825   0.40755   0.00000  Uiso   1.00
H262   H     0.76865   0.13342   0.33756   0.00000  Uiso   1.00
H263   H     0.96941   0.05483   0.37309   0.00000  Uiso   1.00
H264   H     0.84326   0.16442   0.51489   0.00000  Uiso   1.00
H265   H     0.67216   0.18968   0.25537   0.00000  Uiso   1.00
H266   H     0.09546   0.02396   0.33033   0.00000  Uiso   1.00
H267   H     0.82946   0.25505   0.62934   0.00000  Uiso   1.00
O268   O     0.63433   0.36678   0.19362   0.00000  Uiso   1.00
O269   O     0.18968   0.14937   0.29196   0.00000  Uiso   1.00
O270   O     0.84070   0.45255   0.68425   0.00000  Uiso   1.00
N271   N     0.71940   0.44387   0.24195   0.00000  Uiso   1.00
N272   N     0.11516   0.28894   0.31202   0.00000  Uiso   1.00
N273   N     0.86649   0.50498   0.59157   0.00000  Uiso   1.00
N274   N     0.69515   0.26450   0.25816   0.00000  Uiso   1.00
N275   N     0.09091   0.10956   0.32823   0.00000  Uiso   1.00
N276   N     0.84224   0.32561   0.60778   0.00000  Uiso   1.00
C277   C     0.40245   0.07160   0.61958   0.00000  Uiso   1.00
C278   C     0.34607   0.11116   0.65377   0.00000  Uiso   1.00
C279   C     0.31218   0.04452   0.69156   0.00000  Uiso   1.00
C280   C     0.26219   0.09656   0.71866   0.00000  Uiso   1.00
C281   C     0.17702   0.14059   0.77335   0.00000  Uiso   1.00
C282   C     0.45514   0.15387   0.63447   0.00000  Uiso   1.00
C283   C     0.51296   0.12312   0.65602   0.00000  Uiso   1.00
C284   C     0.55479   0.21112   0.66687   0.00000  Uiso   1.00
C285   C     0.63897   0.32144   0.69155   0.00000  Uiso   1.00
C286   C     0.38660   0.09432   0.55743   0.00000  Uiso   1.00
C287   C     0.38680   0.01352   0.51420   0.00000  Uiso   1.00
C288   C     0.37094   0.05139   0.46018   0.00000  Uiso   1.00
C289   C     0.34870   0.06925   0.36525   0.00000  Uiso   1.00
C290   C     0.37393   0.28255   0.60051   0.00000  Uiso   1.00
C291   C     0.33058   0.22574   0.64342   0.00000  Uiso   1.00
C292   C     0.28063   0.27791   0.67046   0.00000  Uiso   1.00
C293   C     0.24667   0.21135   0.70828   0.00000  Uiso   1.00
C294   C     0.43965   0.26845   0.62412   0.00000  Uiso   1.00
C295   C     0.48141   0.35651   0.63493   0.00000  Uiso   1.00
C296   C     0.53927   0.32591   0.65649   0.00000  Uiso   1.00
C297   C     0.37111   0.20890   0.54707   0.00000  Uiso   1.00
C298   C     0.35525   0.24691   0.49311   0.00000  Uiso   1.00
C299   C     0.35542   0.16617   0.44980   0.00000  Uiso   1.00
H300   H     0.41451   0.98240   0.62764   0.00000  Uiso   1.00
H301   H     0.32419   0.95585   0.69956   0.00000  Uiso   1.00
H302   H     0.52493   0.03445   0.66402   0.00000  Uiso   1.00
H303   H     0.39879   0.92486   0.52223   0.00000  Uiso   1.00
H304   H     0.21722   0.97696   0.77475   0.00000  Uiso   1.00
H305   H     0.64052   0.14268   0.69980   0.00000  Uiso   1.00
H306   H     0.37453   0.91159   0.40079   0.00000  Uiso   1.00
H307   H     0.36187   0.37175   0.59245   0.00000  Uiso   1.00
H308   H     0.26865   0.36658   0.66244   0.00000  Uiso   1.00
H309   H     0.46941   0.44517   0.62691   0.00000  Uiso   1.00
H310   H     0.34326   0.33558   0.48511   0.00000  Uiso   1.00
H311   H     0.17216   0.31032   0.74463   0.00000  Uiso   1.00
H312   H     0.59546   0.47604   0.66967   0.00000  Uiso   1.00
H313   H     0.32946   0.24495   0.37066   0.00000  Uiso   1.00
O314   O     0.13433   0.13322   0.80638   0.00000  Uiso   1.00
O315   O     0.68968   0.35063   0.70804   0.00000  Uiso   1.00
O316   O     0.34070   0.04745   0.31575   0.00000  Uiso   1.00
N317   N     0.21940   0.05613   0.75805   0.00000  Uiso   1.00
N318   N     0.61516   0.21106   0.68798   0.00000  Uiso   1.00
N319   N     0.36649   0.99502   0.40843   0.00000  Uiso   1.00
N320   N     0.19515   0.23550   0.74184   0.00000  Uiso   1.00
N321   N     0.59091   0.39044   0.67177   0.00000  Uiso   1.00
N322   N     0.34224   0.17439   0.39222   0.00000  Uiso   1.00
C323   C     0.09755   0.42840   0.11958   0.00000  Uiso   1.00
C324   C     0.15393   0.38884   0.15377   0.00000  Uiso   1.00
C325   C     0.18782   0.45548   0.19156   0.00000  Uiso   1.00
C326   C     0.23781   0.40344   0.21866   0.00000  Uiso   1.00
C327   C     0.32298   0.35941   0.27335   0.00000  Uiso   1.00
C328   C     0.04486   0.34613   0.13447   0.00000  Uiso   1.00
C329   C     0.98704   0.37688   0.15602   0.00000  Uiso   1.00
C330   C     0.94521   0.28888   0.16687   0.00000  Uiso   1.00
C331   C     0.86103   0.17856   0.19155   0.00000  Uiso   1.00
C332   C     0.11340   0.40568   0.05743   0.00000  Uiso   1.00
C333   C     0.11320   0.48648   0.01420   0.00000  Uiso   1.00
C334   C     0.12906   0.44861   0.96018   0.00000  Uiso   1.00
C335   C     0.15130   0.43075   0.86525   0.00000  Uiso   1.00
C336   C     0.12607   0.21745   0.10051   0.00000  Uiso   1.00
C337   C     0.16942   0.27426   0.14342   0.00000  Uiso   1.00
C338   C     0.21937   0.22209   0.17046   0.00000  Uiso   1.00
C339   C     0.25333   0.28865   0.20828   0.00000  Uiso   1.00
C340   C     0.06035   0.23155   0.12412   0.00000  Uiso   1.00
C341   C     0.01859   0.14349   0.13493   0.00000  Uiso   1.00
C342   C     0.96073   0.17409   0.15649   0.00000  Uiso   1.00
C343   C     0.12889   0.29110   0.04707   0.00000  Uiso   1.00
C344   C     0.14475   0.25309   0.99311   0.00000  Uiso   1.00
C345   C     0.14458   0.33383   0.94980   0.00000  Uiso   1.00
H346   H     0.08549   0.51760   0.12764   0.00000  Uiso   1.00
H347   H     0.17581   0.54415   0.19956   0.00000  Uiso   1.00
H348   H     0.97507   0.46555   0.16402   0.00000  Uiso   1.00
H349   H     0.10121   0.57514   0.02223   0.00000  Uiso   1.00
H350   H     0.28278   0.52304   0.27475   0.00000  Uiso   1.00
H351   H     0.85948   0.35732   0.19980   0.00000  Uiso   1.00
H352   H     0.12547   0.58841   0.90079   0.00000  Uiso   1.00
H353   H     0.13813   0.12825   0.09245   0.00000  Uiso   1.00
H354   H     0.23135   0.13342   0.16244   0.00000  Uiso   1.00
H355   H     0.03059   0.05483   0.12691   0.00000  Uiso   1.00
H356   H     0.15674   0.16442   0.98511   0.00000  Uiso   1.00
H357   H     0.32784   0.18968   0.24463   0.00000  Uiso   1.00
H358   H     0.90454   0.02396   0.16967   0.00000  Uiso   1.00
H359   H     0.17054   0.25505   0.87066   0.00000  Uiso   1.00
O360   O     0.36567   0.36678   0.30638   0.00000  Uiso   1.00
O361   O     0.81032   0.14937   0.20804   0.00000  Uiso   1.00
O362   O     0.15930   0.45255   0.81575   0.00000  Uiso   1.00
N363   N     0.28060   0.44387   0.25805   0.00000  Uiso   1.00
N364   N     0.88484   0.28894   0.18798   0.00000  Uiso   1.00
N365   N     0.13351   0.50498   0.90843   0.00000  Uiso   1.00
N366   N     0.30485   0.26450   0.24184   0.00000  Uiso   1.00
N367   N     0.90909   0.10956   0.17177   0.00000  Uiso   1.00
N368   N     0.15776   0.32561   0.89222   0.00000  Uiso   1.00
