data_job_03166
_audit_creation_date              2018-12-19
_audit_creation_method            'Materials Studio'
_symmetry_space_group_name_H-M    'P1'
_symmetry_Int_Tables_number       1
_symmetry_cell_setting            triclinic
loop_
_symmetry_equiv_pos_as_xyz
  x,y,z
_cell_length_a                    47.2674
_cell_length_b                    14.3464
_cell_length_c                    9.4616
_cell_angle_alpha                 90.0000
_cell_angle_beta                  90.0000
_cell_angle_gamma                 90.0000
loop_
_atom_site_label
_atom_site_type_symbol
_atom_site_fract_x
_atom_site_fract_y
_atom_site_fract_z
_atom_site_U_iso_or_equiv
_atom_site_adp_type
_atom_site_occupancy
C1     C     0.65193   0.96736   0.32499   0.00000  Uiso   1.00
C2     C     0.66411   0.06284   0.36132   0.00000  Uiso   1.00
C3     C     0.68673   0.07953   0.45134   0.00000  Uiso   1.00
C4     C     0.69465   0.17183   0.47080   0.00000  Uiso   1.00
C5     C     0.71570   0.30899   0.53765   0.00000  Uiso   1.00
C6     C     0.62062   0.97168   0.36327   0.00000  Uiso   1.00
C7     C     0.60668   0.91171   0.45491   0.00000  Uiso   1.00
C8     C     0.57800   0.92727   0.47598   0.00000  Uiso   1.00
C9     C     0.53154   0.92286   0.54576   0.00000  Uiso   1.00
C10    C     0.65315   0.95957   0.16438   0.00000  Uiso   1.00
C11    C     0.66655   0.88940   0.08878   0.00000  Uiso   1.00
C12    C     0.66524   0.89475   0.94240   0.00000  Uiso   1.00
C13    C     0.66928   0.87153   0.70337   0.00000  Uiso   1.00
C14    C     0.62578   0.10161   0.19947   0.00000  Uiso   1.00
C15    C     0.64990   0.13575   0.29314   0.00000  Uiso   1.00
C16    C     0.65779   0.22805   0.31247   0.00000  Uiso   1.00
C17    C     0.68042   0.24487   0.40250   0.00000  Uiso   1.00
C18    C     0.60642   0.04459   0.29509   0.00000  Uiso   1.00
C19    C     0.57775   0.06024   0.31603   0.00000  Uiso   1.00
C20    C     0.56377   0.00032   0.40768   0.00000  Uiso   1.00
C21    C     0.63894   0.03248   0.09619   0.00000  Uiso   1.00
C22    C     0.63762   0.03793   0.94990   0.00000  Uiso   1.00
C23    C     0.65101   0.96780   0.87409   0.00000  Uiso   1.00
H24    H     0.66299   0.91059   0.37807   0.00000  Uiso   1.00
H25    H     0.69771   0.02308   0.50410   0.00000  Uiso   1.00
H26    H     0.61768   0.85529   0.50764   0.00000  Uiso   1.00
H27    H     0.67754   0.83299   0.14157   0.00000  Uiso   1.00
H28    H     0.72994   0.17995   0.61379   0.00000  Uiso   1.00
H29    H     0.56118   0.82613   0.62123   0.00000  Uiso   1.00
H30    H     0.68740   0.77910   0.84930   0.00000  Uiso   1.00
H31    H     0.61472   0.15838   0.14639   0.00000  Uiso   1.00
H32    H     0.64680   0.28446   0.25969   0.00000  Uiso   1.00
H33    H     0.56676   0.11667   0.26324   0.00000  Uiso   1.00
H34    H     0.62662   0.09437   0.89718   0.00000  Uiso   1.00
H35    H     0.68861   0.39210   0.41543   0.00000  Uiso   1.00
H36    H     0.51985   0.03828   0.42287   0.00000  Uiso   1.00
H37    H     0.64608   0.99125   0.65094   0.00000  Uiso   1.00
O38    O     0.73124   0.36450   0.59336   0.00000  Uiso   1.00
O39    O     0.50983   0.90029   0.60310   0.00000  Uiso   1.00
O40    O     0.67544   0.83859   0.59035   0.00000  Uiso   1.00
N41    N     0.71581   0.21257   0.55153   0.00000  Uiso   1.00
N42    N     0.55803   0.88178   0.55851   0.00000  Uiso   1.00
N43    N     0.67604   0.83780   0.83682   0.00000  Uiso   1.00
N44    N     0.69358   0.32673   0.44479   0.00000  Uiso   1.00
N45    N     0.53580   0.99594   0.45177   0.00000  Uiso   1.00
N46    N     0.65380   0.95196   0.73008   0.00000  Uiso   1.00
C47    C     0.84807   0.53264   0.32499   0.00000  Uiso   1.00
C48    C     0.83589   0.43716   0.36132   0.00000  Uiso   1.00
C49    C     0.81327   0.42047   0.45134   0.00000  Uiso   1.00
C50    C     0.80535   0.32817   0.47080   0.00000  Uiso   1.00
C51    C     0.78430   0.19101   0.53765   0.00000  Uiso   1.00
C52    C     0.87938   0.52832   0.36327   0.00000  Uiso   1.00
C53    C     0.89332   0.58829   0.45491   0.00000  Uiso   1.00
C54    C     0.92200   0.57273   0.47598   0.00000  Uiso   1.00
C55    C     0.96846   0.57714   0.54576   0.00000  Uiso   1.00
C56    C     0.84685   0.54043   0.16438   0.00000  Uiso   1.00
C57    C     0.83345   0.61060   0.08878   0.00000  Uiso   1.00
C58    C     0.83476   0.60525   0.94240   0.00000  Uiso   1.00
C59    C     0.83072   0.62847   0.70337   0.00000  Uiso   1.00
C60    C     0.87422   0.39839   0.19947   0.00000  Uiso   1.00
C61    C     0.85010   0.36425   0.29314   0.00000  Uiso   1.00
C62    C     0.84221   0.27195   0.31247   0.00000  Uiso   1.00
C63    C     0.81958   0.25513   0.40250   0.00000  Uiso   1.00
C64    C     0.89358   0.45541   0.29509   0.00000  Uiso   1.00
C65    C     0.92225   0.43976   0.31603   0.00000  Uiso   1.00
C66    C     0.93623   0.49968   0.40768   0.00000  Uiso   1.00
C67    C     0.86106   0.46752   0.09619   0.00000  Uiso   1.00
C68    C     0.86238   0.46207   0.94990   0.00000  Uiso   1.00
C69    C     0.84899   0.53220   0.87409   0.00000  Uiso   1.00
H70    H     0.83701   0.58941   0.37807   0.00000  Uiso   1.00
H71    H     0.80229   0.47692   0.50410   0.00000  Uiso   1.00
H72    H     0.88232   0.64471   0.50764   0.00000  Uiso   1.00
H73    H     0.82246   0.66701   0.14157   0.00000  Uiso   1.00
H74    H     0.77006   0.32005   0.61379   0.00000  Uiso   1.00
H75    H     0.93882   0.67387   0.62123   0.00000  Uiso   1.00
H76    H     0.81260   0.72090   0.84930   0.00000  Uiso   1.00
H77    H     0.88528   0.34162   0.14639   0.00000  Uiso   1.00
H78    H     0.85320   0.21554   0.25969   0.00000  Uiso   1.00
H79    H     0.93324   0.38333   0.26324   0.00000  Uiso   1.00
H80    H     0.87338   0.40563   0.89718   0.00000  Uiso   1.00
H81    H     0.81139   0.10790   0.41543   0.00000  Uiso   1.00
H82    H     0.98015   0.46172   0.42287   0.00000  Uiso   1.00
H83    H     0.85392   0.50875   0.65094   0.00000  Uiso   1.00
O84    O     0.76876   0.13550   0.59336   0.00000  Uiso   1.00
O85    O     0.99017   0.59971   0.60310   0.00000  Uiso   1.00
O86    O     0.82456   0.66141   0.59035   0.00000  Uiso   1.00
N87    N     0.78419   0.28743   0.55153   0.00000  Uiso   1.00
N88    N     0.94197   0.61822   0.55851   0.00000  Uiso   1.00
N89    N     0.82396   0.66220   0.83682   0.00000  Uiso   1.00
N90    N     0.80642   0.17327   0.44479   0.00000  Uiso   1.00
N91    N     0.96420   0.50406   0.45177   0.00000  Uiso   1.00
N92    N     0.84620   0.54804   0.73008   0.00000  Uiso   1.00
C93    C     0.34807   0.46736   0.17501   0.00000  Uiso   1.00
C94    C     0.33589   0.56284   0.13868   0.00000  Uiso   1.00
C95    C     0.31327   0.57953   0.04866   0.00000  Uiso   1.00
C96    C     0.30535   0.67183   0.02920   0.00000  Uiso   1.00
C97    C     0.28430   0.80899   0.96235   0.00000  Uiso   1.00
C98    C     0.37938   0.47168   0.13673   0.00000  Uiso   1.00
C99    C     0.39332   0.41171   0.04509   0.00000  Uiso   1.00
C100   C     0.42200   0.42727   0.02402   0.00000  Uiso   1.00
C101   C     0.46846   0.42286   0.95424   0.00000  Uiso   1.00
C102   C     0.34685   0.45957   0.33562   0.00000  Uiso   1.00
C103   C     0.33345   0.38940   0.41122   0.00000  Uiso   1.00
C104   C     0.33476   0.39475   0.55760   0.00000  Uiso   1.00
C105   C     0.33072   0.37153   0.79663   0.00000  Uiso   1.00
C106   C     0.37422   0.60161   0.30053   0.00000  Uiso   1.00
C107   C     0.35010   0.63575   0.20686   0.00000  Uiso   1.00
C108   C     0.34221   0.72805   0.18753   0.00000  Uiso   1.00
C109   C     0.31958   0.74487   0.09750   0.00000  Uiso   1.00
C110   C     0.39358   0.54459   0.20491   0.00000  Uiso   1.00
C111   C     0.42225   0.56024   0.18397   0.00000  Uiso   1.00
C112   C     0.43623   0.50032   0.09232   0.00000  Uiso   1.00
C113   C     0.36106   0.53248   0.40381   0.00000  Uiso   1.00
C114   C     0.36238   0.53793   0.55010   0.00000  Uiso   1.00
C115   C     0.34899   0.46780   0.62591   0.00000  Uiso   1.00
H116   H     0.33701   0.41059   0.12193   0.00000  Uiso   1.00
H117   H     0.30229   0.52308   0.99590   0.00000  Uiso   1.00
H118   H     0.38232   0.35529   0.99236   0.00000  Uiso   1.00
H119   H     0.32246   0.33299   0.35843   0.00000  Uiso   1.00
H120   H     0.27006   0.67995   0.88621   0.00000  Uiso   1.00
H121   H     0.43882   0.32613   0.87877   0.00000  Uiso   1.00
H122   H     0.31260   0.27910   0.65070   0.00000  Uiso   1.00
H123   H     0.38528   0.65838   0.35361   0.00000  Uiso   1.00
H124   H     0.35320   0.78446   0.24031   0.00000  Uiso   1.00
H125   H     0.43324   0.61667   0.23676   0.00000  Uiso   1.00
H126   H     0.37338   0.59437   0.60282   0.00000  Uiso   1.00
H127   H     0.31139   0.89210   0.08457   0.00000  Uiso   1.00
H128   H     0.48015   0.53828   0.07713   0.00000  Uiso   1.00
H129   H     0.35392   0.49125   0.84906   0.00000  Uiso   1.00
O130   O     0.26876   0.86450   0.90664   0.00000  Uiso   1.00
O131   O     0.49017   0.40029   0.89690   0.00000  Uiso   1.00
O132   O     0.32456   0.33859   0.90965   0.00000  Uiso   1.00
N133   N     0.28419   0.71257   0.94847   0.00000  Uiso   1.00
N134   N     0.44197   0.38178   0.94149   0.00000  Uiso   1.00
N135   N     0.32396   0.33780   0.66318   0.00000  Uiso   1.00
N136   N     0.30642   0.82673   0.05521   0.00000  Uiso   1.00
N137   N     0.46420   0.49594   0.04823   0.00000  Uiso   1.00
N138   N     0.34620   0.45196   0.76992   0.00000  Uiso   1.00
C139   C     0.15193   0.03264   0.17501   0.00000  Uiso   1.00
C140   C     0.16411   0.93716   0.13868   0.00000  Uiso   1.00
C141   C     0.18673   0.92047   0.04866   0.00000  Uiso   1.00
C142   C     0.19465   0.82817   0.02920   0.00000  Uiso   1.00
C143   C     0.21570   0.69101   0.96235   0.00000  Uiso   1.00
C144   C     0.12062   0.02832   0.13673   0.00000  Uiso   1.00
C145   C     0.10668   0.08829   0.04509   0.00000  Uiso   1.00
C146   C     0.07800   0.07273   0.02402   0.00000  Uiso   1.00
C147   C     0.03154   0.07714   0.95424   0.00000  Uiso   1.00
C148   C     0.15315   0.04043   0.33562   0.00000  Uiso   1.00
C149   C     0.16655   0.11060   0.41122   0.00000  Uiso   1.00
C150   C     0.16524   0.10525   0.55760   0.00000  Uiso   1.00
C151   C     0.16928   0.12847   0.79663   0.00000  Uiso   1.00
C152   C     0.12578   0.89839   0.30053   0.00000  Uiso   1.00
C153   C     0.14990   0.86425   0.20686   0.00000  Uiso   1.00
C154   C     0.15779   0.77195   0.18753   0.00000  Uiso   1.00
C155   C     0.18042   0.75513   0.09750   0.00000  Uiso   1.00
C156   C     0.10642   0.95541   0.20491   0.00000  Uiso   1.00
C157   C     0.07775   0.93976   0.18397   0.00000  Uiso   1.00
C158   C     0.06377   0.99968   0.09232   0.00000  Uiso   1.00
C159   C     0.13894   0.96752   0.40381   0.00000  Uiso   1.00
C160   C     0.13762   0.96207   0.55010   0.00000  Uiso   1.00
C161   C     0.15101   0.03220   0.62591   0.00000  Uiso   1.00
H162   H     0.16299   0.08941   0.12193   0.00000  Uiso   1.00
H163   H     0.19771   0.97692   0.99590   0.00000  Uiso   1.00
H164   H     0.11768   0.14471   0.99236   0.00000  Uiso   1.00
H165   H     0.17754   0.16701   0.35843   0.00000  Uiso   1.00
H166   H     0.22994   0.82005   0.88621   0.00000  Uiso   1.00
H167   H     0.06118   0.17387   0.87877   0.00000  Uiso   1.00
H168   H     0.18740   0.22090   0.65070   0.00000  Uiso   1.00
H169   H     0.11472   0.84162   0.35361   0.00000  Uiso   1.00
H170   H     0.14680   0.71554   0.24031   0.00000  Uiso   1.00
H171   H     0.06676   0.88333   0.23676   0.00000  Uiso   1.00
H172   H     0.12662   0.90563   0.60282   0.00000  Uiso   1.00
H173   H     0.18861   0.60790   0.08457   0.00000  Uiso   1.00
H174   H     0.01985   0.96172   0.07713   0.00000  Uiso   1.00
H175   H     0.14608   0.00875   0.84906   0.00000  Uiso   1.00
O176   O     0.23124   0.63550   0.90664   0.00000  Uiso   1.00
O177   O     0.00983   0.09971   0.89690   0.00000  Uiso   1.00
O178   O     0.17544   0.16141   0.90965   0.00000  Uiso   1.00
N179   N     0.21581   0.78743   0.94847   0.00000  Uiso   1.00
N180   N     0.05803   0.11822   0.94149   0.00000  Uiso   1.00
N181   N     0.17604   0.16220   0.66318   0.00000  Uiso   1.00
N182   N     0.19358   0.67327   0.05521   0.00000  Uiso   1.00
N183   N     0.03580   0.00406   0.04823   0.00000  Uiso   1.00
N184   N     0.15380   0.04804   0.76992   0.00000  Uiso   1.00
C185   C     0.34807   0.03264   0.67501   0.00000  Uiso   1.00
C186   C     0.33589   0.93716   0.63868   0.00000  Uiso   1.00
C187   C     0.31327   0.92047   0.54866   0.00000  Uiso   1.00
C188   C     0.30535   0.82817   0.52920   0.00000  Uiso   1.00
C189   C     0.28430   0.69101   0.46235   0.00000  Uiso   1.00
C190   C     0.37938   0.02832   0.63673   0.00000  Uiso   1.00
C191   C     0.39332   0.08829   0.54509   0.00000  Uiso   1.00
C192   C     0.42200   0.07273   0.52402   0.00000  Uiso   1.00
C193   C     0.46846   0.07714   0.45424   0.00000  Uiso   1.00
C194   C     0.34685   0.04043   0.83562   0.00000  Uiso   1.00
C195   C     0.33345   0.11060   0.91122   0.00000  Uiso   1.00
C196   C     0.33476   0.10525   0.05760   0.00000  Uiso   1.00
C197   C     0.33072   0.12847   0.29663   0.00000  Uiso   1.00
C198   C     0.37422   0.89839   0.80053   0.00000  Uiso   1.00
C199   C     0.35010   0.86425   0.70686   0.00000  Uiso   1.00
C200   C     0.34221   0.77195   0.68753   0.00000  Uiso   1.00
C201   C     0.31958   0.75513   0.59750   0.00000  Uiso   1.00
C202   C     0.39358   0.95541   0.70491   0.00000  Uiso   1.00
C203   C     0.42225   0.93976   0.68397   0.00000  Uiso   1.00
C204   C     0.43623   0.99968   0.59232   0.00000  Uiso   1.00
C205   C     0.36106   0.96752   0.90381   0.00000  Uiso   1.00
C206   C     0.36238   0.96207   0.05010   0.00000  Uiso   1.00
C207   C     0.34899   0.03220   0.12591   0.00000  Uiso   1.00
H208   H     0.33701   0.08941   0.62193   0.00000  Uiso   1.00
H209   H     0.30229   0.97692   0.49590   0.00000  Uiso   1.00
H210   H     0.38232   0.14471   0.49236   0.00000  Uiso   1.00
H211   H     0.32246   0.16701   0.85843   0.00000  Uiso   1.00
H212   H     0.27006   0.82005   0.38621   0.00000  Uiso   1.00
H213   H     0.43882   0.17387   0.37877   0.00000  Uiso   1.00
H214   H     0.31260   0.22090   0.15070   0.00000  Uiso   1.00
H215   H     0.38528   0.84162   0.85361   0.00000  Uiso   1.00
H216   H     0.35320   0.71554   0.74031   0.00000  Uiso   1.00
H217   H     0.43324   0.88333   0.73676   0.00000  Uiso   1.00
H218   H     0.37338   0.90563   0.10282   0.00000  Uiso   1.00
H219   H     0.31139   0.60790   0.58457   0.00000  Uiso   1.00
H220   H     0.48015   0.96172   0.57713   0.00000  Uiso   1.00
H221   H     0.35392   0.00875   0.34906   0.00000  Uiso   1.00
O222   O     0.26876   0.63550   0.40664   0.00000  Uiso   1.00
O223   O     0.49017   0.09971   0.39690   0.00000  Uiso   1.00
O224   O     0.32456   0.16141   0.40965   0.00000  Uiso   1.00
N225   N     0.28419   0.78743   0.44847   0.00000  Uiso   1.00
N226   N     0.44197   0.11822   0.44149   0.00000  Uiso   1.00
N227   N     0.32396   0.16220   0.16318   0.00000  Uiso   1.00
N228   N     0.30642   0.67327   0.55521   0.00000  Uiso   1.00
N229   N     0.46420   0.00406   0.54823   0.00000  Uiso   1.00
N230   N     0.34620   0.04804   0.26992   0.00000  Uiso   1.00
C231   C     0.15193   0.46736   0.67501   0.00000  Uiso   1.00
C232   C     0.16411   0.56284   0.63868   0.00000  Uiso   1.00
C233   C     0.18673   0.57953   0.54866   0.00000  Uiso   1.00
C234   C     0.19465   0.67183   0.52920   0.00000  Uiso   1.00
C235   C     0.21570   0.80899   0.46235   0.00000  Uiso   1.00
C236   C     0.12062   0.47168   0.63673   0.00000  Uiso   1.00
C237   C     0.10668   0.41171   0.54509   0.00000  Uiso   1.00
C238   C     0.07800   0.42727   0.52402   0.00000  Uiso   1.00
C239   C     0.03154   0.42286   0.45424   0.00000  Uiso   1.00
C240   C     0.15315   0.45957   0.83562   0.00000  Uiso   1.00
C241   C     0.16655   0.38940   0.91122   0.00000  Uiso   1.00
C242   C     0.16524   0.39475   0.05760   0.00000  Uiso   1.00
C243   C     0.16928   0.37153   0.29663   0.00000  Uiso   1.00
C244   C     0.12578   0.60161   0.80053   0.00000  Uiso   1.00
C245   C     0.14990   0.63575   0.70686   0.00000  Uiso   1.00
C246   C     0.15779   0.72805   0.68753   0.00000  Uiso   1.00
C247   C     0.18042   0.74487   0.59750   0.00000  Uiso   1.00
C248   C     0.10642   0.54459   0.70491   0.00000  Uiso   1.00
C249   C     0.07775   0.56024   0.68397   0.00000  Uiso   1.00
C250   C     0.06377   0.50032   0.59232   0.00000  Uiso   1.00
C251   C     0.13894   0.53248   0.90381   0.00000  Uiso   1.00
C252   C     0.13762   0.53793   0.05010   0.00000  Uiso   1.00
C253   C     0.15101   0.46780   0.12591   0.00000  Uiso   1.00
H254   H     0.16299   0.41059   0.62193   0.00000  Uiso   1.00
H255   H     0.19771   0.52308   0.49590   0.00000  Uiso   1.00
H256   H     0.11768   0.35529   0.49236   0.00000  Uiso   1.00
H257   H     0.17754   0.33299   0.85843   0.00000  Uiso   1.00
H258   H     0.22994   0.67995   0.38621   0.00000  Uiso   1.00
H259   H     0.06118   0.32613   0.37877   0.00000  Uiso   1.00
H260   H     0.18740   0.27910   0.15070   0.00000  Uiso   1.00
H261   H     0.11472   0.65838   0.85361   0.00000  Uiso   1.00
H262   H     0.14680   0.78446   0.74031   0.00000  Uiso   1.00
H263   H     0.06676   0.61667   0.73676   0.00000  Uiso   1.00
H264   H     0.12662   0.59437   0.10282   0.00000  Uiso   1.00
H265   H     0.18861   0.89210   0.58457   0.00000  Uiso   1.00
H266   H     0.01985   0.53828   0.57713   0.00000  Uiso   1.00
H267   H     0.14608   0.49125   0.34906   0.00000  Uiso   1.00
O268   O     0.23124   0.86450   0.40664   0.00000  Uiso   1.00
O269   O     0.00983   0.40029   0.39690   0.00000  Uiso   1.00
O270   O     0.17544   0.33859   0.40965   0.00000  Uiso   1.00
N271   N     0.21581   0.71257   0.44847   0.00000  Uiso   1.00
N272   N     0.05803   0.38178   0.44149   0.00000  Uiso   1.00
N273   N     0.17604   0.33780   0.16318   0.00000  Uiso   1.00
N274   N     0.19358   0.82673   0.55521   0.00000  Uiso   1.00
N275   N     0.03580   0.49594   0.54823   0.00000  Uiso   1.00
N276   N     0.15380   0.45196   0.26992   0.00000  Uiso   1.00
C277   C     0.65193   0.53264   0.82499   0.00000  Uiso   1.00
C278   C     0.66411   0.43716   0.86132   0.00000  Uiso   1.00
C279   C     0.68673   0.42047   0.95134   0.00000  Uiso   1.00
C280   C     0.69465   0.32817   0.97080   0.00000  Uiso   1.00
C281   C     0.71570   0.19101   0.03765   0.00000  Uiso   1.00
C282   C     0.62062   0.52832   0.86327   0.00000  Uiso   1.00
C283   C     0.60668   0.58829   0.95491   0.00000  Uiso   1.00
C284   C     0.57800   0.57273   0.97598   0.00000  Uiso   1.00
C285   C     0.53154   0.57714   0.04576   0.00000  Uiso   1.00
C286   C     0.65315   0.54043   0.66438   0.00000  Uiso   1.00
C287   C     0.66655   0.61060   0.58878   0.00000  Uiso   1.00
C288   C     0.66524   0.60525   0.44240   0.00000  Uiso   1.00
C289   C     0.66928   0.62847   0.20337   0.00000  Uiso   1.00
C290   C     0.62578   0.39839   0.69947   0.00000  Uiso   1.00
C291   C     0.64990   0.36425   0.79314   0.00000  Uiso   1.00
C292   C     0.65779   0.27195   0.81247   0.00000  Uiso   1.00
C293   C     0.68042   0.25513   0.90250   0.00000  Uiso   1.00
C294   C     0.60642   0.45541   0.79509   0.00000  Uiso   1.00
C295   C     0.57775   0.43976   0.81603   0.00000  Uiso   1.00
C296   C     0.56377   0.49968   0.90768   0.00000  Uiso   1.00
C297   C     0.63894   0.46752   0.59619   0.00000  Uiso   1.00
C298   C     0.63762   0.46207   0.44990   0.00000  Uiso   1.00
C299   C     0.65101   0.53220   0.37409   0.00000  Uiso   1.00
H300   H     0.66299   0.58941   0.87807   0.00000  Uiso   1.00
H301   H     0.69771   0.47692   0.00410   0.00000  Uiso   1.00
H302   H     0.61768   0.64471   0.00764   0.00000  Uiso   1.00
H303   H     0.67754   0.66701   0.64157   0.00000  Uiso   1.00
H304   H     0.72994   0.32005   0.11379   0.00000  Uiso   1.00
H305   H     0.56118   0.67387   0.12123   0.00000  Uiso   1.00
H306   H     0.68740   0.72090   0.34930   0.00000  Uiso   1.00
H307   H     0.61472   0.34162   0.64639   0.00000  Uiso   1.00
H308   H     0.64680   0.21554   0.75969   0.00000  Uiso   1.00
H309   H     0.56676   0.38333   0.76324   0.00000  Uiso   1.00
H310   H     0.62662   0.40563   0.39718   0.00000  Uiso   1.00
H311   H     0.68861   0.10790   0.91543   0.00000  Uiso   1.00
H312   H     0.51985   0.46172   0.92287   0.00000  Uiso   1.00
H313   H     0.64608   0.50875   0.15094   0.00000  Uiso   1.00
O314   O     0.73124   0.13550   0.09336   0.00000  Uiso   1.00
O315   O     0.50983   0.59971   0.10310   0.00000  Uiso   1.00
O316   O     0.67544   0.66141   0.09035   0.00000  Uiso   1.00
N317   N     0.71581   0.28743   0.05153   0.00000  Uiso   1.00
N318   N     0.55803   0.61822   0.05851   0.00000  Uiso   1.00
N319   N     0.67604   0.66220   0.33682   0.00000  Uiso   1.00
N320   N     0.69358   0.17327   0.94479   0.00000  Uiso   1.00
N321   N     0.53580   0.50406   0.95177   0.00000  Uiso   1.00
N322   N     0.65380   0.54804   0.23008   0.00000  Uiso   1.00
C323   C     0.84807   0.96736   0.82499   0.00000  Uiso   1.00
C324   C     0.83589   0.06284   0.86132   0.00000  Uiso   1.00
C325   C     0.81327   0.07953   0.95134   0.00000  Uiso   1.00
C326   C     0.80535   0.17183   0.97080   0.00000  Uiso   1.00
C327   C     0.78430   0.30899   0.03765   0.00000  Uiso   1.00
C328   C     0.87938   0.97168   0.86327   0.00000  Uiso   1.00
C329   C     0.89332   0.91171   0.95491   0.00000  Uiso   1.00
C330   C     0.92200   0.92727   0.97598   0.00000  Uiso   1.00
C331   C     0.96846   0.92286   0.04576   0.00000  Uiso   1.00
C332   C     0.84685   0.95957   0.66438   0.00000  Uiso   1.00
C333   C     0.83345   0.88940   0.58878   0.00000  Uiso   1.00
C334   C     0.83476   0.89475   0.44240   0.00000  Uiso   1.00
C335   C     0.83072   0.87153   0.20337   0.00000  Uiso   1.00
C336   C     0.87422   0.10161   0.69947   0.00000  Uiso   1.00
C337   C     0.85010   0.13575   0.79314   0.00000  Uiso   1.00
C338   C     0.84221   0.22805   0.81247   0.00000  Uiso   1.00
C339   C     0.81958   0.24487   0.90250   0.00000  Uiso   1.00
C340   C     0.89358   0.04459   0.79509   0.00000  Uiso   1.00
C341   C     0.92225   0.06024   0.81603   0.00000  Uiso   1.00
C342   C     0.93623   0.00032   0.90768   0.00000  Uiso   1.00
C343   C     0.86106   0.03248   0.59619   0.00000  Uiso   1.00
C344   C     0.86238   0.03793   0.44990   0.00000  Uiso   1.00
C345   C     0.84899   0.96780   0.37409   0.00000  Uiso   1.00
H346   H     0.83701   0.91059   0.87807   0.00000  Uiso   1.00
H347   H     0.80229   0.02308   0.00410   0.00000  Uiso   1.00
H348   H     0.88232   0.85529   0.00764   0.00000  Uiso   1.00
H349   H     0.82246   0.83299   0.64157   0.00000  Uiso   1.00
H350   H     0.77006   0.17995   0.11379   0.00000  Uiso   1.00
H351   H     0.93882   0.82613   0.12123   0.00000  Uiso   1.00
H352   H     0.81260   0.77910   0.34930   0.00000  Uiso   1.00
H353   H     0.88528   0.15838   0.64639   0.00000  Uiso   1.00
H354   H     0.85320   0.28446   0.75969   0.00000  Uiso   1.00
H355   H     0.93324   0.11667   0.76324   0.00000  Uiso   1.00
H356   H     0.87338   0.09437   0.39718   0.00000  Uiso   1.00
H357   H     0.81139   0.39210   0.91543   0.00000  Uiso   1.00
H358   H     0.98015   0.03828   0.92287   0.00000  Uiso   1.00
H359   H     0.85392   0.99125   0.15094   0.00000  Uiso   1.00
O360   O     0.76876   0.36450   0.09336   0.00000  Uiso   1.00
O361   O     0.99017   0.90029   0.10310   0.00000  Uiso   1.00
O362   O     0.82456   0.83859   0.09035   0.00000  Uiso   1.00
N363   N     0.78419   0.21257   0.05153   0.00000  Uiso   1.00
N364   N     0.94197   0.88178   0.05851   0.00000  Uiso   1.00
N365   N     0.82396   0.83780   0.33682   0.00000  Uiso   1.00
N366   N     0.80642   0.32673   0.94479   0.00000  Uiso   1.00
N367   N     0.96420   0.99594   0.95177   0.00000  Uiso   1.00
N368   N     0.84620   0.95196   0.23008   0.00000  Uiso   1.00
