data_job_02728
_audit_creation_date              2018-12-19
_audit_creation_method            'Materials Studio'
_symmetry_space_group_name_H-M    'P1'
_symmetry_Int_Tables_number       1
_symmetry_cell_setting            triclinic
loop_
_symmetry_equiv_pos_as_xyz
  x,y,z
_cell_length_a                    10.7114
_cell_length_b                    10.7114
_cell_length_c                    44.3760
_cell_angle_alpha                 90.0000
_cell_angle_beta                  90.0000
_cell_angle_gamma                 90.0000
loop_
_atom_site_label
_atom_site_type_symbol
_atom_site_fract_x
_atom_site_fract_y
_atom_site_fract_z
_atom_site_U_iso_or_equiv
_atom_site_adp_type
_atom_site_occupancy
C1     C     0.87226   0.61118   0.10030   0.00000  Uiso   1.00
C2     C     0.95933   0.54795   0.12280   0.00000  Uiso   1.00
C3     C     0.95868   0.56585   0.15377   0.00000  Uiso   1.00
C4     C     0.04584   0.49932   0.17045   0.00000  Uiso   1.00
C5     C     0.16820   0.41358   0.20749   0.00000  Uiso   1.00
C6     C     0.95645   0.67673   0.07755   0.00000  Uiso   1.00
C7     C     0.95337   0.80290   0.07048   0.00000  Uiso   1.00
C8     C     0.03811   0.84477   0.04907   0.00000  Uiso   1.00
C9     C     0.15594   0.95895   0.01584   0.00000  Uiso   1.00
C10    C     0.80787   0.50608   0.08311   0.00000  Uiso   1.00
C11    C     0.67985   0.48878   0.08070   0.00000  Uiso   1.00
C12    C     0.63949   0.38698   0.06395   0.00000  Uiso   1.00
C13    C     0.52662   0.23619   0.03935   0.00000  Uiso   1.00
C14    C     0.02821   0.46118   0.07485   0.00000  Uiso   1.00
C15    C     0.04404   0.46648   0.10897   0.00000  Uiso   1.00
C16    C     0.13122   0.39990   0.12561   0.00000  Uiso   1.00
C17    C     0.13070   0.41770   0.15661   0.00000  Uiso   1.00
C18    C     0.04116   0.59527   0.06373   0.00000  Uiso   1.00
C19    C     0.12592   0.63695   0.04232   0.00000  Uiso   1.00
C20    C     0.12297   0.76315   0.03522   0.00000  Uiso   1.00
C21    C     0.89258   0.42460   0.06928   0.00000  Uiso   1.00
C22    C     0.85240   0.32282   0.05254   0.00000  Uiso   1.00
C23    C     0.72435   0.30536   0.05010   0.00000  Uiso   1.00
H24    H     0.80631   0.67462   0.11106   0.00000  Uiso   1.00
H25    H     0.89312   0.62892   0.16446   0.00000  Uiso   1.00
H26    H     0.88780   0.86593   0.08118   0.00000  Uiso   1.00
H27    H     0.61433   0.55184   0.09140   0.00000  Uiso   1.00
H28    H     0.02674   0.54236   0.21757   0.00000  Uiso   1.00
H29    H     0.01551   0.04210   0.04195   0.00000  Uiso   1.00
H30    H     0.43884   0.37980   0.06350   0.00000  Uiso   1.00
H31    H     0.09416   0.39775   0.06408   0.00000  Uiso   1.00
H32    H     0.19676   0.33686   0.11491   0.00000  Uiso   1.00
H33    H     0.19145   0.57387   0.03163   0.00000  Uiso   1.00
H34    H     0.91798   0.25979   0.04184   0.00000  Uiso   1.00
H35    H     0.27320   0.30532   0.17735   0.00000  Uiso   1.00
H36    H     0.26196   0.80506   0.00173   0.00000  Uiso   1.00
H37    H     0.68530   0.14276   0.02328   0.00000  Uiso   1.00
O38    O     0.21230   0.38881   0.23174   0.00000  Uiso   1.00
O39    O     0.19754   0.04444   0.00134   0.00000  Uiso   1.00
O40    O     0.44097   0.17552   0.02960   0.00000  Uiso   1.00
N41    N     0.07065   0.49491   0.20113   0.00000  Uiso   1.00
N42    N     0.06016   0.96214   0.03694   0.00000  Uiso   1.00
N43    N     0.52102   0.34296   0.05708   0.00000  Uiso   1.00
N44    N     0.20326   0.36736   0.17949   0.00000  Uiso   1.00
N45    N     0.19277   0.83459   0.01530   0.00000  Uiso   1.00
N46    N     0.65364   0.21541   0.03544   0.00000  Uiso   1.00
C47    C     0.12774   0.38882   0.60030   0.00000  Uiso   1.00
C48    C     0.04067   0.45205   0.62280   0.00000  Uiso   1.00
C49    C     0.04132   0.43415   0.65377   0.00000  Uiso   1.00
C50    C     0.95416   0.50068   0.67045   0.00000  Uiso   1.00
C51    C     0.83180   0.58642   0.70749   0.00000  Uiso   1.00
C52    C     0.04355   0.32327   0.57755   0.00000  Uiso   1.00
C53    C     0.04663   0.19710   0.57048   0.00000  Uiso   1.00
C54    C     0.96189   0.15523   0.54907   0.00000  Uiso   1.00
C55    C     0.84406   0.04105   0.51584   0.00000  Uiso   1.00
C56    C     0.19213   0.49392   0.58311   0.00000  Uiso   1.00
C57    C     0.32015   0.51122   0.58070   0.00000  Uiso   1.00
C58    C     0.36051   0.61302   0.56395   0.00000  Uiso   1.00
C59    C     0.47338   0.76381   0.53935   0.00000  Uiso   1.00
C60    C     0.97179   0.53882   0.57485   0.00000  Uiso   1.00
C61    C     0.95596   0.53352   0.60897   0.00000  Uiso   1.00
C62    C     0.86878   0.60010   0.62561   0.00000  Uiso   1.00
C63    C     0.86930   0.58230   0.65661   0.00000  Uiso   1.00
C64    C     0.95884   0.40473   0.56373   0.00000  Uiso   1.00
C65    C     0.87408   0.36305   0.54232   0.00000  Uiso   1.00
C66    C     0.87703   0.23685   0.53522   0.00000  Uiso   1.00
C67    C     0.10742   0.57540   0.56928   0.00000  Uiso   1.00
C68    C     0.14760   0.67718   0.55254   0.00000  Uiso   1.00
C69    C     0.27565   0.69464   0.55010   0.00000  Uiso   1.00
H70    H     0.19369   0.32538   0.61106   0.00000  Uiso   1.00
H71    H     0.10688   0.37108   0.66446   0.00000  Uiso   1.00
H72    H     0.11220   0.13407   0.58118   0.00000  Uiso   1.00
H73    H     0.38567   0.44816   0.59140   0.00000  Uiso   1.00
H74    H     0.97326   0.45764   0.71757   0.00000  Uiso   1.00
H75    H     0.98449   0.95790   0.54195   0.00000  Uiso   1.00
H76    H     0.56116   0.62020   0.56350   0.00000  Uiso   1.00
H77    H     0.90584   0.60225   0.56408   0.00000  Uiso   1.00
H78    H     0.80324   0.66314   0.61491   0.00000  Uiso   1.00
H79    H     0.80855   0.42613   0.53163   0.00000  Uiso   1.00
H80    H     0.08202   0.74021   0.54184   0.00000  Uiso   1.00
H81    H     0.72680   0.69468   0.67735   0.00000  Uiso   1.00
H82    H     0.73804   0.19494   0.50173   0.00000  Uiso   1.00
H83    H     0.31470   0.85724   0.52328   0.00000  Uiso   1.00
O84    O     0.78770   0.61119   0.73174   0.00000  Uiso   1.00
O85    O     0.80246   0.95556   0.50134   0.00000  Uiso   1.00
O86    O     0.55903   0.82448   0.52960   0.00000  Uiso   1.00
N87    N     0.92935   0.50509   0.70113   0.00000  Uiso   1.00
N88    N     0.93984   0.03786   0.53694   0.00000  Uiso   1.00
N89    N     0.47898   0.65704   0.55708   0.00000  Uiso   1.00
N90    N     0.79674   0.63264   0.67949   0.00000  Uiso   1.00
N91    N     0.80723   0.16541   0.51530   0.00000  Uiso   1.00
N92    N     0.34636   0.78459   0.53544   0.00000  Uiso   1.00
C93    C     0.38882   0.87226   0.35030   0.00000  Uiso   1.00
C94    C     0.45205   0.95933   0.37280   0.00000  Uiso   1.00
C95    C     0.43415   0.95868   0.40377   0.00000  Uiso   1.00
C96    C     0.50068   0.04584   0.42045   0.00000  Uiso   1.00
C97    C     0.58642   0.16820   0.45749   0.00000  Uiso   1.00
C98    C     0.32327   0.95645   0.32755   0.00000  Uiso   1.00
C99    C     0.19710   0.95337   0.32048   0.00000  Uiso   1.00
C100   C     0.15523   0.03811   0.29907   0.00000  Uiso   1.00
C101   C     0.04105   0.15594   0.26584   0.00000  Uiso   1.00
C102   C     0.49392   0.80787   0.33311   0.00000  Uiso   1.00
C103   C     0.51122   0.67985   0.33070   0.00000  Uiso   1.00
C104   C     0.61302   0.63949   0.31395   0.00000  Uiso   1.00
C105   C     0.76381   0.52662   0.28935   0.00000  Uiso   1.00
C106   C     0.53882   0.02821   0.32485   0.00000  Uiso   1.00
C107   C     0.53352   0.04404   0.35897   0.00000  Uiso   1.00
C108   C     0.60010   0.13122   0.37561   0.00000  Uiso   1.00
C109   C     0.58230   0.13070   0.40661   0.00000  Uiso   1.00
C110   C     0.40473   0.04116   0.31373   0.00000  Uiso   1.00
C111   C     0.36305   0.12592   0.29232   0.00000  Uiso   1.00
C112   C     0.23685   0.12297   0.28522   0.00000  Uiso   1.00
C113   C     0.57540   0.89258   0.31928   0.00000  Uiso   1.00
C114   C     0.67718   0.85240   0.30254   0.00000  Uiso   1.00
C115   C     0.69464   0.72435   0.30010   0.00000  Uiso   1.00
H116   H     0.32538   0.80631   0.36106   0.00000  Uiso   1.00
H117   H     0.37108   0.89312   0.41446   0.00000  Uiso   1.00
H118   H     0.13407   0.88780   0.33118   0.00000  Uiso   1.00
H119   H     0.44816   0.61433   0.34140   0.00000  Uiso   1.00
H120   H     0.45764   0.02674   0.46757   0.00000  Uiso   1.00
H121   H     0.95790   0.01551   0.29195   0.00000  Uiso   1.00
H122   H     0.62020   0.43884   0.31350   0.00000  Uiso   1.00
H123   H     0.60225   0.09416   0.31408   0.00000  Uiso   1.00
H124   H     0.66314   0.19676   0.36491   0.00000  Uiso   1.00
H125   H     0.42613   0.19145   0.28163   0.00000  Uiso   1.00
H126   H     0.74021   0.91798   0.29184   0.00000  Uiso   1.00
H127   H     0.69468   0.27320   0.42735   0.00000  Uiso   1.00
H128   H     0.19494   0.26196   0.25173   0.00000  Uiso   1.00
H129   H     0.85724   0.68530   0.27328   0.00000  Uiso   1.00
O130   O     0.61119   0.21230   0.48174   0.00000  Uiso   1.00
O131   O     0.95556   0.19754   0.25134   0.00000  Uiso   1.00
O132   O     0.82448   0.44097   0.27960   0.00000  Uiso   1.00
N133   N     0.50509   0.07065   0.45113   0.00000  Uiso   1.00
N134   N     0.03786   0.06016   0.28694   0.00000  Uiso   1.00
N135   N     0.65704   0.52102   0.30708   0.00000  Uiso   1.00
N136   N     0.63264   0.20326   0.42949   0.00000  Uiso   1.00
N137   N     0.16541   0.19277   0.26530   0.00000  Uiso   1.00
N138   N     0.78459   0.65364   0.28544   0.00000  Uiso   1.00
C139   C     0.61118   0.12774   0.85030   0.00000  Uiso   1.00
C140   C     0.54795   0.04067   0.87280   0.00000  Uiso   1.00
C141   C     0.56585   0.04132   0.90377   0.00000  Uiso   1.00
C142   C     0.49932   0.95416   0.92045   0.00000  Uiso   1.00
C143   C     0.41358   0.83180   0.95749   0.00000  Uiso   1.00
C144   C     0.67673   0.04355   0.82755   0.00000  Uiso   1.00
C145   C     0.80290   0.04663   0.82048   0.00000  Uiso   1.00
C146   C     0.84477   0.96189   0.79907   0.00000  Uiso   1.00
C147   C     0.95895   0.84406   0.76584   0.00000  Uiso   1.00
C148   C     0.50608   0.19213   0.83311   0.00000  Uiso   1.00
C149   C     0.48878   0.32015   0.83070   0.00000  Uiso   1.00
C150   C     0.38698   0.36051   0.81395   0.00000  Uiso   1.00
C151   C     0.23619   0.47338   0.78935   0.00000  Uiso   1.00
C152   C     0.46118   0.97179   0.82485   0.00000  Uiso   1.00
C153   C     0.46648   0.95596   0.85897   0.00000  Uiso   1.00
C154   C     0.39990   0.86878   0.87561   0.00000  Uiso   1.00
C155   C     0.41770   0.86930   0.90661   0.00000  Uiso   1.00
C156   C     0.59527   0.95884   0.81373   0.00000  Uiso   1.00
C157   C     0.63695   0.87408   0.79232   0.00000  Uiso   1.00
C158   C     0.76315   0.87703   0.78522   0.00000  Uiso   1.00
C159   C     0.42460   0.10742   0.81928   0.00000  Uiso   1.00
C160   C     0.32282   0.14760   0.80254   0.00000  Uiso   1.00
C161   C     0.30536   0.27565   0.80010   0.00000  Uiso   1.00
H162   H     0.67462   0.19369   0.86106   0.00000  Uiso   1.00
H163   H     0.62892   0.10688   0.91446   0.00000  Uiso   1.00
H164   H     0.86593   0.11220   0.83118   0.00000  Uiso   1.00
H165   H     0.55184   0.38567   0.84140   0.00000  Uiso   1.00
H166   H     0.54236   0.97326   0.96757   0.00000  Uiso   1.00
H167   H     0.04210   0.98449   0.79195   0.00000  Uiso   1.00
H168   H     0.37980   0.56116   0.81350   0.00000  Uiso   1.00
H169   H     0.39775   0.90584   0.81408   0.00000  Uiso   1.00
H170   H     0.33686   0.80324   0.86491   0.00000  Uiso   1.00
H171   H     0.57387   0.80855   0.78163   0.00000  Uiso   1.00
H172   H     0.25979   0.08202   0.79184   0.00000  Uiso   1.00
H173   H     0.30532   0.72680   0.92735   0.00000  Uiso   1.00
H174   H     0.80506   0.73804   0.75173   0.00000  Uiso   1.00
H175   H     0.14276   0.31470   0.77328   0.00000  Uiso   1.00
O176   O     0.38881   0.78770   0.98174   0.00000  Uiso   1.00
O177   O     0.04444   0.80246   0.75134   0.00000  Uiso   1.00
O178   O     0.17552   0.55903   0.77960   0.00000  Uiso   1.00
N179   N     0.49491   0.92935   0.95113   0.00000  Uiso   1.00
N180   N     0.96214   0.93984   0.78694   0.00000  Uiso   1.00
N181   N     0.34296   0.47898   0.80708   0.00000  Uiso   1.00
N182   N     0.36736   0.79674   0.92949   0.00000  Uiso   1.00
N183   N     0.83459   0.80723   0.76530   0.00000  Uiso   1.00
N184   N     0.21541   0.34636   0.78544   0.00000  Uiso   1.00
C185   C     0.12774   0.61118   0.89970   0.00000  Uiso   1.00
C186   C     0.04067   0.54795   0.87720   0.00000  Uiso   1.00
C187   C     0.04132   0.56585   0.84623   0.00000  Uiso   1.00
C188   C     0.95416   0.49932   0.82955   0.00000  Uiso   1.00
C189   C     0.83180   0.41358   0.79251   0.00000  Uiso   1.00
C190   C     0.04355   0.67673   0.92245   0.00000  Uiso   1.00
C191   C     0.04663   0.80290   0.92952   0.00000  Uiso   1.00
C192   C     0.96189   0.84477   0.95093   0.00000  Uiso   1.00
C193   C     0.84406   0.95895   0.98416   0.00000  Uiso   1.00
C194   C     0.19213   0.50608   0.91689   0.00000  Uiso   1.00
C195   C     0.32015   0.48878   0.91930   0.00000  Uiso   1.00
C196   C     0.36051   0.38698   0.93605   0.00000  Uiso   1.00
C197   C     0.47338   0.23619   0.96065   0.00000  Uiso   1.00
C198   C     0.97179   0.46118   0.92515   0.00000  Uiso   1.00
C199   C     0.95596   0.46648   0.89103   0.00000  Uiso   1.00
C200   C     0.86878   0.39990   0.87439   0.00000  Uiso   1.00
C201   C     0.86930   0.41770   0.84339   0.00000  Uiso   1.00
C202   C     0.95884   0.59527   0.93627   0.00000  Uiso   1.00
C203   C     0.87408   0.63695   0.95768   0.00000  Uiso   1.00
C204   C     0.87703   0.76315   0.96478   0.00000  Uiso   1.00
C205   C     0.10742   0.42460   0.93072   0.00000  Uiso   1.00
C206   C     0.14760   0.32282   0.94746   0.00000  Uiso   1.00
C207   C     0.27565   0.30536   0.94990   0.00000  Uiso   1.00
H208   H     0.19369   0.67462   0.88894   0.00000  Uiso   1.00
H209   H     0.10688   0.62892   0.83554   0.00000  Uiso   1.00
H210   H     0.11220   0.86593   0.91882   0.00000  Uiso   1.00
H211   H     0.38567   0.55184   0.90860   0.00000  Uiso   1.00
H212   H     0.97326   0.54236   0.78243   0.00000  Uiso   1.00
H213   H     0.98449   0.04210   0.95805   0.00000  Uiso   1.00
H214   H     0.56116   0.37980   0.93650   0.00000  Uiso   1.00
H215   H     0.90584   0.39775   0.93592   0.00000  Uiso   1.00
H216   H     0.80324   0.33686   0.88509   0.00000  Uiso   1.00
H217   H     0.80855   0.57387   0.96837   0.00000  Uiso   1.00
H218   H     0.08202   0.25979   0.95816   0.00000  Uiso   1.00
H219   H     0.72680   0.30532   0.82265   0.00000  Uiso   1.00
H220   H     0.73804   0.80506   0.99827   0.00000  Uiso   1.00
H221   H     0.31470   0.14276   0.97672   0.00000  Uiso   1.00
O222   O     0.78770   0.38881   0.76826   0.00000  Uiso   1.00
O223   O     0.80246   0.04444   0.99866   0.00000  Uiso   1.00
O224   O     0.55903   0.17552   0.97040   0.00000  Uiso   1.00
N225   N     0.92935   0.49491   0.79887   0.00000  Uiso   1.00
N226   N     0.93984   0.96214   0.96306   0.00000  Uiso   1.00
N227   N     0.47898   0.34296   0.94292   0.00000  Uiso   1.00
N228   N     0.79674   0.36736   0.82051   0.00000  Uiso   1.00
N229   N     0.80723   0.83459   0.98470   0.00000  Uiso   1.00
N230   N     0.34636   0.21541   0.96456   0.00000  Uiso   1.00
C231   C     0.87226   0.38882   0.39970   0.00000  Uiso   1.00
C232   C     0.95933   0.45205   0.37720   0.00000  Uiso   1.00
C233   C     0.95868   0.43415   0.34623   0.00000  Uiso   1.00
C234   C     0.04584   0.50068   0.32955   0.00000  Uiso   1.00
C235   C     0.16820   0.58642   0.29251   0.00000  Uiso   1.00
C236   C     0.95645   0.32327   0.42245   0.00000  Uiso   1.00
C237   C     0.95337   0.19710   0.42952   0.00000  Uiso   1.00
C238   C     0.03811   0.15523   0.45093   0.00000  Uiso   1.00
C239   C     0.15594   0.04105   0.48416   0.00000  Uiso   1.00
C240   C     0.80787   0.49392   0.41689   0.00000  Uiso   1.00
C241   C     0.67985   0.51122   0.41930   0.00000  Uiso   1.00
C242   C     0.63949   0.61302   0.43605   0.00000  Uiso   1.00
C243   C     0.52662   0.76381   0.46065   0.00000  Uiso   1.00
C244   C     0.02821   0.53882   0.42515   0.00000  Uiso   1.00
C245   C     0.04404   0.53352   0.39103   0.00000  Uiso   1.00
C246   C     0.13122   0.60010   0.37439   0.00000  Uiso   1.00
C247   C     0.13070   0.58230   0.34339   0.00000  Uiso   1.00
C248   C     0.04116   0.40473   0.43627   0.00000  Uiso   1.00
C249   C     0.12592   0.36305   0.45768   0.00000  Uiso   1.00
C250   C     0.12297   0.23685   0.46478   0.00000  Uiso   1.00
C251   C     0.89258   0.57540   0.43072   0.00000  Uiso   1.00
C252   C     0.85240   0.67718   0.44746   0.00000  Uiso   1.00
C253   C     0.72435   0.69464   0.44990   0.00000  Uiso   1.00
H254   H     0.80631   0.32538   0.38894   0.00000  Uiso   1.00
H255   H     0.89312   0.37108   0.33554   0.00000  Uiso   1.00
H256   H     0.88780   0.13407   0.41882   0.00000  Uiso   1.00
H257   H     0.61433   0.44816   0.40860   0.00000  Uiso   1.00
H258   H     0.02674   0.45764   0.28243   0.00000  Uiso   1.00
H259   H     0.01551   0.95790   0.45805   0.00000  Uiso   1.00
H260   H     0.43884   0.62020   0.43650   0.00000  Uiso   1.00
H261   H     0.09416   0.60225   0.43592   0.00000  Uiso   1.00
H262   H     0.19676   0.66314   0.38509   0.00000  Uiso   1.00
H263   H     0.19145   0.42613   0.46837   0.00000  Uiso   1.00
H264   H     0.91798   0.74021   0.45816   0.00000  Uiso   1.00
H265   H     0.27320   0.69468   0.32265   0.00000  Uiso   1.00
H266   H     0.26196   0.19494   0.49827   0.00000  Uiso   1.00
H267   H     0.68530   0.85724   0.47672   0.00000  Uiso   1.00
O268   O     0.21230   0.61119   0.26826   0.00000  Uiso   1.00
O269   O     0.19754   0.95556   0.49866   0.00000  Uiso   1.00
O270   O     0.44097   0.82448   0.47040   0.00000  Uiso   1.00
N271   N     0.07065   0.50509   0.29887   0.00000  Uiso   1.00
N272   N     0.06016   0.03786   0.46306   0.00000  Uiso   1.00
N273   N     0.52102   0.65704   0.44292   0.00000  Uiso   1.00
N274   N     0.20326   0.63264   0.32051   0.00000  Uiso   1.00
N275   N     0.19277   0.16541   0.48470   0.00000  Uiso   1.00
N276   N     0.65364   0.78459   0.46456   0.00000  Uiso   1.00
C277   C     0.61118   0.87226   0.64970   0.00000  Uiso   1.00
C278   C     0.54795   0.95933   0.62720   0.00000  Uiso   1.00
C279   C     0.56585   0.95868   0.59623   0.00000  Uiso   1.00
C280   C     0.49932   0.04584   0.57955   0.00000  Uiso   1.00
C281   C     0.41358   0.16820   0.54251   0.00000  Uiso   1.00
C282   C     0.67673   0.95645   0.67245   0.00000  Uiso   1.00
C283   C     0.80290   0.95337   0.67952   0.00000  Uiso   1.00
C284   C     0.84477   0.03811   0.70093   0.00000  Uiso   1.00
C285   C     0.95895   0.15594   0.73416   0.00000  Uiso   1.00
C286   C     0.50608   0.80787   0.66689   0.00000  Uiso   1.00
C287   C     0.48878   0.67985   0.66930   0.00000  Uiso   1.00
C288   C     0.38698   0.63949   0.68605   0.00000  Uiso   1.00
C289   C     0.23619   0.52662   0.71065   0.00000  Uiso   1.00
C290   C     0.46118   0.02821   0.67515   0.00000  Uiso   1.00
C291   C     0.46648   0.04404   0.64103   0.00000  Uiso   1.00
C292   C     0.39990   0.13122   0.62439   0.00000  Uiso   1.00
C293   C     0.41770   0.13070   0.59339   0.00000  Uiso   1.00
C294   C     0.59527   0.04116   0.68627   0.00000  Uiso   1.00
C295   C     0.63695   0.12592   0.70768   0.00000  Uiso   1.00
C296   C     0.76315   0.12297   0.71478   0.00000  Uiso   1.00
C297   C     0.42460   0.89258   0.68072   0.00000  Uiso   1.00
C298   C     0.32282   0.85240   0.69746   0.00000  Uiso   1.00
C299   C     0.30536   0.72435   0.69990   0.00000  Uiso   1.00
H300   H     0.67462   0.80631   0.63894   0.00000  Uiso   1.00
H301   H     0.62892   0.89312   0.58554   0.00000  Uiso   1.00
H302   H     0.86593   0.88780   0.66882   0.00000  Uiso   1.00
H303   H     0.55184   0.61433   0.65860   0.00000  Uiso   1.00
H304   H     0.54236   0.02674   0.53243   0.00000  Uiso   1.00
H305   H     0.04210   0.01551   0.70805   0.00000  Uiso   1.00
H306   H     0.37980   0.43884   0.68650   0.00000  Uiso   1.00
H307   H     0.39775   0.09416   0.68592   0.00000  Uiso   1.00
H308   H     0.33686   0.19676   0.63509   0.00000  Uiso   1.00
H309   H     0.57387   0.19145   0.71837   0.00000  Uiso   1.00
H310   H     0.25979   0.91798   0.70816   0.00000  Uiso   1.00
H311   H     0.30532   0.27320   0.57265   0.00000  Uiso   1.00
H312   H     0.80506   0.26196   0.74827   0.00000  Uiso   1.00
H313   H     0.14276   0.68530   0.72672   0.00000  Uiso   1.00
O314   O     0.38881   0.21230   0.51826   0.00000  Uiso   1.00
O315   O     0.04444   0.19754   0.74866   0.00000  Uiso   1.00
O316   O     0.17552   0.44097   0.72040   0.00000  Uiso   1.00
N317   N     0.49491   0.07065   0.54887   0.00000  Uiso   1.00
N318   N     0.96214   0.06016   0.71306   0.00000  Uiso   1.00
N319   N     0.34296   0.52102   0.69292   0.00000  Uiso   1.00
N320   N     0.36736   0.20326   0.57051   0.00000  Uiso   1.00
N321   N     0.83459   0.19277   0.73470   0.00000  Uiso   1.00
N322   N     0.21541   0.65364   0.71456   0.00000  Uiso   1.00
C323   C     0.38882   0.12774   0.14970   0.00000  Uiso   1.00
C324   C     0.45205   0.04067   0.12720   0.00000  Uiso   1.00
C325   C     0.43415   0.04132   0.09623   0.00000  Uiso   1.00
C326   C     0.50068   0.95416   0.07955   0.00000  Uiso   1.00
C327   C     0.58642   0.83180   0.04251   0.00000  Uiso   1.00
C328   C     0.32327   0.04355   0.17245   0.00000  Uiso   1.00
C329   C     0.19710   0.04663   0.17952   0.00000  Uiso   1.00
C330   C     0.15523   0.96189   0.20093   0.00000  Uiso   1.00
C331   C     0.04105   0.84406   0.23416   0.00000  Uiso   1.00
C332   C     0.49392   0.19213   0.16689   0.00000  Uiso   1.00
C333   C     0.51122   0.32015   0.16930   0.00000  Uiso   1.00
C334   C     0.61302   0.36051   0.18605   0.00000  Uiso   1.00
C335   C     0.76381   0.47338   0.21065   0.00000  Uiso   1.00
C336   C     0.53882   0.97179   0.17515   0.00000  Uiso   1.00
C337   C     0.53352   0.95596   0.14103   0.00000  Uiso   1.00
C338   C     0.60010   0.86878   0.12439   0.00000  Uiso   1.00
C339   C     0.58230   0.86930   0.09339   0.00000  Uiso   1.00
C340   C     0.40473   0.95884   0.18627   0.00000  Uiso   1.00
C341   C     0.36305   0.87408   0.20768   0.00000  Uiso   1.00
C342   C     0.23685   0.87703   0.21478   0.00000  Uiso   1.00
C343   C     0.57540   0.10742   0.18072   0.00000  Uiso   1.00
C344   C     0.67718   0.14760   0.19746   0.00000  Uiso   1.00
C345   C     0.69464   0.27565   0.19990   0.00000  Uiso   1.00
H346   H     0.32538   0.19369   0.13894   0.00000  Uiso   1.00
H347   H     0.37108   0.10688   0.08554   0.00000  Uiso   1.00
H348   H     0.13407   0.11220   0.16882   0.00000  Uiso   1.00
H349   H     0.44816   0.38567   0.15860   0.00000  Uiso   1.00
H350   H     0.45764   0.97326   0.03243   0.00000  Uiso   1.00
H351   H     0.95790   0.98449   0.20805   0.00000  Uiso   1.00
H352   H     0.62020   0.56116   0.18650   0.00000  Uiso   1.00
H353   H     0.60225   0.90584   0.18592   0.00000  Uiso   1.00
H354   H     0.66314   0.80324   0.13509   0.00000  Uiso   1.00
H355   H     0.42613   0.80855   0.21837   0.00000  Uiso   1.00
H356   H     0.74021   0.08202   0.20816   0.00000  Uiso   1.00
H357   H     0.69468   0.72680   0.07265   0.00000  Uiso   1.00
H358   H     0.19494   0.73804   0.24827   0.00000  Uiso   1.00
H359   H     0.85724   0.31470   0.22672   0.00000  Uiso   1.00
O360   O     0.61119   0.78770   0.01826   0.00000  Uiso   1.00
O361   O     0.95556   0.80246   0.24866   0.00000  Uiso   1.00
O362   O     0.82448   0.55903   0.22040   0.00000  Uiso   1.00
N363   N     0.50509   0.92935   0.04887   0.00000  Uiso   1.00
N364   N     0.03786   0.93984   0.21306   0.00000  Uiso   1.00
N365   N     0.65704   0.47898   0.19292   0.00000  Uiso   1.00
N366   N     0.63264   0.79674   0.07051   0.00000  Uiso   1.00
N367   N     0.16541   0.80723   0.23470   0.00000  Uiso   1.00
N368   N     0.78459   0.34636   0.21456   0.00000  Uiso   1.00
