data_job_07091
_audit_creation_date              2018-12-19
_audit_creation_method            'Materials Studio'
_symmetry_space_group_name_H-M    'P1'
_symmetry_Int_Tables_number       1
_symmetry_cell_setting            triclinic
loop_
_symmetry_equiv_pos_as_xyz
  x,y,z
_cell_length_a                    14.2378
_cell_length_b                    29.9791
_cell_length_c                    31.0971
_cell_angle_alpha                 111.8470
_cell_angle_beta                  100.1004
_cell_angle_gamma                 95.8917
loop_
_atom_site_label
_atom_site_type_symbol
_atom_site_fract_x
_atom_site_fract_y
_atom_site_fract_z
_atom_site_U_iso_or_equiv
_atom_site_adp_type
_atom_site_occupancy
C1     C     0.90702   0.46025   0.39645   0.00000  Uiso   1.00
C2     C     0.89020   0.42275   0.41789   0.00000  Uiso   1.00
C3     C     0.96206   0.40617   0.44107   0.00000  Uiso   1.00
C4     C     0.93177   0.37178   0.45816   0.00000  Uiso   1.00
C5     C     0.92065   0.31613   0.49234   0.00000  Uiso   1.00
C6     C     0.85311   0.43543   0.34423   0.00000  Uiso   1.00
C7     C     0.89380   0.42952   0.30548   0.00000  Uiso   1.00
C8     C     0.83229   0.40582   0.26056   0.00000  Uiso   1.00
C9     C     0.76358   0.36990   0.18039   0.00000  Uiso   1.00
C10    C     0.85332   0.50093   0.41975   0.00000  Uiso   1.00
C11    C     0.89417   0.55011   0.44448   0.00000  Uiso   1.00
C12    C     0.83282   0.58155   0.46313   0.00000  Uiso   1.00
C13    C     0.76443   0.64734   0.50021   0.00000  Uiso   1.00
C14    C     0.72544   0.42867   0.38557   0.00000  Uiso   1.00
C15    C     0.79157   0.40559   0.41199   0.00000  Uiso   1.00
C16    C     0.76116   0.37122   0.42904   0.00000  Uiso   1.00
C17    C     0.83297   0.35460   0.45224   0.00000  Uiso   1.00
C18    C     0.75449   0.41828   0.33833   0.00000  Uiso   1.00
C19    C     0.69290   0.39458   0.29345   0.00000  Uiso   1.00
C20    C     0.73348   0.38863   0.25464   0.00000  Uiso   1.00
C21    C     0.75469   0.48378   0.41385   0.00000  Uiso   1.00
C22    C     0.69326   0.51516   0.43245   0.00000  Uiso   1.00
C23    C     0.73401   0.56437   0.45721   0.00000  Uiso   1.00
H24    H     0.98381   0.47361   0.40104   0.00000  Uiso   1.00
H25    H     0.03839   0.41945   0.44563   0.00000  Uiso   1.00
H26    H     0.97013   0.44281   0.31007   0.00000  Uiso   1.00
H27    H     0.97050   0.56337   0.44905   0.00000  Uiso   1.00
H28    H     0.05539   0.35182   0.49245   0.00000  Uiso   1.00
H29    H     0.91146   0.40109   0.20660   0.00000  Uiso   1.00
H30    H     0.91224   0.65532   0.49967   0.00000  Uiso   1.00
H31    H     0.64864   0.41532   0.38097   0.00000  Uiso   1.00
H32    H     0.68483   0.35796   0.42446   0.00000  Uiso   1.00
H33    H     0.61657   0.38131   0.28890   0.00000  Uiso   1.00
H34    H     0.61694   0.50187   0.42788   0.00000  Uiso   1.00
H35    H     0.76843   0.30191   0.47527   0.00000  Uiso   1.00
H36    H     0.62450   0.35118   0.18942   0.00000  Uiso   1.00
H37    H     0.62528   0.60541   0.48249   0.00000  Uiso   1.00
O38    O     0.94176   0.29017   0.51282   0.00000  Uiso   1.00
O39    O     0.75293   0.35482   0.13779   0.00000  Uiso   1.00
O40    O     0.75395   0.68836   0.52230   0.00000  Uiso   1.00
N41    N     0.98289   0.34796   0.48245   0.00000  Uiso   1.00
N42    N     0.84833   0.39401   0.21519   0.00000  Uiso   1.00
N43    N     0.84905   0.63169   0.48918   0.00000  Uiso   1.00
N44    N     0.82848   0.32110   0.47320   0.00000  Uiso   1.00
N45    N     0.69392   0.36715   0.20595   0.00000  Uiso   1.00
N46    N     0.69464   0.60484   0.47993   0.00000  Uiso   1.00
C47    C     0.67782   0.59086   0.13175   0.00000  Uiso   1.00
C48    C     0.62211   0.58122   0.08164   0.00000  Uiso   1.00
C49    C     0.65954   0.56777   0.04125   0.00000  Uiso   1.00
C50    C     0.59685   0.56066   0.99874   0.00000  Uiso   1.00
C51    C     0.52506   0.54478   0.92123   0.00000  Uiso   1.00
C52    C     0.66880   0.64248   0.16317   0.00000  Uiso   1.00
C53    C     0.74550   0.68054   0.19133   0.00000  Uiso   1.00
C54    C     0.72211   0.72500   0.21745   0.00000  Uiso   1.00
C55    C     0.72282   0.80423   0.26655   0.00000  Uiso   1.00
C56    C     0.62062   0.55663   0.14792   0.00000  Uiso   1.00
C57    C     0.65682   0.52251   0.16329   0.00000  Uiso   1.00
C58    C     0.59287   0.49470   0.17659   0.00000  Uiso   1.00
C59    C     0.51877   0.44062   0.20202   0.00000  Uiso   1.00
C60    C     0.49991   0.60217   0.12806   0.00000  Uiso   1.00
C61    C     0.52547   0.58736   0.07964   0.00000  Uiso   1.00
C62    C     0.46270   0.58027   0.03717   0.00000  Uiso   1.00
C63    C     0.50004   0.56681   0.99673   0.00000  Uiso   1.00
C64    C     0.57217   0.64863   0.16116   0.00000  Uiso   1.00
C65    C     0.54866   0.69305   0.18725   0.00000  Uiso   1.00
C66    C     0.62530   0.73116   0.21544   0.00000  Uiso   1.00
C67    C     0.52399   0.56277   0.14592   0.00000  Uiso   1.00
C68    C     0.45998   0.53502   0.15920   0.00000  Uiso   1.00
C69    C     0.49606   0.50085   0.17458   0.00000  Uiso   1.00
H70    H     0.75305   0.58608   0.13331   0.00000  Uiso   1.00
H71    H     0.73433   0.56302   0.04282   0.00000  Uiso   1.00
H72    H     0.82027   0.67577   0.19288   0.00000  Uiso   1.00
H73    H     0.73160   0.51777   0.16484   0.00000  Uiso   1.00
H74    H     0.67097   0.54018   0.94161   0.00000  Uiso   1.00
H75    H     0.85219   0.77791   0.25803   0.00000  Uiso   1.00
H76    H     0.66520   0.44473   0.19890   0.00000  Uiso   1.00
H77    H     0.42467   0.60695   0.12650   0.00000  Uiso   1.00
H78    H     0.38793   0.58503   0.03563   0.00000  Uiso   1.00
H79    H     0.47387   0.69778   0.18569   0.00000  Uiso   1.00
H80    H     0.38520   0.53978   0.15765   0.00000  Uiso   1.00
H81    H     0.38982   0.55805   0.93577   0.00000  Uiso   1.00
H82    H     0.57104   0.79578   0.25220   0.00000  Uiso   1.00
H83    H     0.38405   0.46259   0.19306   0.00000  Uiso   1.00
O84    O     0.51216   0.53433   0.87904   0.00000  Uiso   1.00
O85    O     0.74991   0.84623   0.29418   0.00000  Uiso   1.00
O86    O     0.50459   0.40910   0.21659   0.00000  Uiso   1.00
N87    N     0.60984   0.54738   0.95270   0.00000  Uiso   1.00
N88    N     0.77926   0.76965   0.24853   0.00000  Uiso   1.00
N89    N     0.60446   0.45816   0.19326   0.00000  Uiso   1.00
N90    N     0.45855   0.55699   0.94956   0.00000  Uiso   1.00
N91    N     0.62798   0.77927   0.24539   0.00000  Uiso   1.00
N92    N     0.45317   0.46777   0.19012   0.00000  Uiso   1.00
C93    C     0.56973   0.74687   0.55070   0.00000  Uiso   1.00
C94    C     0.54140   0.78752   0.59036   0.00000  Uiso   1.00
C95    C     0.60317   0.81897   0.63329   0.00000  Uiso   1.00
C96    C     0.56326   0.85369   0.66489   0.00000  Uiso   1.00
C97    C     0.53418   0.91631   0.72815   0.00000  Uiso   1.00
C98    C     0.50195   0.69995   0.54183   0.00000  Uiso   1.00
C99    C     0.53055   0.65779   0.54395   0.00000  Uiso   1.00
C100   C     0.45744   0.61879   0.53469   0.00000  Uiso   1.00
C101   C     0.36712   0.54546   0.52257   0.00000  Uiso   1.00
C102   C     0.54201   0.75707   0.50605   0.00000  Uiso   1.00
C103   C     0.60429   0.76291   0.47807   0.00000  Uiso   1.00
C104   C     0.56490   0.77199   0.43868   0.00000  Uiso   1.00
C105   C     0.53678   0.78733   0.37101   0.00000  Uiso   1.00
C106   C     0.38902   0.75259   0.53048   0.00000  Uiso   1.00
C107   C     0.44324   0.79062   0.57938   0.00000  Uiso   1.00
C108   C     0.40323   0.82530   0.61092   0.00000  Uiso   1.00
C109   C     0.46493   0.85680   0.65388   0.00000  Uiso   1.00
C110   C     0.40380   0.70305   0.53085   0.00000  Uiso   1.00
C111   C     0.33062   0.66411   0.52158   0.00000  Uiso   1.00
C112   C     0.35911   0.62190   0.52368   0.00000  Uiso   1.00
C113   C     0.44386   0.76017   0.49507   0.00000  Uiso   1.00
C114   C     0.40436   0.76924   0.45570   0.00000  Uiso   1.00
C115   C     0.46657   0.77510   0.42768   0.00000  Uiso   1.00
H116   H     0.64615   0.74445   0.55925   0.00000  Uiso   1.00
H117   H     0.67912   0.81656   0.64178   0.00000  Uiso   1.00
H118   H     0.60652   0.65540   0.55244   0.00000  Uiso   1.00
H119   H     0.68024   0.76051   0.48658   0.00000  Uiso   1.00
H120   H     0.67238   0.89786   0.72844   0.00000  Uiso   1.00
H121   H     0.51929   0.55803   0.54006   0.00000  Uiso   1.00
H122   H     0.67477   0.77967   0.40118   0.00000  Uiso   1.00
H123   H     0.31260   0.75500   0.52193   0.00000  Uiso   1.00
H124   H     0.32727   0.82769   0.60241   0.00000  Uiso   1.00
H125   H     0.25467   0.66653   0.51308   0.00000  Uiso   1.00
H126   H     0.32840   0.77164   0.44722   0.00000  Uiso   1.00
H127   H     0.38681   0.90689   0.69649   0.00000  Uiso   1.00
H128   H     0.23372   0.56706   0.50811   0.00000  Uiso   1.00
H129   H     0.38919   0.78871   0.36923   0.00000  Uiso   1.00
O130   O     0.54526   0.94999   0.76609   0.00000  Uiso   1.00
O131   O     0.34442   0.50415   0.51893   0.00000  Uiso   1.00
O132   O     0.54839   0.79494   0.33672   0.00000  Uiso   1.00
N133   N     0.60316   0.89001   0.70987   0.00000  Uiso   1.00
N134   N     0.46004   0.57230   0.53376   0.00000  Uiso   1.00
N135   N     0.60538   0.77950   0.40390   0.00000  Uiso   1.00
N136   N     0.44950   0.89487   0.69268   0.00000  Uiso   1.00
N137   N     0.30637   0.57716   0.51656   0.00000  Uiso   1.00
N138   N     0.45172   0.78437   0.38671   0.00000  Uiso   1.00
C139   C     0.15402   0.52423   0.10842   0.00000  Uiso   1.00
C140   C     0.14276   0.56837   0.15065   0.00000  Uiso   1.00
C141   C     0.21795   0.60134   0.18695   0.00000  Uiso   1.00
C142   C     0.19261   0.63928   0.22235   0.00000  Uiso   1.00
C143   C     0.18990   0.70711   0.28805   0.00000  Uiso   1.00
C144   C     0.10392   0.53036   0.06394   0.00000  Uiso   1.00
C145   C     0.14645   0.53135   0.02734   0.00000  Uiso   1.00
C146   C     0.08840   0.53729   0.98975   0.00000  Uiso   1.00
C147   C     0.02536   0.54607   0.92082   0.00000  Uiso   1.00
C148   C     0.09290   0.47997   0.10950   0.00000  Uiso   1.00
C149   C     0.12615   0.43860   0.11119   0.00000  Uiso   1.00
C150   C     0.05881   0.40211   0.11194   0.00000  Uiso   1.00
C151   C     0.97867   0.33266   0.11375   0.00000  Uiso   1.00
C152   C     0.97529   0.53300   0.10672   0.00000  Uiso   1.00
C153   C     0.04568   0.57314   0.14972   0.00000  Uiso   1.00
C154   C     0.02022   0.61104   0.18508   0.00000  Uiso   1.00
C155   C     0.09536   0.64405   0.22143   0.00000  Uiso   1.00
C156   C     0.00684   0.53512   0.06302   0.00000  Uiso   1.00
C157   C     0.94871   0.54106   0.02547   0.00000  Uiso   1.00
C158   C     0.99115   0.54206   0.98882   0.00000  Uiso   1.00
C159   C     0.99582   0.48474   0.10858   0.00000  Uiso   1.00
C160   C     0.92841   0.44830   0.10932   0.00000  Uiso   1.00
C161   C     0.96156   0.40688   0.11102   0.00000  Uiso   1.00
H162   H     0.22959   0.52052   0.10913   0.00000  Uiso   1.00
H163   H     0.29307   0.59764   0.18765   0.00000  Uiso   1.00
H164   H     0.22157   0.52766   0.02806   0.00000  Uiso   1.00
H165   H     0.20128   0.43493   0.11190   0.00000  Uiso   1.00
H166   H     0.32064   0.68525   0.27429   0.00000  Uiso   1.00
H167   H     0.16987   0.53768   0.93778   0.00000  Uiso   1.00
H168   H     0.12708   0.34212   0.11457   0.00000  Uiso   1.00
H169   H     0.89971   0.53671   0.10600   0.00000  Uiso   1.00
H170   H     0.94509   0.61472   0.18436   0.00000  Uiso   1.00
H171   H     0.87359   0.54474   0.02477   0.00000  Uiso   1.00
H172   H     0.85330   0.45200   0.10861   0.00000  Uiso   1.00
H173   H     0.03821   0.69911   0.27161   0.00000  Uiso   1.00
H174   H     0.88744   0.55154   0.93510   0.00000  Uiso   1.00
H175   H     0.84464   0.35599   0.11190   0.00000  Uiso   1.00
O176   O     0.21523   0.74322   0.32454   0.00000  Uiso   1.00
O177   O     0.01742   0.54960   0.88305   0.00000  Uiso   1.00
O178   O     0.96128   0.29304   0.11500   0.00000  Uiso   1.00
N179   N     0.24794   0.67780   0.26291   0.00000  Uiso   1.00
N180   N     0.10699   0.53984   0.94830   0.00000  Uiso   1.00
N181   N     0.06697   0.35701   0.11357   0.00000  Uiso   1.00
N182   N     0.09597   0.68526   0.26147   0.00000  Uiso   1.00
N183   N     0.95501   0.54730   0.94686   0.00000  Uiso   1.00
N184   N     0.91500   0.36446   0.11213   0.00000  Uiso   1.00
C185   C     0.66250   0.29286   0.70770   0.00000  Uiso   1.00
C186   C     0.61337   0.31006   0.67052   0.00000  Uiso   1.00
C187   C     0.65524   0.31933   0.63691   0.00000  Uiso   1.00
C188   C     0.59828   0.33476   0.60605   0.00000  Uiso   1.00
C189   C     0.53649   0.36053   0.54789   0.00000  Uiso   1.00
C190   C     0.59736   0.24565   0.70014   0.00000  Uiso   1.00
C191   C     0.62577   0.20077   0.69143   0.00000  Uiso   1.00
C192   C     0.55533   0.16199   0.68551   0.00000  Uiso   1.00
C193   C     0.46869   0.08777   0.67337   0.00000  Uiso   1.00
C194   C     0.65643   0.33037   0.75584   0.00000  Uiso   1.00
C195   C     0.73450   0.35672   0.79397   0.00000  Uiso   1.00
C196   C     0.71379   0.38926   0.83495   0.00000  Uiso   1.00
C197   C     0.71888   0.44659   0.90929   0.00000  Uiso   1.00
C198   C     0.48690   0.30379   0.71266   0.00000  Uiso   1.00
C199   C     0.51799   0.31599   0.67322   0.00000  Uiso   1.00
C200   C     0.46096   0.33142   0.64240   0.00000  Uiso   1.00
C201   C     0.50273   0.34071   0.60875   0.00000  Uiso   1.00
C202   C     0.50198   0.25158   0.70283   0.00000  Uiso   1.00
C203   C     0.43149   0.21286   0.69692   0.00000  Uiso   1.00
C204   C     0.45978   0.16793   0.68821   0.00000  Uiso   1.00
C205   C     0.56105   0.33631   0.75854   0.00000  Uiso   1.00
C206   C     0.54022   0.36881   0.79946   0.00000  Uiso   1.00
C207   C     0.61824   0.39521   0.83765   0.00000  Uiso   1.00
H208   H     0.73675   0.28824   0.70560   0.00000  Uiso   1.00
H209   H     0.72905   0.31473   0.63483   0.00000  Uiso   1.00
H210   H     0.69958   0.19619   0.68935   0.00000  Uiso   1.00
H211   H     0.80830   0.35212   0.79188   0.00000  Uiso   1.00
H212   H     0.67843   0.34669   0.55755   0.00000  Uiso   1.00
H213   H     0.61631   0.09675   0.67252   0.00000  Uiso   1.00
H214   H     0.84556   0.42556   0.88871   0.00000  Uiso   1.00
H215   H     0.41264   0.30841   0.71476   0.00000  Uiso   1.00
H216   H     0.38715   0.33601   0.64449   0.00000  Uiso   1.00
H217   H     0.35769   0.21747   0.69901   0.00000  Uiso   1.00
H218   H     0.46640   0.37340   0.80153   0.00000  Uiso   1.00
H219   H     0.40093   0.36396   0.56539   0.00000  Uiso   1.00
H220   H     0.33881   0.11402   0.68036   0.00000  Uiso   1.00
H221   H     0.56806   0.44283   0.89655   0.00000  Uiso   1.00
O222   O     0.52875   0.37310   0.51507   0.00000  Uiso   1.00
O223   O     0.44726   0.04519   0.66592   0.00000  Uiso   1.00
O224   O     0.74803   0.47658   0.94955   0.00000  Uiso   1.00
N225   N     0.61663   0.34698   0.56904   0.00000  Uiso   1.00
N226   N     0.55854   0.11329   0.67653   0.00000  Uiso   1.00
N227   N     0.77287   0.42069   0.87865   0.00000  Uiso   1.00
N228   N     0.46731   0.35627   0.57326   0.00000  Uiso   1.00
N229   N     0.40923   0.12259   0.68075   0.00000  Uiso   1.00
N230   N     0.62355   0.42999   0.88287   0.00000  Uiso   1.00
C231   C     0.15486   0.10320   0.79984   0.00000  Uiso   1.00
C232   C     0.09921   0.05124   0.78323   0.00000  Uiso   1.00
C233   C     0.12339   0.00926   0.75247   0.00000  Uiso   1.00
C234   C     0.06325   0.96520   0.74164   0.00000  Uiso   1.00
C235   C     0.98924   0.88481   0.71295   0.00000  Uiso   1.00
C236   C     0.18096   0.12352   0.85411   0.00000  Uiso   1.00
C237   C     0.27387   0.14232   0.88293   0.00000  Uiso   1.00
C238   C     0.28254   0.15910   0.93176   0.00000  Uiso   1.00
C239   C     0.33544   0.19096   0.01310   0.00000  Uiso   1.00
C240   C     0.08174   0.13236   0.78651   0.00000  Uiso   1.00
C241   C     0.09125   0.15862   0.75850   0.00000  Uiso   1.00
C242   C     0.01640   0.18286   0.75043   0.00000  Uiso   1.00
C243   C     0.91526   0.22845   0.72680   0.00000  Uiso   1.00
C244   C     0.00503   0.09958   0.83533   0.00000  Uiso   1.00
C245   C     0.01783   0.04928   0.80251   0.00000  Uiso   1.00
C246   C     0.95763   0.00526   0.79173   0.00000  Uiso   1.00
C247   C     0.98172   0.96323   0.76095   0.00000  Uiso   1.00
C248   C     0.09958   0.12155   0.87338   0.00000  Uiso   1.00
C249   C     0.10811   0.13832   0.92219   0.00000  Uiso   1.00
C250   C     0.20101   0.15713   0.95108   0.00000  Uiso   1.00
C251   C     0.00036   0.13040   0.80578   0.00000  Uiso   1.00
C252   C     0.92549   0.15461   0.79776   0.00000  Uiso   1.00
C253   C     0.93487   0.18089   0.76974   0.00000  Uiso   1.00
H254   H     0.21822   0.10473   0.78483   0.00000  Uiso   1.00
H255   H     0.18638   0.01080   0.73756   0.00000  Uiso   1.00
H256   H     0.33683   0.14384   0.86800   0.00000  Uiso   1.00
H257   H     0.15424   0.16013   0.74358   0.00000  Uiso   1.00
H258   H     0.11521   0.90579   0.69366   0.00000  Uiso   1.00
H259   H     0.43245   0.18632   0.96870   0.00000  Uiso   1.00
H260   H     0.04741   0.22068   0.70635   0.00000  Uiso   1.00
H261   H     0.94168   0.09805   0.85034   0.00000  Uiso   1.00
H262   H     0.89466   0.00375   0.80666   0.00000  Uiso   1.00
H263   H     0.04512   0.13679   0.93710   0.00000  Uiso   1.00
H264   H     0.86252   0.15308   0.81268   0.00000  Uiso   1.00
H265   H     0.87845   0.90007   0.74975   0.00000  Uiso   1.00
H266   H     0.19569   0.18061   0.02478   0.00000  Uiso   1.00
H267   H     0.81065   0.21496   0.76243   0.00000  Uiso   1.00
O268   O     0.97091   0.84102   0.69180   0.00000  Uiso   1.00
O269   O     0.38711   0.20907   0.05263   0.00000  Uiso   1.00
O270   O     0.88195   0.25414   0.70844   0.00000  Uiso   1.00
N271   N     0.06593   0.91739   0.71285   0.00000  Uiso   1.00
N272   N     0.36253   0.17966   0.96999   0.00000  Uiso   1.00
N273   N     0.00257   0.21179   0.72473   0.00000  Uiso   1.00
N274   N     0.93853   0.91431   0.74303   0.00000  Uiso   1.00
N275   N     0.23513   0.17658   0.00017   0.00000  Uiso   1.00
N276   N     0.87516   0.20871   0.75491   0.00000  Uiso   1.00
C277   C     0.02908   0.41661   0.66216   0.00000  Uiso   1.00
C278   C     0.06614   0.43745   0.62911   0.00000  Uiso   1.00
C279   C     0.01398   0.45988   0.60360   0.00000  Uiso   1.00
C280   C     0.06080   0.47652   0.57536   0.00000  Uiso   1.00
C281   C     0.10383   0.50975   0.52446   0.00000  Uiso   1.00
C282   C     0.10085   0.44209   0.71037   0.00000  Uiso   1.00
C283   C     0.07787   0.46841   0.75318   0.00000  Uiso   1.00
C284   C     0.15392   0.48894   0.79335   0.00000  Uiso   1.00
C285   C     0.25082   0.52935   0.86861   0.00000  Uiso   1.00
C286   C     0.04081   0.36320   0.64372   0.00000  Uiso   1.00
C287   C     0.96734   0.32320   0.63050   0.00000  Uiso   1.00
C288   C     0.99284   0.27731   0.61455   0.00000  Uiso   1.00
C289   C     0.99652   0.19524   0.58632   0.00000  Uiso   1.00
C290   C     0.20499   0.40626   0.65736   0.00000  Uiso   1.00
C291   C     0.16169   0.43183   0.62651   0.00000  Uiso   1.00
C292   C     0.20860   0.44843   0.59829   0.00000  Uiso   1.00
C293   C     0.15652   0.47088   0.57275   0.00000  Uiso   1.00
C294   C     0.19640   0.43647   0.70777   0.00000  Uiso   1.00
C295   C     0.27249   0.45696   0.74788   0.00000  Uiso   1.00
C296   C     0.24964   0.48331   0.79074   0.00000  Uiso   1.00
C297   C     0.13635   0.35758   0.64111   0.00000  Uiso   1.00
C298   C     0.16197   0.31175   0.62519   0.00000  Uiso   1.00
C299   C     0.08857   0.27168   0.61194   0.00000  Uiso   1.00
H300   H     0.95469   0.42099   0.66419   0.00000  Uiso   1.00
H301   H     0.94004   0.46423   0.60563   0.00000  Uiso   1.00
H302   H     0.00392   0.47275   0.75519   0.00000  Uiso   1.00
H303   H     0.89341   0.32756   0.63252   0.00000  Uiso   1.00
H304   H     0.96594   0.50971   0.53957   0.00000  Uiso   1.00
H305   H     0.10063   0.52766   0.85493   0.00000  Uiso   1.00
H306   H     0.86761   0.22150   0.59625   0.00000  Uiso   1.00
H307   H     0.27939   0.40189   0.65534   0.00000  Uiso   1.00
H308   H     0.28255   0.44408   0.59629   0.00000  Uiso   1.00
H309   H     0.34643   0.45260   0.74585   0.00000  Uiso   1.00
H310   H     0.23592   0.30741   0.62317   0.00000  Uiso   1.00
H311   H     0.24393   0.49335   0.53199   0.00000  Uiso   1.00
H312   H     0.37862   0.51131   0.84734   0.00000  Uiso   1.00
H313   H     0.14560   0.20515   0.58866   0.00000  Uiso   1.00
O314   O     0.10117   0.52965   0.49711   0.00000  Uiso   1.00
O315   O     0.27787   0.55320   0.91084   0.00000  Uiso   1.00
O316   O     0.97215   0.15152   0.57146   0.00000  Uiso   1.00
N317   N     0.03092   0.50006   0.54588   0.00000  Uiso   1.00
N318   N     0.15685   0.51685   0.84072   0.00000  Uiso   1.00
N319   N     0.93900   0.23062   0.59889   0.00000  Uiso   1.00
N320   N     0.18051   0.49126   0.54180   0.00000  Uiso   1.00
N321   N     0.30644   0.50805   0.83664   0.00000  Uiso   1.00
N322   N     0.08859   0.22182   0.59481   0.00000  Uiso   1.00
C323   C     0.60128   0.23527   0.89164   0.00000  Uiso   1.00
C324   C     0.60074   0.24399   0.94313   0.00000  Uiso   1.00
C325   C     0.55176   0.27620   0.97171   0.00000  Uiso   1.00
C326   C     0.56038   0.27887   0.01782   0.00000  Uiso   1.00
C327   C     0.55104   0.29673   0.09519   0.00000  Uiso   1.00
C328   C     0.56561   0.18057   0.86281   0.00000  Uiso   1.00
C329   C     0.48711   0.15947   0.82386   0.00000  Uiso   1.00
C330   C     0.46617   0.10876   0.80234   0.00000  Uiso   1.00
C331   C     0.40233   0.02817   0.75500   0.00000  Uiso   1.00
C332   C     0.70767   0.24523   0.89024   0.00000  Uiso   1.00
C333   C     0.74861   0.27848   0.87435   0.00000  Uiso   1.00
C334   C     0.84727   0.28220   0.87593   0.00000  Uiso   1.00
C335   C     0.00400   0.30200   0.87119   0.00000  Uiso   1.00
C336   C     0.70369   0.18273   0.92267   0.00000  Uiso   1.00
C337   C     0.65636   0.21545   0.95998   0.00000  Uiso   1.00
C338   C     0.66507   0.21807   0.00605   0.00000  Uiso   1.00
C339   C     0.61611   0.25028   0.03471   0.00000  Uiso   1.00
C340   C     0.62123   0.15204   0.87966   0.00000  Uiso   1.00
C341   C     0.60041   0.10134   0.85820   0.00000  Uiso   1.00
C342   C     0.52190   0.08017   0.81923   0.00000  Uiso   1.00
C343   C     0.76330   0.21669   0.90710   0.00000  Uiso   1.00
C344   C     0.86191   0.22036   0.90869   0.00000  Uiso   1.00
C345   C     0.90300   0.25361   0.89281   0.00000  Uiso   1.00
H346   H     0.55797   0.25748   0.87851   0.00000  Uiso   1.00
H347   H     0.50871   0.29827   0.95865   0.00000  Uiso   1.00
H348   H     0.44408   0.18156   0.81082   0.00000  Uiso   1.00
H349   H     0.70554   0.30056   0.86131   0.00000  Uiso   1.00
H350   H     0.47860   0.33090   0.05494   0.00000  Uiso   1.00
H351   H     0.34234   0.08481   0.74321   0.00000  Uiso   1.00
H352   H     0.89367   0.33574   0.84968   0.00000  Uiso   1.00
H353   H     0.74700   0.16051   0.93580   0.00000  Uiso   1.00
H354   H     0.70812   0.19598   0.01909   0.00000  Uiso   1.00
H355   H     0.64348   0.07927   0.87125   0.00000  Uiso   1.00
H356   H     0.90494   0.19827   0.92174   0.00000  Uiso   1.00
H357   H     0.64044   0.24788   0.10399   0.00000  Uiso   1.00
H358   H     0.50418   0.00179   0.79226   0.00000  Uiso   1.00
H359   H     0.05552   0.25271   0.89873   0.00000  Uiso   1.00
O360   O     0.53051   0.31446   0.13322   0.00000  Uiso   1.00
O361   O     0.35175   0.99161   0.72424   0.00000  Uiso   1.00
O362   O     0.07508   0.32081   0.86392   0.00000  Uiso   1.00
N363   N     0.52204   0.30650   0.05505   0.00000  Uiso   1.00
N364   N     0.39463   0.07642   0.76361   0.00000  Uiso   1.00
N365   N     0.91008   0.31101   0.86314   0.00000  Uiso   1.00
N366   N     0.60913   0.26183   0.08145   0.00000  Uiso   1.00
N367   N     0.48172   0.03175   0.79001   0.00000  Uiso   1.00
N368   N     0.99717   0.26633   0.88953   0.00000  Uiso   1.00
C369   C     0.54747   0.03659   0.49423   0.00000  Uiso   1.00
C370   C     0.55930   0.99687   0.44863   0.00000  Uiso   1.00
C371   C     0.48430   0.96478   0.41157   0.00000  Uiso   1.00
C372   C     0.51018   0.93110   0.37294   0.00000  Uiso   1.00
C373   C     0.51374   0.86965   0.30236   0.00000  Uiso   1.00
C374   C     0.60232   0.08441   0.49704   0.00000  Uiso   1.00
C375   C     0.56350   0.12593   0.50069   0.00000  Uiso   1.00
C376   C     0.62561   0.16594   0.50282   0.00000  Uiso   1.00
C377   C     0.69598   0.24043   0.50742   0.00000  Uiso   1.00
C378   C     0.60367   0.02661   0.53515   0.00000  Uiso   1.00
C379   C     0.56600   0.01954   0.57086   0.00000  Uiso   1.00
C380   C     0.62926   0.01090   0.60508   0.00000  Uiso   1.00
C381   C     0.70172   0.99563   0.66886   0.00000  Uiso   1.00
C382   C     0.72680   0.03382   0.49152   0.00000  Uiso   1.00
C383   C     0.65671   0.99536   0.44716   0.00000  Uiso   1.00
C384   C     0.68271   0.96171   0.40858   0.00000  Uiso   1.00
C385   C     0.60777   0.92958   0.37147   0.00000  Uiso   1.00
C386   C     0.69973   0.08290   0.49557   0.00000  Uiso   1.00
C387   C     0.76192   0.12286   0.49769   0.00000  Uiso   1.00
C388   C     0.72320   0.16443   0.50134   0.00000  Uiso   1.00
C389   C     0.70108   0.02510   0.53368   0.00000  Uiso   1.00
C390   C     0.76441   0.01647   0.56785   0.00000  Uiso   1.00
C391   C     0.72684   0.00939   0.60360   0.00000  Uiso   1.00
H392   H     0.47163   0.03777   0.49537   0.00000  Uiso   1.00
H393   H     0.40892   0.96597   0.41272   0.00000  Uiso   1.00
H394   H     0.48812   0.12709   0.50183   0.00000  Uiso   1.00
H395   H     0.49062   0.02071   0.57198   0.00000  Uiso   1.00
H396   H     0.38236   0.88570   0.32044   0.00000  Uiso   1.00
H397   H     0.54935   0.22545   0.50834   0.00000  Uiso   1.00
H398   H     0.55462   0.00113   0.65627   0.00000  Uiso   1.00
H399   H     0.80265   0.03264   0.49037   0.00000  Uiso   1.00
H400   H     0.75810   0.96055   0.40745   0.00000  Uiso   1.00
H401   H     0.83730   0.12168   0.49656   0.00000  Uiso   1.00
H402   H     0.83979   0.01530   0.56671   0.00000  Uiso   1.00
H403   H     0.66576   0.88131   0.31615   0.00000  Uiso   1.00
H404   H     0.83276   0.22106   0.50406   0.00000  Uiso   1.00
H405   H     0.83802   0.99674   0.65199   0.00000  Uiso   1.00
O406   O     0.48879   0.83619   0.26383   0.00000  Uiso   1.00
O407   O     0.70788   0.28193   0.51037   0.00000  Uiso   1.00
O408   O     0.71478   0.98762   0.70444   0.00000  Uiso   1.00
N409   N     0.45517   0.89455   0.33081   0.00000  Uiso   1.00
N410   N     0.61130   0.21220   0.50649   0.00000  Uiso   1.00
N411   N     0.61622   0.00249   0.64479   0.00000  Uiso   1.00
N412   N     0.60767   0.89219   0.32851   0.00000  Uiso   1.00
N413   N     0.76380   0.20983   0.50418   0.00000  Uiso   1.00
N414   N     0.76872   0.00013   0.64249   0.00000  Uiso   1.00
C415   C     0.20864   0.41617   0.29679   0.00000  Uiso   1.00
C416   C     0.22377   0.37311   0.25468   0.00000  Uiso   1.00
C417   C     0.15145   0.34115   0.21611   0.00000  Uiso   1.00
C418   C     0.18013   0.30409   0.18126   0.00000  Uiso   1.00
C419   C     0.18879   0.23795   0.11535   0.00000  Uiso   1.00
C420   C     0.25174   0.40809   0.34120   0.00000  Uiso   1.00
C421   C     0.20293   0.40555   0.37537   0.00000  Uiso   1.00
C422   C     0.25516   0.39795   0.41336   0.00000  Uiso   1.00
C423   C     0.30725   0.38615   0.48178   0.00000  Uiso   1.00
C424   C     0.27345   0.46115   0.29907   0.00000  Uiso   1.00
C425   C     0.24290   0.50325   0.29784   0.00000  Uiso   1.00
C426   C     0.31342   0.54033   0.30037   0.00000  Uiso   1.00
C427   C     0.39923   0.61092   0.30338   0.00000  Uiso   1.00
C428   C     0.38819   0.40717   0.30350   0.00000  Uiso   1.00
C429   C     0.32130   0.36822   0.25833   0.00000  Uiso   1.00
C430   C     0.35010   0.33120   0.22353   0.00000  Uiso   1.00
C431   C     0.27783   0.29920   0.18491   0.00000  Uiso   1.00
C432   C     0.34926   0.40320   0.34485   0.00000  Uiso   1.00
C433   C     0.40157   0.39560   0.38280   0.00000  Uiso   1.00
C434   C     0.35285   0.39305   0.41701   0.00000  Uiso   1.00
C435   C     0.37098   0.45627   0.30272   0.00000  Uiso   1.00
C436   C     0.44155   0.49329   0.30526   0.00000  Uiso   1.00
C437   C     0.41112   0.53543   0.30402   0.00000  Uiso   1.00
H438   H     0.13272   0.41998   0.29395   0.00000  Uiso   1.00
H439   H     0.07598   0.34495   0.21330   0.00000  Uiso   1.00
H440   H     0.12746   0.40934   0.37254   0.00000  Uiso   1.00
H441   H     0.16743   0.50702   0.29501   0.00000  Uiso   1.00
H442   H     0.05609   0.25959   0.12551   0.00000  Uiso   1.00
H443   H     0.16464   0.39539   0.46128   0.00000  Uiso   1.00
H444   H     0.24892   0.60136   0.29780   0.00000  Uiso   1.00
H445   H     0.46412   0.40337   0.30634   0.00000  Uiso   1.00
H446   H     0.42557   0.32742   0.22637   0.00000  Uiso   1.00
H447   H     0.47704   0.39182   0.38561   0.00000  Uiso   1.00
H448   H     0.51702   0.48950   0.30808   0.00000  Uiso   1.00
H449   H     0.33983   0.24537   0.13611   0.00000  Uiso   1.00
H450   H     0.44837   0.38117   0.47189   0.00000  Uiso   1.00
H451   H     0.53266   0.58714   0.30840   0.00000  Uiso   1.00
O452   O     0.16662   0.20281   0.07799   0.00000  Uiso   1.00
O453   O     0.30903   0.38099   0.51851   0.00000  Uiso   1.00
O454   O     0.41961   0.65121   0.30403   0.00000  Uiso   1.00
N455   N     0.12816   0.26667   0.13897   0.00000  Uiso   1.00
N456   N     0.22964   0.39363   0.45290   0.00000  Uiso   1.00
N457   N     0.30845   0.58620   0.30007   0.00000  Uiso   1.00
N458   N     0.28084   0.25902   0.14468   0.00000  Uiso   1.00
N459   N     0.38232   0.38598   0.45860   0.00000  Uiso   1.00
N460   N     0.46112   0.57855   0.30577   0.00000  Uiso   1.00
C461   C     0.62280   0.61158   0.70365   0.00000  Uiso   1.00
C462   C     0.67598   0.59839   0.74302   0.00000  Uiso   1.00
C463   C     0.63439   0.58622   0.77527   0.00000  Uiso   1.00
C464   C     0.69534   0.57532   0.80858   0.00000  Uiso   1.00
C465   C     0.76288   0.55467   0.86958   0.00000  Uiso   1.00
C466   C     0.67612   0.66187   0.71184   0.00000  Uiso   1.00
C467   C     0.63464   0.70308   0.71787   0.00000  Uiso   1.00
C468   C     0.69572   0.74562   0.72492   0.00000  Uiso   1.00
C469   C     0.76345   0.82351   0.73748   0.00000  Uiso   1.00
C470   C     0.64116   0.57606   0.65732   0.00000  Uiso   1.00
C471   C     0.57029   0.54512   0.61751   0.00000  Uiso   1.00
C472   C     0.60194   0.51542   0.57867   0.00000  Uiso   1.00
C473   C     0.61539   0.46007   0.50658   0.00000  Uiso   1.00
C474   C     0.80500   0.61386   0.70544   0.00000  Uiso   1.00
C475   C     0.77494   0.59962   0.74399   0.00000  Uiso   1.00
C476   C     0.83598   0.58874   0.77726   0.00000  Uiso   1.00
C477   C     0.79449   0.57656   0.80956   0.00000  Uiso   1.00
C478   C     0.77508   0.66311   0.71281   0.00000  Uiso   1.00
C479   C     0.83623   0.70559   0.71986   0.00000  Uiso   1.00
C480   C     0.79486   0.74685   0.72590   0.00000  Uiso   1.00
C481   C     0.74013   0.57729   0.65830   0.00000  Uiso   1.00
C482   C     0.77188   0.54763   0.61950   0.00000  Uiso   1.00
C483   C     0.70108   0.51665   0.57964   0.00000  Uiso   1.00
H484   H     0.54575   0.61063   0.70289   0.00000  Uiso   1.00
H485   H     0.55780   0.58528   0.77451   0.00000  Uiso   1.00
H486   H     0.55805   0.70211   0.71711   0.00000  Uiso   1.00
H487   H     0.49372   0.54417   0.61677   0.00000  Uiso   1.00
H488   H     0.61481   0.55773   0.85435   0.00000  Uiso   1.00
H489   H     0.61534   0.80408   0.73331   0.00000  Uiso   1.00
H490   H     0.47967   0.47104   0.52173   0.00000  Uiso   1.00
H491   H     0.88205   0.61482   0.70620   0.00000  Uiso   1.00
H492   H     0.91256   0.58970   0.77800   0.00000  Uiso   1.00
H493   H     0.91281   0.70653   0.72061   0.00000  Uiso   1.00
H494   H     0.84847   0.54860   0.62027   0.00000  Uiso   1.00
H495   H     0.90275   0.56132   0.85719   0.00000  Uiso   1.00
H496   H     0.90327   0.80767   0.73614   0.00000  Uiso   1.00
H497   H     0.76761   0.47463   0.52457   0.00000  Uiso   1.00
O498   O     0.77279   0.54294   0.90295   0.00000  Uiso   1.00
O499   O     0.77347   0.86614   0.74414   0.00000  Uiso   1.00
O500   O     0.59548   0.42920   0.46655   0.00000  Uiso   1.00
N501   N     0.67839   0.56201   0.84516   0.00000  Uiso   1.00
N502   N     0.67888   0.79234   0.73200   0.00000  Uiso   1.00
N503   N     0.55204   0.48099   0.53418   0.00000  Uiso   1.00
N504   N     0.83332   0.56395   0.84669   0.00000  Uiso   1.00
N505   N     0.83382   0.79427   0.73352   0.00000  Uiso   1.00
N506   N     0.70698   0.48292   0.53571   0.00000  Uiso   1.00
C507   C     0.96637   0.84433   0.53725   0.00000  Uiso   1.00
C508   C     0.04118   0.89080   0.56727   0.00000  Uiso   1.00
C509   C     0.02069   0.93657   0.59153   0.00000  Uiso   1.00
C510   C     0.09929   0.97443   0.61698   0.00000  Uiso   1.00
C511   C     0.20090   0.04776   0.66341   0.00000  Uiso   1.00
C512   C     0.98818   0.82554   0.48793   0.00000  Uiso   1.00
C513   C     0.92312   0.81644   0.44548   0.00000  Uiso   1.00
C514   C     0.95711   0.79937   0.40415   0.00000  Uiso   1.00
C515   C     0.97641   0.77135   0.32740   0.00000  Uiso   1.00
C516   C     0.99040   0.80695   0.55795   0.00000  Uiso   1.00
C517   C     0.92721   0.78221   0.57437   0.00000  Uiso   1.00
C518   C     0.96307   0.74948   0.59198   0.00000  Uiso   1.00
C519   C     0.98583   0.69261   0.62395   0.00000  Uiso   1.00
C520   C     0.14241   0.83019   0.53932   0.00000  Uiso   1.00
C521   C     0.13679   0.88311   0.56840   0.00000  Uiso   1.00
C522   C     0.21545   0.92092   0.59382   0.00000  Uiso   1.00
C523   C     0.19508   0.96674   0.61811   0.00000  Uiso   1.00
C524   C     0.08379   0.81786   0.48906   0.00000  Uiso   1.00
C525   C     0.11789   0.80079   0.44778   0.00000  Uiso   1.00
C526   C     0.05290   0.79167   0.40528   0.00000  Uiso   1.00
C527   C     0.08602   0.79927   0.55908   0.00000  Uiso   1.00
C528   C     0.12198   0.76657   0.57666   0.00000  Uiso   1.00
C529   C     0.05886   0.74179   0.59310   0.00000  Uiso   1.00
H530   H     0.89193   0.85030   0.53637   0.00000  Uiso   1.00
H531   H     0.94668   0.94250   0.59065   0.00000  Uiso   1.00
H532   H     0.84913   0.82238   0.44462   0.00000  Uiso   1.00
H533   H     0.85322   0.78816   0.57349   0.00000  Uiso   1.00
H534   H     0.04955   0.04132   0.65131   0.00000  Uiso   1.00
H535   H     0.84384   0.78804   0.34341   0.00000  Uiso   1.00
H536   H     0.85247   0.71589   0.61515   0.00000  Uiso   1.00
H537   H     0.21686   0.82421   0.54019   0.00000  Uiso   1.00
H538   H     0.28944   0.91497   0.59469   0.00000  Uiso   1.00
H539   H     0.19188   0.79485   0.44866   0.00000  Uiso   1.00
H540   H     0.19598   0.76064   0.57753   0.00000  Uiso   1.00
H541   H     0.32774   0.01898   0.65458   0.00000  Uiso   1.00
H542   H     0.12204   0.76569   0.34668   0.00000  Uiso   1.00
H543   H     0.13067   0.69355   0.61842   0.00000  Uiso   1.00
O544   O     0.23053   0.09033   0.68871   0.00000  Uiso   1.00
O545   O     0.96064   0.75802   0.28476   0.00000  Uiso   1.00
O546   O     0.97197   0.66337   0.64127   0.00000  Uiso   1.00
N547   N     0.10506   0.02361   0.64461   0.00000  Uiso   1.00
N548   N     0.91274   0.78681   0.35674   0.00000  Uiso   1.00
N549   N     0.92080   0.71934   0.61078   0.00000  Uiso   1.00
N550   N     0.25475   0.01159   0.64637   0.00000  Uiso   1.00
N551   N     0.06244   0.77479   0.35850   0.00000  Uiso   1.00
N552   N     0.07050   0.70732   0.61255   0.00000  Uiso   1.00
