data_job_04161
_audit_creation_date              2018-12-19
_audit_creation_method            'Materials Studio'
_symmetry_space_group_name_H-M    'P1'
_symmetry_Int_Tables_number       1
_symmetry_cell_setting            triclinic
loop_
_symmetry_equiv_pos_as_xyz
  x,y,z
_cell_length_a                    28.4214
_cell_length_b                    26.9458
_cell_length_c                    11.8565
_cell_angle_alpha                 90.0000
_cell_angle_beta                  94.6358
_cell_angle_gamma                 90.0000
loop_
_atom_site_label
_atom_site_type_symbol
_atom_site_fract_x
_atom_site_fract_y
_atom_site_fract_z
_atom_site_U_iso_or_equiv
_atom_site_adp_type
_atom_site_occupancy
C1     C     0.86314   0.88259   0.11047   0.00000  Uiso   1.00
C2     C     0.87200   0.85643   0.00011   0.00000  Uiso   1.00
C3     C     0.91387   0.83379   0.97596   0.00000  Uiso   1.00
C4     C     0.91488   0.81191   0.87017   0.00000  Uiso   1.00
C5     C     0.93464   0.77120   0.71076   0.00000  Uiso   1.00
C6     C     0.84736   0.93510   0.07777   0.00000  Uiso   1.00
C7     C     0.86852   0.97860   0.11892   0.00000  Uiso   1.00
C8     C     0.84877   0.02293   0.07852   0.00000  Uiso   1.00
C9     C     0.83026   0.10435   0.03974   0.00000  Uiso   1.00
C10    C     0.82026   0.85719   0.15423   0.00000  Uiso   1.00
C11    C     0.81863   0.83519   0.25968   0.00000  Uiso   1.00
C12    C     0.77606   0.81393   0.28365   0.00000  Uiso   1.00
C13    C     0.71548   0.77439   0.36358   0.00000  Uiso   1.00
C14    C     0.79045   0.88397   0.96556   0.00000  Uiso   1.00
C15    C     0.83252   0.85719   0.92140   0.00000  Uiso   1.00
C16    C     0.83345   0.83532   0.81563   0.00000  Uiso   1.00
C17    C     0.87533   0.81265   0.79132   0.00000  Uiso   1.00
C18    C     0.80788   0.93585   0.99906   0.00000  Uiso   1.00
C19    C     0.78810   0.98013   0.95860   0.00000  Uiso   1.00
C20    C     0.80922   0.02368   0.99967   0.00000  Uiso   1.00
C21    C     0.78078   0.85794   0.07552   0.00000  Uiso   1.00
C22    C     0.73821   0.83671   0.09934   0.00000  Uiso   1.00
C23    C     0.73651   0.81469   0.20480   0.00000  Uiso   1.00
H24    H     0.89388   0.88201   0.17175   0.00000  Uiso   1.00
H25    H     0.94442   0.83323   0.03689   0.00000  Uiso   1.00
H26    H     0.89907   0.97800   0.17984   0.00000  Uiso   1.00
H27    H     0.84919   0.83462   0.32056   0.00000  Uiso   1.00
H28    H     0.98305   0.77949   0.85264   0.00000  Uiso   1.00
H29    H     0.88741   0.08476   0.15409   0.00000  Uiso   1.00
H30    H     0.78223   0.78240   0.45084   0.00000  Uiso   1.00
H31    H     0.75971   0.88456   0.90428   0.00000  Uiso   1.00
H32    H     0.80290   0.83591   0.75473   0.00000  Uiso   1.00
H33    H     0.75754   0.98069   0.89769   0.00000  Uiso   1.00
H34    H     0.70766   0.83730   0.03841   0.00000  Uiso   1.00
H35    H     0.86819   0.78167   0.62363   0.00000  Uiso   1.00
H36    H     0.77254   0.08695   0.92509   0.00000  Uiso   1.00
H37    H     0.66736   0.78458   0.22183   0.00000  Uiso   1.00
O38    O     0.95645   0.74855   0.64457   0.00000  Uiso   1.00
O39    O     0.83096   0.14906   0.04009   0.00000  Uiso   1.00
O40    O     0.69297   0.75236   0.42941   0.00000  Uiso   1.00
N41    N     0.95009   0.78667   0.81927   0.00000  Uiso   1.00
N42    N     0.86067   0.07208   0.10110   0.00000  Uiso   1.00
N43    N     0.76233   0.78941   0.37855   0.00000  Uiso   1.00
N44    N     0.88828   0.78784   0.69605   0.00000  Uiso   1.00
N45    N     0.79886   0.07326   0.97787   0.00000  Uiso   1.00
N46    N     0.70052   0.79058   0.25532   0.00000  Uiso   1.00
C47    C     0.36314   0.38259   0.11047   0.00000  Uiso   1.00
C48    C     0.37200   0.35643   0.00011   0.00000  Uiso   1.00
C49    C     0.41387   0.33379   0.97596   0.00000  Uiso   1.00
C50    C     0.41488   0.31191   0.87017   0.00000  Uiso   1.00
C51    C     0.43464   0.27120   0.71076   0.00000  Uiso   1.00
C52    C     0.34736   0.43510   0.07777   0.00000  Uiso   1.00
C53    C     0.36852   0.47860   0.11892   0.00000  Uiso   1.00
C54    C     0.34877   0.52293   0.07852   0.00000  Uiso   1.00
C55    C     0.33026   0.60435   0.03974   0.00000  Uiso   1.00
C56    C     0.32026   0.35719   0.15423   0.00000  Uiso   1.00
C57    C     0.31863   0.33519   0.25968   0.00000  Uiso   1.00
C58    C     0.27606   0.31393   0.28365   0.00000  Uiso   1.00
C59    C     0.21548   0.27439   0.36358   0.00000  Uiso   1.00
C60    C     0.29045   0.38397   0.96556   0.00000  Uiso   1.00
C61    C     0.33252   0.35719   0.92140   0.00000  Uiso   1.00
C62    C     0.33345   0.33532   0.81563   0.00000  Uiso   1.00
C63    C     0.37533   0.31265   0.79132   0.00000  Uiso   1.00
C64    C     0.30788   0.43585   0.99906   0.00000  Uiso   1.00
C65    C     0.28810   0.48013   0.95860   0.00000  Uiso   1.00
C66    C     0.30922   0.52368   0.99967   0.00000  Uiso   1.00
C67    C     0.28078   0.35794   0.07552   0.00000  Uiso   1.00
C68    C     0.23821   0.33671   0.09934   0.00000  Uiso   1.00
C69    C     0.23651   0.31469   0.20480   0.00000  Uiso   1.00
H70    H     0.39388   0.38201   0.17175   0.00000  Uiso   1.00
H71    H     0.44442   0.33323   0.03689   0.00000  Uiso   1.00
H72    H     0.39907   0.47800   0.17984   0.00000  Uiso   1.00
H73    H     0.34919   0.33462   0.32056   0.00000  Uiso   1.00
H74    H     0.48305   0.27949   0.85264   0.00000  Uiso   1.00
H75    H     0.38741   0.58476   0.15409   0.00000  Uiso   1.00
H76    H     0.28223   0.28240   0.45084   0.00000  Uiso   1.00
H77    H     0.25971   0.38456   0.90428   0.00000  Uiso   1.00
H78    H     0.30290   0.33591   0.75473   0.00000  Uiso   1.00
H79    H     0.25754   0.48069   0.89769   0.00000  Uiso   1.00
H80    H     0.20766   0.33730   0.03841   0.00000  Uiso   1.00
H81    H     0.36819   0.28167   0.62363   0.00000  Uiso   1.00
H82    H     0.27254   0.58695   0.92509   0.00000  Uiso   1.00
H83    H     0.16736   0.28458   0.22183   0.00000  Uiso   1.00
O84    O     0.45645   0.24855   0.64457   0.00000  Uiso   1.00
O85    O     0.33096   0.64906   0.04009   0.00000  Uiso   1.00
O86    O     0.19297   0.25236   0.42941   0.00000  Uiso   1.00
N87    N     0.45009   0.28667   0.81927   0.00000  Uiso   1.00
N88    N     0.36067   0.57208   0.10110   0.00000  Uiso   1.00
N89    N     0.26233   0.28941   0.37855   0.00000  Uiso   1.00
N90    N     0.38828   0.28784   0.69605   0.00000  Uiso   1.00
N91    N     0.29886   0.57326   0.97787   0.00000  Uiso   1.00
N92    N     0.20052   0.29058   0.25532   0.00000  Uiso   1.00
C93    C     0.13686   0.88259   0.38953   0.00000  Uiso   1.00
C94    C     0.12800   0.85643   0.49989   0.00000  Uiso   1.00
C95    C     0.08613   0.83379   0.52404   0.00000  Uiso   1.00
C96    C     0.08512   0.81191   0.62983   0.00000  Uiso   1.00
C97    C     0.06536   0.77120   0.78924   0.00000  Uiso   1.00
C98    C     0.15264   0.93510   0.42223   0.00000  Uiso   1.00
C99    C     0.13148   0.97860   0.38108   0.00000  Uiso   1.00
C100   C     0.15123   0.02293   0.42148   0.00000  Uiso   1.00
C101   C     0.16974   0.10435   0.46026   0.00000  Uiso   1.00
C102   C     0.17974   0.85719   0.34577   0.00000  Uiso   1.00
C103   C     0.18137   0.83519   0.24032   0.00000  Uiso   1.00
C104   C     0.22394   0.81393   0.21635   0.00000  Uiso   1.00
C105   C     0.28452   0.77439   0.13642   0.00000  Uiso   1.00
C106   C     0.20955   0.88397   0.53444   0.00000  Uiso   1.00
C107   C     0.16748   0.85719   0.57860   0.00000  Uiso   1.00
C108   C     0.16655   0.83532   0.68437   0.00000  Uiso   1.00
C109   C     0.12467   0.81265   0.70868   0.00000  Uiso   1.00
C110   C     0.19212   0.93585   0.50094   0.00000  Uiso   1.00
C111   C     0.21190   0.98013   0.54140   0.00000  Uiso   1.00
C112   C     0.19078   0.02368   0.50033   0.00000  Uiso   1.00
C113   C     0.21922   0.85794   0.42448   0.00000  Uiso   1.00
C114   C     0.26179   0.83671   0.40066   0.00000  Uiso   1.00
C115   C     0.26349   0.81469   0.29520   0.00000  Uiso   1.00
H116   H     0.10612   0.88201   0.32825   0.00000  Uiso   1.00
H117   H     0.05558   0.83323   0.46311   0.00000  Uiso   1.00
H118   H     0.10093   0.97800   0.32016   0.00000  Uiso   1.00
H119   H     0.15081   0.83462   0.17944   0.00000  Uiso   1.00
H120   H     0.01695   0.77949   0.64736   0.00000  Uiso   1.00
H121   H     0.11259   0.08476   0.34591   0.00000  Uiso   1.00
H122   H     0.21777   0.78240   0.04916   0.00000  Uiso   1.00
H123   H     0.24029   0.88456   0.59572   0.00000  Uiso   1.00
H124   H     0.19710   0.83591   0.74527   0.00000  Uiso   1.00
H125   H     0.24246   0.98069   0.60231   0.00000  Uiso   1.00
H126   H     0.29234   0.83730   0.46159   0.00000  Uiso   1.00
H127   H     0.13181   0.78167   0.87637   0.00000  Uiso   1.00
H128   H     0.22746   0.08695   0.57491   0.00000  Uiso   1.00
H129   H     0.33264   0.78458   0.27817   0.00000  Uiso   1.00
O130   O     0.04355   0.74855   0.85543   0.00000  Uiso   1.00
O131   O     0.16904   0.14906   0.45991   0.00000  Uiso   1.00
O132   O     0.30703   0.75236   0.07059   0.00000  Uiso   1.00
N133   N     0.04991   0.78667   0.68073   0.00000  Uiso   1.00
N134   N     0.13933   0.07208   0.39890   0.00000  Uiso   1.00
N135   N     0.23767   0.78941   0.12145   0.00000  Uiso   1.00
N136   N     0.11172   0.78784   0.80395   0.00000  Uiso   1.00
N137   N     0.20114   0.07326   0.52213   0.00000  Uiso   1.00
N138   N     0.29948   0.79058   0.24468   0.00000  Uiso   1.00
C139   C     0.63686   0.38259   0.38953   0.00000  Uiso   1.00
C140   C     0.62800   0.35643   0.49989   0.00000  Uiso   1.00
C141   C     0.58613   0.33379   0.52404   0.00000  Uiso   1.00
C142   C     0.58512   0.31191   0.62983   0.00000  Uiso   1.00
C143   C     0.56536   0.27120   0.78924   0.00000  Uiso   1.00
C144   C     0.65264   0.43510   0.42223   0.00000  Uiso   1.00
C145   C     0.63148   0.47860   0.38108   0.00000  Uiso   1.00
C146   C     0.65123   0.52293   0.42148   0.00000  Uiso   1.00
C147   C     0.66974   0.60435   0.46026   0.00000  Uiso   1.00
C148   C     0.67974   0.35719   0.34577   0.00000  Uiso   1.00
C149   C     0.68137   0.33519   0.24032   0.00000  Uiso   1.00
C150   C     0.72394   0.31393   0.21635   0.00000  Uiso   1.00
C151   C     0.78452   0.27439   0.13642   0.00000  Uiso   1.00
C152   C     0.70955   0.38397   0.53444   0.00000  Uiso   1.00
C153   C     0.66748   0.35719   0.57860   0.00000  Uiso   1.00
C154   C     0.66655   0.33532   0.68437   0.00000  Uiso   1.00
C155   C     0.62467   0.31265   0.70868   0.00000  Uiso   1.00
C156   C     0.69212   0.43585   0.50094   0.00000  Uiso   1.00
C157   C     0.71190   0.48013   0.54140   0.00000  Uiso   1.00
C158   C     0.69078   0.52368   0.50033   0.00000  Uiso   1.00
C159   C     0.71922   0.35794   0.42448   0.00000  Uiso   1.00
C160   C     0.76179   0.33671   0.40066   0.00000  Uiso   1.00
C161   C     0.76349   0.31469   0.29520   0.00000  Uiso   1.00
H162   H     0.60612   0.38201   0.32825   0.00000  Uiso   1.00
H163   H     0.55558   0.33323   0.46311   0.00000  Uiso   1.00
H164   H     0.60093   0.47800   0.32016   0.00000  Uiso   1.00
H165   H     0.65081   0.33462   0.17944   0.00000  Uiso   1.00
H166   H     0.51695   0.27949   0.64736   0.00000  Uiso   1.00
H167   H     0.61259   0.58476   0.34591   0.00000  Uiso   1.00
H168   H     0.71777   0.28240   0.04916   0.00000  Uiso   1.00
H169   H     0.74029   0.38456   0.59572   0.00000  Uiso   1.00
H170   H     0.69710   0.33591   0.74527   0.00000  Uiso   1.00
H171   H     0.74246   0.48069   0.60231   0.00000  Uiso   1.00
H172   H     0.79234   0.33730   0.46159   0.00000  Uiso   1.00
H173   H     0.63181   0.28167   0.87637   0.00000  Uiso   1.00
H174   H     0.72746   0.58695   0.57491   0.00000  Uiso   1.00
H175   H     0.83264   0.28458   0.27817   0.00000  Uiso   1.00
O176   O     0.54355   0.24855   0.85543   0.00000  Uiso   1.00
O177   O     0.66904   0.64906   0.45991   0.00000  Uiso   1.00
O178   O     0.80703   0.25236   0.07059   0.00000  Uiso   1.00
N179   N     0.54991   0.28667   0.68073   0.00000  Uiso   1.00
N180   N     0.63933   0.57208   0.39890   0.00000  Uiso   1.00
N181   N     0.73767   0.28941   0.12145   0.00000  Uiso   1.00
N182   N     0.61172   0.28784   0.80395   0.00000  Uiso   1.00
N183   N     0.70114   0.57326   0.52213   0.00000  Uiso   1.00
N184   N     0.79948   0.29058   0.24468   0.00000  Uiso   1.00
C185   C     0.13686   0.11741   0.88953   0.00000  Uiso   1.00
C186   C     0.12800   0.14357   0.99989   0.00000  Uiso   1.00
C187   C     0.08613   0.16621   0.02404   0.00000  Uiso   1.00
C188   C     0.08512   0.18809   0.12983   0.00000  Uiso   1.00
C189   C     0.06536   0.22880   0.28924   0.00000  Uiso   1.00
C190   C     0.15264   0.06490   0.92223   0.00000  Uiso   1.00
C191   C     0.13148   0.02140   0.88108   0.00000  Uiso   1.00
C192   C     0.15123   0.97707   0.92148   0.00000  Uiso   1.00
C193   C     0.16974   0.89565   0.96026   0.00000  Uiso   1.00
C194   C     0.17974   0.14281   0.84577   0.00000  Uiso   1.00
C195   C     0.18137   0.16481   0.74032   0.00000  Uiso   1.00
C196   C     0.22394   0.18607   0.71635   0.00000  Uiso   1.00
C197   C     0.28452   0.22561   0.63642   0.00000  Uiso   1.00
C198   C     0.20955   0.11603   0.03444   0.00000  Uiso   1.00
C199   C     0.16748   0.14281   0.07860   0.00000  Uiso   1.00
C200   C     0.16655   0.16468   0.18437   0.00000  Uiso   1.00
C201   C     0.12467   0.18735   0.20868   0.00000  Uiso   1.00
C202   C     0.19212   0.06415   0.00094   0.00000  Uiso   1.00
C203   C     0.21190   0.01987   0.04140   0.00000  Uiso   1.00
C204   C     0.19078   0.97632   0.00033   0.00000  Uiso   1.00
C205   C     0.21922   0.14206   0.92448   0.00000  Uiso   1.00
C206   C     0.26179   0.16329   0.90066   0.00000  Uiso   1.00
C207   C     0.26349   0.18531   0.79520   0.00000  Uiso   1.00
H208   H     0.10612   0.11799   0.82825   0.00000  Uiso   1.00
H209   H     0.05558   0.16677   0.96311   0.00000  Uiso   1.00
H210   H     0.10093   0.02200   0.82016   0.00000  Uiso   1.00
H211   H     0.15081   0.16538   0.67944   0.00000  Uiso   1.00
H212   H     0.01695   0.22051   0.14736   0.00000  Uiso   1.00
H213   H     0.11259   0.91524   0.84591   0.00000  Uiso   1.00
H214   H     0.21777   0.21760   0.54916   0.00000  Uiso   1.00
H215   H     0.24029   0.11544   0.09572   0.00000  Uiso   1.00
H216   H     0.19710   0.16409   0.24527   0.00000  Uiso   1.00
H217   H     0.24246   0.01931   0.10231   0.00000  Uiso   1.00
H218   H     0.29234   0.16270   0.96159   0.00000  Uiso   1.00
H219   H     0.13181   0.21833   0.37637   0.00000  Uiso   1.00
H220   H     0.22746   0.91305   0.07491   0.00000  Uiso   1.00
H221   H     0.33264   0.21542   0.77817   0.00000  Uiso   1.00
O222   O     0.04355   0.25145   0.35543   0.00000  Uiso   1.00
O223   O     0.16904   0.85094   0.95991   0.00000  Uiso   1.00
O224   O     0.30703   0.24764   0.57059   0.00000  Uiso   1.00
N225   N     0.04991   0.21333   0.18073   0.00000  Uiso   1.00
N226   N     0.13933   0.92792   0.89890   0.00000  Uiso   1.00
N227   N     0.23767   0.21059   0.62145   0.00000  Uiso   1.00
N228   N     0.11172   0.21216   0.30395   0.00000  Uiso   1.00
N229   N     0.20114   0.92674   0.02213   0.00000  Uiso   1.00
N230   N     0.29948   0.20942   0.74468   0.00000  Uiso   1.00
C231   C     0.63686   0.61741   0.88953   0.00000  Uiso   1.00
C232   C     0.62800   0.64357   0.99989   0.00000  Uiso   1.00
C233   C     0.58613   0.66621   0.02404   0.00000  Uiso   1.00
C234   C     0.58512   0.68809   0.12983   0.00000  Uiso   1.00
C235   C     0.56536   0.72880   0.28924   0.00000  Uiso   1.00
C236   C     0.65264   0.56490   0.92223   0.00000  Uiso   1.00
C237   C     0.63148   0.52140   0.88108   0.00000  Uiso   1.00
C238   C     0.65123   0.47707   0.92148   0.00000  Uiso   1.00
C239   C     0.66974   0.39565   0.96026   0.00000  Uiso   1.00
C240   C     0.67974   0.64281   0.84577   0.00000  Uiso   1.00
C241   C     0.68137   0.66481   0.74032   0.00000  Uiso   1.00
C242   C     0.72394   0.68607   0.71635   0.00000  Uiso   1.00
C243   C     0.78452   0.72561   0.63642   0.00000  Uiso   1.00
C244   C     0.70955   0.61603   0.03444   0.00000  Uiso   1.00
C245   C     0.66748   0.64281   0.07860   0.00000  Uiso   1.00
C246   C     0.66655   0.66468   0.18437   0.00000  Uiso   1.00
C247   C     0.62467   0.68735   0.20868   0.00000  Uiso   1.00
C248   C     0.69212   0.56415   0.00094   0.00000  Uiso   1.00
C249   C     0.71190   0.51987   0.04140   0.00000  Uiso   1.00
C250   C     0.69078   0.47632   0.00033   0.00000  Uiso   1.00
C251   C     0.71922   0.64206   0.92448   0.00000  Uiso   1.00
C252   C     0.76179   0.66329   0.90066   0.00000  Uiso   1.00
C253   C     0.76349   0.68531   0.79520   0.00000  Uiso   1.00
H254   H     0.60612   0.61799   0.82825   0.00000  Uiso   1.00
H255   H     0.55558   0.66677   0.96311   0.00000  Uiso   1.00
H256   H     0.60093   0.52200   0.82016   0.00000  Uiso   1.00
H257   H     0.65081   0.66538   0.67944   0.00000  Uiso   1.00
H258   H     0.51695   0.72051   0.14736   0.00000  Uiso   1.00
H259   H     0.61259   0.41524   0.84591   0.00000  Uiso   1.00
H260   H     0.71777   0.71760   0.54916   0.00000  Uiso   1.00
H261   H     0.74029   0.61544   0.09572   0.00000  Uiso   1.00
H262   H     0.69710   0.66409   0.24527   0.00000  Uiso   1.00
H263   H     0.74246   0.51931   0.10231   0.00000  Uiso   1.00
H264   H     0.79234   0.66270   0.96159   0.00000  Uiso   1.00
H265   H     0.63181   0.71833   0.37637   0.00000  Uiso   1.00
H266   H     0.72746   0.41305   0.07491   0.00000  Uiso   1.00
H267   H     0.83264   0.71542   0.77817   0.00000  Uiso   1.00
O268   O     0.54355   0.75145   0.35543   0.00000  Uiso   1.00
O269   O     0.66904   0.35094   0.95991   0.00000  Uiso   1.00
O270   O     0.80703   0.74764   0.57059   0.00000  Uiso   1.00
N271   N     0.54991   0.71333   0.18073   0.00000  Uiso   1.00
N272   N     0.63933   0.42792   0.89890   0.00000  Uiso   1.00
N273   N     0.73767   0.71059   0.62145   0.00000  Uiso   1.00
N274   N     0.61172   0.71216   0.30395   0.00000  Uiso   1.00
N275   N     0.70114   0.42674   0.02213   0.00000  Uiso   1.00
N276   N     0.79948   0.70942   0.74468   0.00000  Uiso   1.00
C277   C     0.86314   0.11741   0.61047   0.00000  Uiso   1.00
C278   C     0.87200   0.14357   0.50011   0.00000  Uiso   1.00
C279   C     0.91387   0.16621   0.47596   0.00000  Uiso   1.00
C280   C     0.91488   0.18809   0.37017   0.00000  Uiso   1.00
C281   C     0.93464   0.22880   0.21076   0.00000  Uiso   1.00
C282   C     0.84736   0.06490   0.57777   0.00000  Uiso   1.00
C283   C     0.86852   0.02140   0.61892   0.00000  Uiso   1.00
C284   C     0.84877   0.97707   0.57852   0.00000  Uiso   1.00
C285   C     0.83026   0.89565   0.53974   0.00000  Uiso   1.00
C286   C     0.82026   0.14281   0.65423   0.00000  Uiso   1.00
C287   C     0.81863   0.16481   0.75968   0.00000  Uiso   1.00
C288   C     0.77606   0.18607   0.78365   0.00000  Uiso   1.00
C289   C     0.71548   0.22561   0.86358   0.00000  Uiso   1.00
C290   C     0.79045   0.11603   0.46556   0.00000  Uiso   1.00
C291   C     0.83252   0.14281   0.42140   0.00000  Uiso   1.00
C292   C     0.83345   0.16468   0.31563   0.00000  Uiso   1.00
C293   C     0.87533   0.18735   0.29132   0.00000  Uiso   1.00
C294   C     0.80788   0.06415   0.49906   0.00000  Uiso   1.00
C295   C     0.78810   0.01987   0.45860   0.00000  Uiso   1.00
C296   C     0.80922   0.97632   0.49967   0.00000  Uiso   1.00
C297   C     0.78078   0.14206   0.57552   0.00000  Uiso   1.00
C298   C     0.73821   0.16329   0.59934   0.00000  Uiso   1.00
C299   C     0.73651   0.18531   0.70480   0.00000  Uiso   1.00
H300   H     0.89388   0.11799   0.67175   0.00000  Uiso   1.00
H301   H     0.94442   0.16677   0.53689   0.00000  Uiso   1.00
H302   H     0.89907   0.02200   0.67984   0.00000  Uiso   1.00
H303   H     0.84919   0.16538   0.82056   0.00000  Uiso   1.00
H304   H     0.98305   0.22051   0.35264   0.00000  Uiso   1.00
H305   H     0.88741   0.91524   0.65409   0.00000  Uiso   1.00
H306   H     0.78223   0.21760   0.95084   0.00000  Uiso   1.00
H307   H     0.75971   0.11544   0.40428   0.00000  Uiso   1.00
H308   H     0.80290   0.16409   0.25473   0.00000  Uiso   1.00
H309   H     0.75754   0.01931   0.39769   0.00000  Uiso   1.00
H310   H     0.70766   0.16270   0.53841   0.00000  Uiso   1.00
H311   H     0.86819   0.21833   0.12363   0.00000  Uiso   1.00
H312   H     0.77254   0.91305   0.42509   0.00000  Uiso   1.00
H313   H     0.66736   0.21542   0.72183   0.00000  Uiso   1.00
O314   O     0.95645   0.25145   0.14457   0.00000  Uiso   1.00
O315   O     0.83096   0.85094   0.54009   0.00000  Uiso   1.00
O316   O     0.69297   0.24764   0.92941   0.00000  Uiso   1.00
N317   N     0.95009   0.21333   0.31927   0.00000  Uiso   1.00
N318   N     0.86067   0.92792   0.60110   0.00000  Uiso   1.00
N319   N     0.76233   0.21059   0.87855   0.00000  Uiso   1.00
N320   N     0.88828   0.21216   0.19605   0.00000  Uiso   1.00
N321   N     0.79886   0.92674   0.47787   0.00000  Uiso   1.00
N322   N     0.70052   0.20942   0.75532   0.00000  Uiso   1.00
C323   C     0.36314   0.61741   0.61047   0.00000  Uiso   1.00
C324   C     0.37200   0.64357   0.50011   0.00000  Uiso   1.00
C325   C     0.41387   0.66621   0.47596   0.00000  Uiso   1.00
C326   C     0.41488   0.68809   0.37017   0.00000  Uiso   1.00
C327   C     0.43464   0.72880   0.21076   0.00000  Uiso   1.00
C328   C     0.34736   0.56490   0.57777   0.00000  Uiso   1.00
C329   C     0.36852   0.52140   0.61892   0.00000  Uiso   1.00
C330   C     0.34877   0.47707   0.57852   0.00000  Uiso   1.00
C331   C     0.33026   0.39565   0.53974   0.00000  Uiso   1.00
C332   C     0.32026   0.64281   0.65423   0.00000  Uiso   1.00
C333   C     0.31863   0.66481   0.75968   0.00000  Uiso   1.00
C334   C     0.27606   0.68607   0.78365   0.00000  Uiso   1.00
C335   C     0.21548   0.72561   0.86358   0.00000  Uiso   1.00
C336   C     0.29045   0.61603   0.46556   0.00000  Uiso   1.00
C337   C     0.33252   0.64281   0.42140   0.00000  Uiso   1.00
C338   C     0.33345   0.66468   0.31563   0.00000  Uiso   1.00
C339   C     0.37533   0.68735   0.29132   0.00000  Uiso   1.00
C340   C     0.30788   0.56415   0.49906   0.00000  Uiso   1.00
C341   C     0.28810   0.51987   0.45860   0.00000  Uiso   1.00
C342   C     0.30922   0.47632   0.49967   0.00000  Uiso   1.00
C343   C     0.28078   0.64206   0.57552   0.00000  Uiso   1.00
C344   C     0.23821   0.66329   0.59934   0.00000  Uiso   1.00
C345   C     0.23651   0.68531   0.70480   0.00000  Uiso   1.00
H346   H     0.39388   0.61799   0.67175   0.00000  Uiso   1.00
H347   H     0.44442   0.66677   0.53689   0.00000  Uiso   1.00
H348   H     0.39907   0.52200   0.67984   0.00000  Uiso   1.00
H349   H     0.34919   0.66538   0.82056   0.00000  Uiso   1.00
H350   H     0.48305   0.72051   0.35264   0.00000  Uiso   1.00
H351   H     0.38741   0.41524   0.65409   0.00000  Uiso   1.00
H352   H     0.28223   0.71760   0.95084   0.00000  Uiso   1.00
H353   H     0.25971   0.61544   0.40428   0.00000  Uiso   1.00
H354   H     0.30290   0.66409   0.25473   0.00000  Uiso   1.00
H355   H     0.25754   0.51931   0.39769   0.00000  Uiso   1.00
H356   H     0.20766   0.66270   0.53841   0.00000  Uiso   1.00
H357   H     0.36819   0.71833   0.12363   0.00000  Uiso   1.00
H358   H     0.27254   0.41305   0.42509   0.00000  Uiso   1.00
H359   H     0.16736   0.71542   0.72183   0.00000  Uiso   1.00
O360   O     0.45645   0.75145   0.14457   0.00000  Uiso   1.00
O361   O     0.33096   0.35094   0.54009   0.00000  Uiso   1.00
O362   O     0.19297   0.74764   0.92941   0.00000  Uiso   1.00
N363   N     0.45009   0.71333   0.31927   0.00000  Uiso   1.00
N364   N     0.36067   0.42792   0.60110   0.00000  Uiso   1.00
N365   N     0.26233   0.71059   0.87855   0.00000  Uiso   1.00
N366   N     0.38828   0.71216   0.19605   0.00000  Uiso   1.00
N367   N     0.29886   0.42674   0.47787   0.00000  Uiso   1.00
N368   N     0.20052   0.70942   0.75532   0.00000  Uiso   1.00
