data_job_00401
_audit_creation_date              2018-12-19
_audit_creation_method            'Materials Studio'
_symmetry_space_group_name_H-M    'P1'
_symmetry_Int_Tables_number       1
_symmetry_cell_setting            triclinic
loop_
_symmetry_equiv_pos_as_xyz
  x,y,z
_cell_length_a                    11.0771
_cell_length_b                    11.9682
_cell_length_c                    12.4334
_cell_angle_alpha                 103.4510
_cell_angle_beta                  90.6713
_cell_angle_gamma                 62.9839
loop_
_atom_site_label
_atom_site_type_symbol
_atom_site_fract_x
_atom_site_fract_y
_atom_site_fract_z
_atom_site_U_iso_or_equiv
_atom_site_adp_type
_atom_site_occupancy
C1     C     0.18631   0.91533   0.74979   0.00000  Uiso   1.00
C2     C     0.24153   0.85529   0.62723   0.00000  Uiso   1.00
C3     C     0.18814   0.79324   0.54755   0.00000  Uiso   1.00
C4     C     0.25335   0.74485   0.44000   0.00000  Uiso   1.00
C5     C     0.32172   0.64956   0.25379   0.00000  Uiso   1.00
C6     C     0.30485   0.85073   0.81507   0.00000  Uiso   1.00
C7     C     0.30469   0.78487   0.89333   0.00000  Uiso   1.00
C8     C     0.42320   0.73266   0.94391   0.00000  Uiso   1.00
C9     C     0.58984   0.63038   0.04938   0.00000  Uiso   1.00
C10    C     0.15700   0.05665   0.77328   0.00000  Uiso   1.00
C11    C     0.03253   0.16394   0.81642   0.00000  Uiso   1.00
C12    C     0.02657   0.28510   0.83184   0.00000  Uiso   1.00
C13    C     0.96365   0.50254   0.87242   0.00000  Uiso   1.00
C14    C     0.39708   0.93972   0.70049   0.00000  Uiso   1.00
C15    C     0.35601   0.86854   0.60046   0.00000  Uiso   1.00
C16    C     0.42133   0.82023   0.49300   0.00000  Uiso   1.00
C17    C     0.36803   0.75813   0.41317   0.00000  Uiso   1.00
C18    C     0.41933   0.86398   0.78830   0.00000  Uiso   1.00
C19    C     0.53788   0.81186   0.83878   0.00000  Uiso   1.00
C20    C     0.53789   0.74593   0.91708   0.00000  Uiso   1.00
C21    C     0.27148   0.06991   0.74650   0.00000  Uiso   1.00
C22    C     0.26572   0.19093   0.76187   0.00000  Uiso   1.00
C23    C     0.14126   0.29837   0.80502   0.00000  Uiso   1.00
H24    H     0.09719   0.90501   0.77064   0.00000  Uiso   1.00
H25    H     0.09954   0.78300   0.56830   0.00000  Uiso   1.00
H26    H     0.21607   0.77465   0.91404   0.00000  Uiso   1.00
H27    H     0.94396   0.15365   0.83713   0.00000  Uiso   1.00
H28    H     0.15267   0.65353   0.33218   0.00000  Uiso   1.00
H29    H     0.39836   0.63595   0.06120   0.00000  Uiso   1.00
H30    H     0.82455   0.43516   0.89904   0.00000  Uiso   1.00
H31    H     0.48621   0.95004   0.67964   0.00000  Uiso   1.00
H32    H     0.50992   0.83050   0.47231   0.00000  Uiso   1.00
H33    H     0.62645   0.82214   0.81804   0.00000  Uiso   1.00
H34    H     0.35433   0.20114   0.74114   0.00000  Uiso   1.00
H35    H     0.48575   0.69208   0.25426   0.00000  Uiso   1.00
H36    H     0.73144   0.67451   0.98329   0.00000  Uiso   1.00
H37    H     0.15763   0.47371   0.82113   0.00000  Uiso   1.00
O38    O     0.32781   0.59332   0.15848   0.00000  Uiso   1.00
O39    O     0.65013   0.57028   0.11494   0.00000  Uiso   1.00
O40    O     0.89731   0.61882   0.90218   0.00000  Uiso   1.00
N41    N     0.22779   0.67903   0.34229   0.00000  Uiso   1.00
N42    N     0.45751   0.66258   0.02387   0.00000  Uiso   1.00
N43    N     0.92105   0.40977   0.87229   0.00000  Uiso   1.00
N44    N     0.40702   0.69978   0.30036   0.00000  Uiso   1.00
N45    N     0.63673   0.68332   0.98194   0.00000  Uiso   1.00
N46    N     0.10028   0.43051   0.83037   0.00000  Uiso   1.00
C47    C     0.81369   0.08467   0.25021   0.00000  Uiso   1.00
C48    C     0.75847   0.14471   0.37277   0.00000  Uiso   1.00
C49    C     0.81186   0.20676   0.45245   0.00000  Uiso   1.00
C50    C     0.74665   0.25515   0.56000   0.00000  Uiso   1.00
C51    C     0.67828   0.35044   0.74621   0.00000  Uiso   1.00
C52    C     0.69515   0.14927   0.18493   0.00000  Uiso   1.00
C53    C     0.69531   0.21513   0.10667   0.00000  Uiso   1.00
C54    C     0.57680   0.26734   0.05609   0.00000  Uiso   1.00
C55    C     0.41016   0.36962   0.95062   0.00000  Uiso   1.00
C56    C     0.84300   0.94335   0.22672   0.00000  Uiso   1.00
C57    C     0.96747   0.83606   0.18358   0.00000  Uiso   1.00
C58    C     0.97343   0.71490   0.16816   0.00000  Uiso   1.00
C59    C     0.03635   0.49746   0.12758   0.00000  Uiso   1.00
C60    C     0.60292   0.06028   0.29951   0.00000  Uiso   1.00
C61    C     0.64399   0.13146   0.39954   0.00000  Uiso   1.00
C62    C     0.57867   0.17977   0.50700   0.00000  Uiso   1.00
C63    C     0.63197   0.24187   0.58683   0.00000  Uiso   1.00
C64    C     0.58067   0.13602   0.21170   0.00000  Uiso   1.00
C65    C     0.46212   0.18814   0.16122   0.00000  Uiso   1.00
C66    C     0.46211   0.25407   0.08292   0.00000  Uiso   1.00
C67    C     0.72852   0.93009   0.25350   0.00000  Uiso   1.00
C68    C     0.73428   0.80907   0.23813   0.00000  Uiso   1.00
C69    C     0.85874   0.70163   0.19498   0.00000  Uiso   1.00
H70    H     0.90281   0.09499   0.22936   0.00000  Uiso   1.00
H71    H     0.90046   0.21700   0.43170   0.00000  Uiso   1.00
H72    H     0.78393   0.22535   0.08596   0.00000  Uiso   1.00
H73    H     0.05604   0.84635   0.16287   0.00000  Uiso   1.00
H74    H     0.84733   0.34647   0.66782   0.00000  Uiso   1.00
H75    H     0.60164   0.36405   0.93880   0.00000  Uiso   1.00
H76    H     0.17545   0.56484   0.10096   0.00000  Uiso   1.00
H77    H     0.51379   0.04996   0.32036   0.00000  Uiso   1.00
H78    H     0.49008   0.16950   0.52769   0.00000  Uiso   1.00
H79    H     0.37355   0.17786   0.18196   0.00000  Uiso   1.00
H80    H     0.64567   0.79886   0.25886   0.00000  Uiso   1.00
H81    H     0.51425   0.30792   0.74574   0.00000  Uiso   1.00
H82    H     0.26856   0.32549   0.01671   0.00000  Uiso   1.00
H83    H     0.84237   0.52629   0.17887   0.00000  Uiso   1.00
O84    O     0.67219   0.40668   0.84152   0.00000  Uiso   1.00
O85    O     0.34987   0.42972   0.88506   0.00000  Uiso   1.00
O86    O     0.10269   0.38118   0.09782   0.00000  Uiso   1.00
N87    N     0.77221   0.32097   0.65771   0.00000  Uiso   1.00
N88    N     0.54249   0.33742   0.97613   0.00000  Uiso   1.00
N89    N     0.07895   0.59023   0.12771   0.00000  Uiso   1.00
N90    N     0.59298   0.30022   0.69964   0.00000  Uiso   1.00
N91    N     0.36327   0.31668   0.01806   0.00000  Uiso   1.00
N92    N     0.89972   0.56949   0.16963   0.00000  Uiso   1.00
