data_job_03280
_audit_creation_date              2018-12-19
_audit_creation_method            'Materials Studio'
_symmetry_space_group_name_H-M    'P1'
_symmetry_Int_Tables_number       1
_symmetry_cell_setting            triclinic
loop_
_symmetry_equiv_pos_as_xyz
  x,y,z
_cell_length_a                    12.3135
_cell_length_b                    14.2284
_cell_length_c                    30.8730
_cell_angle_alpha                 90.0000
_cell_angle_beta                  98.4743
_cell_angle_gamma                 90.0000
loop_
_atom_site_label
_atom_site_type_symbol
_atom_site_fract_x
_atom_site_fract_y
_atom_site_fract_z
_atom_site_U_iso_or_equiv
_atom_site_adp_type
_atom_site_occupancy
C1     C     0.97971   0.95453   0.38266   0.00000  Uiso   1.00
C2     C     0.92857   0.94991   0.33462   0.00000  Uiso   1.00
C3     C     0.91940   0.86986   0.30866   0.00000  Uiso   1.00
C4     C     0.87002   0.88025   0.26550   0.00000  Uiso   1.00
C5     C     0.79656   0.85981   0.19342   0.00000  Uiso   1.00
C6     C     0.07003   0.02854   0.38536   0.00000  Uiso   1.00
C7     C     0.17978   0.01461   0.40207   0.00000  Uiso   1.00
C8     C     0.24948   0.09120   0.40163   0.00000  Uiso   1.00
C9     C     0.39561   0.19285   0.40835   0.00000  Uiso   1.00
C10    C     0.89164   0.99533   0.40713   0.00000  Uiso   1.00
C11    C     0.85141   0.95348   0.44215   0.00000  Uiso   1.00
C12    C     0.77093   0.00213   0.46005   0.00000  Uiso   1.00
C13    C     0.64009   0.05221   0.50057   0.00000  Uiso   1.00
C14    C     0.90834   0.11533   0.35221   0.00000  Uiso   1.00
C15    C     0.88981   0.03725   0.31808   0.00000  Uiso   1.00
C16    C     0.84043   0.04777   0.27496   0.00000  Uiso   1.00
C17    C     0.83118   0.96775   0.24893   0.00000  Uiso   1.00
C18    C     0.03127   0.11588   0.36882   0.00000  Uiso   1.00
C19    C     0.10082   0.19251   0.36837   0.00000  Uiso   1.00
C20    C     0.21064   0.17870   0.38506   0.00000  Uiso   1.00
C21    C     0.85287   0.08267   0.39059   0.00000  Uiso   1.00
C22    C     0.77245   0.13139   0.40844   0.00000  Uiso   1.00
C23    C     0.73210   0.08962   0.44347   0.00000  Uiso   1.00
H24    H     0.00990   0.88653   0.39555   0.00000  Uiso   1.00
H25    H     0.94942   0.80228   0.32147   0.00000  Uiso   1.00
H26    H     0.20975   0.94701   0.41487   0.00000  Uiso   1.00
H27    H     0.88143   0.88590   0.45494   0.00000  Uiso   1.00
H28    H     0.86530   0.74740   0.23204   0.00000  Uiso   1.00
H29    H     0.41423   0.05258   0.42900   0.00000  Uiso   1.00
H30    H     0.72190   0.92370   0.51349   0.00000  Uiso   1.00
H31    H     0.87816   0.18333   0.33932   0.00000  Uiso   1.00
H32    H     0.81044   0.11536   0.26216   0.00000  Uiso   1.00
H33    H     0.07079   0.26009   0.35556   0.00000  Uiso   1.00
H34    H     0.74247   0.19897   0.39563   0.00000  Uiso   1.00
H35    H     0.75251   0.00151   0.18391   0.00000  Uiso   1.00
H36    H     0.30144   0.30669   0.38086   0.00000  Uiso   1.00
H37    H     0.60911   0.17781   0.46535   0.00000  Uiso   1.00
O38    O     0.76677   0.82440   0.15823   0.00000  Uiso   1.00
O39    O     0.48693   0.22478   0.41663   0.00000  Uiso   1.00
O40    O     0.57862   0.05570   0.52748   0.00000  Uiso   1.00
N41    N     0.84803   0.81653   0.23131   0.00000  Uiso   1.00
N42    N     0.36125   0.10185   0.41544   0.00000  Uiso   1.00
N43    N     0.71400   0.98137   0.49444   0.00000  Uiso   1.00
N44    N     0.78733   0.95326   0.20540   0.00000  Uiso   1.00
N45    N     0.30055   0.23858   0.38954   0.00000  Uiso   1.00
N46    N     0.65331   0.11810   0.46854   0.00000  Uiso   1.00
C47    C     0.47971   0.45453   0.38266   0.00000  Uiso   1.00
C48    C     0.42857   0.44991   0.33462   0.00000  Uiso   1.00
C49    C     0.41940   0.36986   0.30866   0.00000  Uiso   1.00
C50    C     0.37002   0.38025   0.26550   0.00000  Uiso   1.00
C51    C     0.29656   0.35981   0.19342   0.00000  Uiso   1.00
C52    C     0.57003   0.52854   0.38536   0.00000  Uiso   1.00
C53    C     0.67978   0.51461   0.40207   0.00000  Uiso   1.00
C54    C     0.74948   0.59120   0.40163   0.00000  Uiso   1.00
C55    C     0.89561   0.69285   0.40835   0.00000  Uiso   1.00
C56    C     0.39164   0.49533   0.40713   0.00000  Uiso   1.00
C57    C     0.35141   0.45348   0.44215   0.00000  Uiso   1.00
C58    C     0.27093   0.50213   0.46005   0.00000  Uiso   1.00
C59    C     0.14009   0.55221   0.50057   0.00000  Uiso   1.00
C60    C     0.40834   0.61533   0.35221   0.00000  Uiso   1.00
C61    C     0.38981   0.53725   0.31808   0.00000  Uiso   1.00
C62    C     0.34043   0.54777   0.27496   0.00000  Uiso   1.00
C63    C     0.33118   0.46775   0.24893   0.00000  Uiso   1.00
C64    C     0.53127   0.61588   0.36882   0.00000  Uiso   1.00
C65    C     0.60082   0.69251   0.36837   0.00000  Uiso   1.00
C66    C     0.71064   0.67870   0.38506   0.00000  Uiso   1.00
C67    C     0.35287   0.58267   0.39059   0.00000  Uiso   1.00
C68    C     0.27245   0.63139   0.40844   0.00000  Uiso   1.00
C69    C     0.23210   0.58962   0.44347   0.00000  Uiso   1.00
H70    H     0.50990   0.38653   0.39555   0.00000  Uiso   1.00
H71    H     0.44942   0.30228   0.32147   0.00000  Uiso   1.00
H72    H     0.70975   0.44701   0.41487   0.00000  Uiso   1.00
H73    H     0.38143   0.38590   0.45494   0.00000  Uiso   1.00
H74    H     0.36530   0.24740   0.23204   0.00000  Uiso   1.00
H75    H     0.91423   0.55258   0.42900   0.00000  Uiso   1.00
H76    H     0.22190   0.42370   0.51349   0.00000  Uiso   1.00
H77    H     0.37816   0.68333   0.33932   0.00000  Uiso   1.00
H78    H     0.31044   0.61536   0.26216   0.00000  Uiso   1.00
H79    H     0.57079   0.76009   0.35556   0.00000  Uiso   1.00
H80    H     0.24247   0.69897   0.39563   0.00000  Uiso   1.00
H81    H     0.25251   0.50151   0.18391   0.00000  Uiso   1.00
H82    H     0.80144   0.80669   0.38086   0.00000  Uiso   1.00
H83    H     0.10911   0.67781   0.46535   0.00000  Uiso   1.00
O84    O     0.26677   0.32440   0.15823   0.00000  Uiso   1.00
O85    O     0.98693   0.72478   0.41663   0.00000  Uiso   1.00
O86    O     0.07862   0.55570   0.52748   0.00000  Uiso   1.00
N87    N     0.34803   0.31653   0.23131   0.00000  Uiso   1.00
N88    N     0.86125   0.60185   0.41544   0.00000  Uiso   1.00
N89    N     0.21400   0.48137   0.49444   0.00000  Uiso   1.00
N90    N     0.28733   0.45326   0.20540   0.00000  Uiso   1.00
N91    N     0.80055   0.73858   0.38954   0.00000  Uiso   1.00
N92    N     0.15331   0.61810   0.46854   0.00000  Uiso   1.00
C93    C     0.02029   0.95453   0.11734   0.00000  Uiso   1.00
C94    C     0.07143   0.94991   0.16538   0.00000  Uiso   1.00
C95    C     0.08060   0.86986   0.19134   0.00000  Uiso   1.00
C96    C     0.12998   0.88025   0.23450   0.00000  Uiso   1.00
C97    C     0.20344   0.85981   0.30658   0.00000  Uiso   1.00
C98    C     0.92997   0.02854   0.11464   0.00000  Uiso   1.00
C99    C     0.82022   0.01461   0.09793   0.00000  Uiso   1.00
C100   C     0.75052   0.09120   0.09837   0.00000  Uiso   1.00
C101   C     0.60439   0.19285   0.09165   0.00000  Uiso   1.00
C102   C     0.10836   0.99533   0.09287   0.00000  Uiso   1.00
C103   C     0.14859   0.95348   0.05785   0.00000  Uiso   1.00
C104   C     0.22907   0.00213   0.03995   0.00000  Uiso   1.00
C105   C     0.35991   0.05221   0.99943   0.00000  Uiso   1.00
C106   C     0.09166   0.11533   0.14779   0.00000  Uiso   1.00
C107   C     0.11019   0.03725   0.18192   0.00000  Uiso   1.00
C108   C     0.15957   0.04777   0.22504   0.00000  Uiso   1.00
C109   C     0.16882   0.96775   0.25107   0.00000  Uiso   1.00
C110   C     0.96873   0.11588   0.13118   0.00000  Uiso   1.00
C111   C     0.89918   0.19251   0.13163   0.00000  Uiso   1.00
C112   C     0.78936   0.17870   0.11494   0.00000  Uiso   1.00
C113   C     0.14713   0.08267   0.10941   0.00000  Uiso   1.00
C114   C     0.22755   0.13139   0.09156   0.00000  Uiso   1.00
C115   C     0.26790   0.08962   0.05653   0.00000  Uiso   1.00
H116   H     0.99010   0.88653   0.10445   0.00000  Uiso   1.00
H117   H     0.05058   0.80228   0.17853   0.00000  Uiso   1.00
H118   H     0.79025   0.94701   0.08513   0.00000  Uiso   1.00
H119   H     0.11857   0.88590   0.04506   0.00000  Uiso   1.00
H120   H     0.13470   0.74740   0.26796   0.00000  Uiso   1.00
H121   H     0.58577   0.05258   0.07100   0.00000  Uiso   1.00
H122   H     0.27810   0.92370   0.98651   0.00000  Uiso   1.00
H123   H     0.12184   0.18333   0.16068   0.00000  Uiso   1.00
H124   H     0.18956   0.11536   0.23784   0.00000  Uiso   1.00
H125   H     0.92921   0.26009   0.14444   0.00000  Uiso   1.00
H126   H     0.25753   0.19897   0.10437   0.00000  Uiso   1.00
H127   H     0.24749   0.00151   0.31609   0.00000  Uiso   1.00
H128   H     0.69856   0.30669   0.11914   0.00000  Uiso   1.00
H129   H     0.39089   0.17781   0.03465   0.00000  Uiso   1.00
O130   O     0.23323   0.82440   0.34177   0.00000  Uiso   1.00
O131   O     0.51307   0.22478   0.08337   0.00000  Uiso   1.00
O132   O     0.42138   0.05570   0.97252   0.00000  Uiso   1.00
N133   N     0.15197   0.81653   0.26869   0.00000  Uiso   1.00
N134   N     0.63875   0.10185   0.08456   0.00000  Uiso   1.00
N135   N     0.28600   0.98137   0.00556   0.00000  Uiso   1.00
N136   N     0.21267   0.95326   0.29460   0.00000  Uiso   1.00
N137   N     0.69945   0.23858   0.11046   0.00000  Uiso   1.00
N138   N     0.34669   0.11810   0.03146   0.00000  Uiso   1.00
C139   C     0.52029   0.45453   0.11734   0.00000  Uiso   1.00
C140   C     0.57143   0.44991   0.16538   0.00000  Uiso   1.00
C141   C     0.58060   0.36986   0.19134   0.00000  Uiso   1.00
C142   C     0.62998   0.38025   0.23450   0.00000  Uiso   1.00
C143   C     0.70344   0.35981   0.30658   0.00000  Uiso   1.00
C144   C     0.42997   0.52854   0.11464   0.00000  Uiso   1.00
C145   C     0.32022   0.51461   0.09793   0.00000  Uiso   1.00
C146   C     0.25052   0.59120   0.09837   0.00000  Uiso   1.00
C147   C     0.10439   0.69285   0.09165   0.00000  Uiso   1.00
C148   C     0.60836   0.49533   0.09287   0.00000  Uiso   1.00
C149   C     0.64859   0.45348   0.05785   0.00000  Uiso   1.00
C150   C     0.72907   0.50213   0.03995   0.00000  Uiso   1.00
C151   C     0.85991   0.55221   0.99943   0.00000  Uiso   1.00
C152   C     0.59166   0.61533   0.14779   0.00000  Uiso   1.00
C153   C     0.61019   0.53725   0.18192   0.00000  Uiso   1.00
C154   C     0.65957   0.54777   0.22504   0.00000  Uiso   1.00
C155   C     0.66882   0.46775   0.25107   0.00000  Uiso   1.00
C156   C     0.46873   0.61588   0.13118   0.00000  Uiso   1.00
C157   C     0.39918   0.69251   0.13163   0.00000  Uiso   1.00
C158   C     0.28936   0.67870   0.11494   0.00000  Uiso   1.00
C159   C     0.64713   0.58267   0.10941   0.00000  Uiso   1.00
C160   C     0.72755   0.63139   0.09156   0.00000  Uiso   1.00
C161   C     0.76790   0.58962   0.05653   0.00000  Uiso   1.00
H162   H     0.49010   0.38653   0.10445   0.00000  Uiso   1.00
H163   H     0.55058   0.30228   0.17853   0.00000  Uiso   1.00
H164   H     0.29025   0.44701   0.08513   0.00000  Uiso   1.00
H165   H     0.61857   0.38590   0.04506   0.00000  Uiso   1.00
H166   H     0.63470   0.24740   0.26796   0.00000  Uiso   1.00
H167   H     0.08577   0.55258   0.07100   0.00000  Uiso   1.00
H168   H     0.77810   0.42370   0.98651   0.00000  Uiso   1.00
H169   H     0.62184   0.68333   0.16068   0.00000  Uiso   1.00
H170   H     0.68956   0.61536   0.23784   0.00000  Uiso   1.00
H171   H     0.42921   0.76009   0.14444   0.00000  Uiso   1.00
H172   H     0.75753   0.69897   0.10437   0.00000  Uiso   1.00
H173   H     0.74749   0.50151   0.31609   0.00000  Uiso   1.00
H174   H     0.19856   0.80669   0.11914   0.00000  Uiso   1.00
H175   H     0.89089   0.67781   0.03465   0.00000  Uiso   1.00
O176   O     0.73323   0.32440   0.34177   0.00000  Uiso   1.00
O177   O     0.01307   0.72478   0.08337   0.00000  Uiso   1.00
O178   O     0.92138   0.55570   0.97252   0.00000  Uiso   1.00
N179   N     0.65197   0.31653   0.26869   0.00000  Uiso   1.00
N180   N     0.13875   0.60185   0.08456   0.00000  Uiso   1.00
N181   N     0.78600   0.48137   0.00556   0.00000  Uiso   1.00
N182   N     0.71267   0.45326   0.29460   0.00000  Uiso   1.00
N183   N     0.19945   0.73858   0.11046   0.00000  Uiso   1.00
N184   N     0.84669   0.61810   0.03146   0.00000  Uiso   1.00
C185   C     0.02029   0.04547   0.61734   0.00000  Uiso   1.00
C186   C     0.07143   0.05009   0.66538   0.00000  Uiso   1.00
C187   C     0.08060   0.13014   0.69134   0.00000  Uiso   1.00
C188   C     0.12998   0.11975   0.73450   0.00000  Uiso   1.00
C189   C     0.20344   0.14019   0.80658   0.00000  Uiso   1.00
C190   C     0.92997   0.97146   0.61464   0.00000  Uiso   1.00
C191   C     0.82022   0.98539   0.59793   0.00000  Uiso   1.00
C192   C     0.75052   0.90880   0.59837   0.00000  Uiso   1.00
C193   C     0.60439   0.80715   0.59165   0.00000  Uiso   1.00
C194   C     0.10836   0.00467   0.59287   0.00000  Uiso   1.00
C195   C     0.14859   0.04652   0.55785   0.00000  Uiso   1.00
C196   C     0.22907   0.99787   0.53995   0.00000  Uiso   1.00
C197   C     0.35991   0.94779   0.49943   0.00000  Uiso   1.00
C198   C     0.09166   0.88467   0.64779   0.00000  Uiso   1.00
C199   C     0.11019   0.96275   0.68192   0.00000  Uiso   1.00
C200   C     0.15957   0.95223   0.72504   0.00000  Uiso   1.00
C201   C     0.16882   0.03225   0.75107   0.00000  Uiso   1.00
C202   C     0.96873   0.88412   0.63118   0.00000  Uiso   1.00
C203   C     0.89918   0.80749   0.63163   0.00000  Uiso   1.00
C204   C     0.78936   0.82130   0.61494   0.00000  Uiso   1.00
C205   C     0.14713   0.91733   0.60941   0.00000  Uiso   1.00
C206   C     0.22755   0.86861   0.59156   0.00000  Uiso   1.00
C207   C     0.26790   0.91038   0.55653   0.00000  Uiso   1.00
H208   H     0.99010   0.11347   0.60445   0.00000  Uiso   1.00
H209   H     0.05058   0.19772   0.67853   0.00000  Uiso   1.00
H210   H     0.79025   0.05299   0.58513   0.00000  Uiso   1.00
H211   H     0.11857   0.11410   0.54506   0.00000  Uiso   1.00
H212   H     0.13470   0.25260   0.76796   0.00000  Uiso   1.00
H213   H     0.58577   0.94742   0.57100   0.00000  Uiso   1.00
H214   H     0.27810   0.07630   0.48651   0.00000  Uiso   1.00
H215   H     0.12184   0.81667   0.66068   0.00000  Uiso   1.00
H216   H     0.18956   0.88464   0.73784   0.00000  Uiso   1.00
H217   H     0.92921   0.73991   0.64444   0.00000  Uiso   1.00
H218   H     0.25753   0.80103   0.60437   0.00000  Uiso   1.00
H219   H     0.24749   0.99849   0.81609   0.00000  Uiso   1.00
H220   H     0.69856   0.69331   0.61914   0.00000  Uiso   1.00
H221   H     0.39089   0.82219   0.53465   0.00000  Uiso   1.00
O222   O     0.23323   0.17560   0.84177   0.00000  Uiso   1.00
O223   O     0.51307   0.77522   0.58337   0.00000  Uiso   1.00
O224   O     0.42138   0.94430   0.47252   0.00000  Uiso   1.00
N225   N     0.15197   0.18347   0.76869   0.00000  Uiso   1.00
N226   N     0.63875   0.89815   0.58456   0.00000  Uiso   1.00
N227   N     0.28600   0.01863   0.50556   0.00000  Uiso   1.00
N228   N     0.21267   0.04674   0.79460   0.00000  Uiso   1.00
N229   N     0.69945   0.76142   0.61046   0.00000  Uiso   1.00
N230   N     0.34669   0.88190   0.53146   0.00000  Uiso   1.00
C231   C     0.52029   0.54547   0.61734   0.00000  Uiso   1.00
C232   C     0.57143   0.55009   0.66538   0.00000  Uiso   1.00
C233   C     0.58060   0.63014   0.69134   0.00000  Uiso   1.00
C234   C     0.62998   0.61975   0.73450   0.00000  Uiso   1.00
C235   C     0.70344   0.64019   0.80658   0.00000  Uiso   1.00
C236   C     0.42997   0.47146   0.61464   0.00000  Uiso   1.00
C237   C     0.32022   0.48539   0.59793   0.00000  Uiso   1.00
C238   C     0.25052   0.40880   0.59837   0.00000  Uiso   1.00
C239   C     0.10439   0.30715   0.59165   0.00000  Uiso   1.00
C240   C     0.60836   0.50467   0.59287   0.00000  Uiso   1.00
C241   C     0.64859   0.54652   0.55785   0.00000  Uiso   1.00
C242   C     0.72907   0.49787   0.53995   0.00000  Uiso   1.00
C243   C     0.85991   0.44779   0.49943   0.00000  Uiso   1.00
C244   C     0.59166   0.38467   0.64779   0.00000  Uiso   1.00
C245   C     0.61019   0.46275   0.68192   0.00000  Uiso   1.00
C246   C     0.65957   0.45223   0.72504   0.00000  Uiso   1.00
C247   C     0.66882   0.53225   0.75107   0.00000  Uiso   1.00
C248   C     0.46873   0.38412   0.63118   0.00000  Uiso   1.00
C249   C     0.39918   0.30749   0.63163   0.00000  Uiso   1.00
C250   C     0.28936   0.32130   0.61494   0.00000  Uiso   1.00
C251   C     0.64713   0.41733   0.60941   0.00000  Uiso   1.00
C252   C     0.72755   0.36861   0.59156   0.00000  Uiso   1.00
C253   C     0.76790   0.41038   0.55653   0.00000  Uiso   1.00
H254   H     0.49010   0.61347   0.60445   0.00000  Uiso   1.00
H255   H     0.55058   0.69772   0.67853   0.00000  Uiso   1.00
H256   H     0.29025   0.55299   0.58513   0.00000  Uiso   1.00
H257   H     0.61857   0.61410   0.54506   0.00000  Uiso   1.00
H258   H     0.63470   0.75260   0.76796   0.00000  Uiso   1.00
H259   H     0.08577   0.44742   0.57100   0.00000  Uiso   1.00
H260   H     0.77810   0.57630   0.48651   0.00000  Uiso   1.00
H261   H     0.62184   0.31667   0.66068   0.00000  Uiso   1.00
H262   H     0.68956   0.38464   0.73784   0.00000  Uiso   1.00
H263   H     0.42921   0.23991   0.64444   0.00000  Uiso   1.00
H264   H     0.75753   0.30103   0.60437   0.00000  Uiso   1.00
H265   H     0.74749   0.49849   0.81609   0.00000  Uiso   1.00
H266   H     0.19856   0.19331   0.61914   0.00000  Uiso   1.00
H267   H     0.89089   0.32219   0.53465   0.00000  Uiso   1.00
O268   O     0.73323   0.67560   0.84177   0.00000  Uiso   1.00
O269   O     0.01307   0.27522   0.58337   0.00000  Uiso   1.00
O270   O     0.92138   0.44430   0.47252   0.00000  Uiso   1.00
N271   N     0.65197   0.68347   0.76869   0.00000  Uiso   1.00
N272   N     0.13875   0.39815   0.58456   0.00000  Uiso   1.00
N273   N     0.78600   0.51863   0.50556   0.00000  Uiso   1.00
N274   N     0.71267   0.54674   0.79460   0.00000  Uiso   1.00
N275   N     0.19945   0.26142   0.61046   0.00000  Uiso   1.00
N276   N     0.84669   0.38190   0.53146   0.00000  Uiso   1.00
C277   C     0.97971   0.04547   0.88266   0.00000  Uiso   1.00
C278   C     0.92857   0.05009   0.83462   0.00000  Uiso   1.00
C279   C     0.91940   0.13014   0.80866   0.00000  Uiso   1.00
C280   C     0.87002   0.11975   0.76550   0.00000  Uiso   1.00
C281   C     0.79656   0.14019   0.69342   0.00000  Uiso   1.00
C282   C     0.07003   0.97146   0.88536   0.00000  Uiso   1.00
C283   C     0.17978   0.98539   0.90207   0.00000  Uiso   1.00
C284   C     0.24948   0.90880   0.90163   0.00000  Uiso   1.00
C285   C     0.39561   0.80715   0.90835   0.00000  Uiso   1.00
C286   C     0.89164   0.00467   0.90713   0.00000  Uiso   1.00
C287   C     0.85141   0.04652   0.94215   0.00000  Uiso   1.00
C288   C     0.77093   0.99787   0.96005   0.00000  Uiso   1.00
C289   C     0.64009   0.94779   0.00057   0.00000  Uiso   1.00
C290   C     0.90834   0.88467   0.85221   0.00000  Uiso   1.00
C291   C     0.88981   0.96275   0.81808   0.00000  Uiso   1.00
C292   C     0.84043   0.95223   0.77496   0.00000  Uiso   1.00
C293   C     0.83118   0.03225   0.74893   0.00000  Uiso   1.00
C294   C     0.03127   0.88412   0.86882   0.00000  Uiso   1.00
C295   C     0.10082   0.80749   0.86837   0.00000  Uiso   1.00
C296   C     0.21064   0.82130   0.88506   0.00000  Uiso   1.00
C297   C     0.85287   0.91733   0.89059   0.00000  Uiso   1.00
C298   C     0.77245   0.86861   0.90844   0.00000  Uiso   1.00
C299   C     0.73210   0.91038   0.94347   0.00000  Uiso   1.00
H300   H     0.00990   0.11347   0.89555   0.00000  Uiso   1.00
H301   H     0.94942   0.19772   0.82147   0.00000  Uiso   1.00
H302   H     0.20975   0.05299   0.91487   0.00000  Uiso   1.00
H303   H     0.88143   0.11410   0.95494   0.00000  Uiso   1.00
H304   H     0.86530   0.25260   0.73204   0.00000  Uiso   1.00
H305   H     0.41423   0.94742   0.92900   0.00000  Uiso   1.00
H306   H     0.72190   0.07630   0.01349   0.00000  Uiso   1.00
H307   H     0.87816   0.81667   0.83932   0.00000  Uiso   1.00
H308   H     0.81044   0.88464   0.76216   0.00000  Uiso   1.00
H309   H     0.07079   0.73991   0.85556   0.00000  Uiso   1.00
H310   H     0.74247   0.80103   0.89563   0.00000  Uiso   1.00
H311   H     0.75251   0.99849   0.68391   0.00000  Uiso   1.00
H312   H     0.30144   0.69331   0.88086   0.00000  Uiso   1.00
H313   H     0.60911   0.82219   0.96535   0.00000  Uiso   1.00
O314   O     0.76677   0.17560   0.65823   0.00000  Uiso   1.00
O315   O     0.48693   0.77522   0.91663   0.00000  Uiso   1.00
O316   O     0.57862   0.94430   0.02748   0.00000  Uiso   1.00
N317   N     0.84803   0.18347   0.73131   0.00000  Uiso   1.00
N318   N     0.36125   0.89815   0.91544   0.00000  Uiso   1.00
N319   N     0.71400   0.01863   0.99444   0.00000  Uiso   1.00
N320   N     0.78733   0.04674   0.70540   0.00000  Uiso   1.00
N321   N     0.30055   0.76142   0.88954   0.00000  Uiso   1.00
N322   N     0.65331   0.88190   0.96854   0.00000  Uiso   1.00
C323   C     0.47971   0.54547   0.88266   0.00000  Uiso   1.00
C324   C     0.42857   0.55009   0.83462   0.00000  Uiso   1.00
C325   C     0.41940   0.63014   0.80866   0.00000  Uiso   1.00
C326   C     0.37002   0.61975   0.76550   0.00000  Uiso   1.00
C327   C     0.29656   0.64019   0.69342   0.00000  Uiso   1.00
C328   C     0.57003   0.47146   0.88536   0.00000  Uiso   1.00
C329   C     0.67978   0.48539   0.90207   0.00000  Uiso   1.00
C330   C     0.74948   0.40880   0.90163   0.00000  Uiso   1.00
C331   C     0.89561   0.30715   0.90835   0.00000  Uiso   1.00
C332   C     0.39164   0.50467   0.90713   0.00000  Uiso   1.00
C333   C     0.35141   0.54652   0.94215   0.00000  Uiso   1.00
C334   C     0.27093   0.49787   0.96005   0.00000  Uiso   1.00
C335   C     0.14009   0.44779   0.00057   0.00000  Uiso   1.00
C336   C     0.40834   0.38467   0.85221   0.00000  Uiso   1.00
C337   C     0.38981   0.46275   0.81808   0.00000  Uiso   1.00
C338   C     0.34043   0.45223   0.77496   0.00000  Uiso   1.00
C339   C     0.33118   0.53225   0.74893   0.00000  Uiso   1.00
C340   C     0.53127   0.38412   0.86882   0.00000  Uiso   1.00
C341   C     0.60082   0.30749   0.86837   0.00000  Uiso   1.00
C342   C     0.71064   0.32130   0.88506   0.00000  Uiso   1.00
C343   C     0.35287   0.41733   0.89059   0.00000  Uiso   1.00
C344   C     0.27245   0.36861   0.90844   0.00000  Uiso   1.00
C345   C     0.23210   0.41038   0.94347   0.00000  Uiso   1.00
H346   H     0.50990   0.61347   0.89555   0.00000  Uiso   1.00
H347   H     0.44942   0.69772   0.82147   0.00000  Uiso   1.00
H348   H     0.70975   0.55299   0.91487   0.00000  Uiso   1.00
H349   H     0.38143   0.61410   0.95494   0.00000  Uiso   1.00
H350   H     0.36530   0.75260   0.73204   0.00000  Uiso   1.00
H351   H     0.91423   0.44742   0.92900   0.00000  Uiso   1.00
H352   H     0.22190   0.57630   0.01349   0.00000  Uiso   1.00
H353   H     0.37816   0.31667   0.83932   0.00000  Uiso   1.00
H354   H     0.31044   0.38464   0.76216   0.00000  Uiso   1.00
H355   H     0.57079   0.23991   0.85556   0.00000  Uiso   1.00
H356   H     0.24247   0.30103   0.89563   0.00000  Uiso   1.00
H357   H     0.25251   0.49849   0.68391   0.00000  Uiso   1.00
H358   H     0.80144   0.19331   0.88086   0.00000  Uiso   1.00
H359   H     0.10911   0.32219   0.96535   0.00000  Uiso   1.00
O360   O     0.26677   0.67560   0.65823   0.00000  Uiso   1.00
O361   O     0.98693   0.27522   0.91663   0.00000  Uiso   1.00
O362   O     0.07862   0.44430   0.02748   0.00000  Uiso   1.00
N363   N     0.34803   0.68347   0.73131   0.00000  Uiso   1.00
N364   N     0.86125   0.39815   0.91544   0.00000  Uiso   1.00
N365   N     0.21400   0.51863   0.99444   0.00000  Uiso   1.00
N366   N     0.28733   0.54674   0.70540   0.00000  Uiso   1.00
N367   N     0.80055   0.26142   0.88954   0.00000  Uiso   1.00
N368   N     0.15331   0.38190   0.96854   0.00000  Uiso   1.00
