data_job_04708
_audit_creation_date              2018-12-19
_audit_creation_method            'Materials Studio'
_symmetry_space_group_name_H-M    'P1'
_symmetry_Int_Tables_number       1
_symmetry_cell_setting            triclinic
loop_
_symmetry_equiv_pos_as_xyz
  x,y,z
_cell_length_a                    9.2564
_cell_length_b                    23.2288
_cell_length_c                    10.3057
_cell_angle_alpha                 90.0000
_cell_angle_beta                  90.0000
_cell_angle_gamma                 90.0000
loop_
_atom_site_label
_atom_site_type_symbol
_atom_site_fract_x
_atom_site_fract_y
_atom_site_fract_z
_atom_site_U_iso_or_equiv
_atom_site_adp_type
_atom_site_occupancy
C1     C     0.35581   0.86529   0.20321   0.00000  Uiso   1.00
C2     C     0.51894   0.86174   0.18419   0.00000  Uiso   1.00
C3     C     0.58901   0.83281   0.08460   0.00000  Uiso   1.00
C4     C     0.73893   0.83468   0.08427   0.00000  Uiso   1.00
C5     C     0.98053   0.82462   0.04019   0.00000  Uiso   1.00
C6     C     0.32640   0.84240   0.33935   0.00000  Uiso   1.00
C7     C     0.23456   0.79720   0.37022   0.00000  Uiso   1.00
C8     C     0.22239   0.78279   0.50051   0.00000  Uiso   1.00
C9     C     0.16498   0.74272   0.69733   0.00000  Uiso   1.00
C10    C     0.31915   0.92927   0.20706   0.00000  Uiso   1.00
C11    C     0.22119   0.95711   0.12672   0.00000  Uiso   1.00
C12    C     0.20289   0.01584   0.14565   0.00000  Uiso   1.00
C13    C     0.13423   0.11065   0.13707   0.00000  Uiso   1.00
C14    C     0.49746   0.92008   0.37973   0.00000  Uiso   1.00
C15    C     0.59588   0.89150   0.28007   0.00000  Uiso   1.00
C16    C     0.74573   0.89342   0.27989   0.00000  Uiso   1.00
C17    C     0.81601   0.86449   0.18031   0.00000  Uiso   1.00
C18    C     0.40333   0.87215   0.43523   0.00000  Uiso   1.00
C19    C     0.39128   0.85781   0.56551   0.00000  Uiso   1.00
C20    C     0.29946   0.81260   0.59656   0.00000  Uiso   1.00
C21    C     0.39609   0.95903   0.30294   0.00000  Uiso   1.00
C22    C     0.37792   0.01772   0.32201   0.00000  Uiso   1.00
C23    C     0.27996   0.04565   0.24170   0.00000  Uiso   1.00
H24    H     0.29591   0.84212   0.12858   0.00000  Uiso   1.00
H25    H     0.52943   0.80978   0.01043   0.00000  Uiso   1.00
H26    H     0.17503   0.77418   0.29601   0.00000  Uiso   1.00
H27    H     0.16167   0.93407   0.05254   0.00000  Uiso   1.00
H28    H     0.82227   0.78702   0.92175   0.00000  Uiso   1.00
H29    H     0.07496   0.71198   0.52391   0.00000  Uiso   1.00
H30    H     0.04678   0.04913   0.01051   0.00000  Uiso   1.00
H31    H     0.55735   0.94324   0.45437   0.00000  Uiso   1.00
H32    H     0.80524   0.91645   0.35410   0.00000  Uiso   1.00
H33    H     0.45083   0.88085   0.63968   0.00000  Uiso   1.00
H34    H     0.43747   0.04074   0.39621   0.00000  Uiso   1.00
H35    H     0.04612   0.87360   0.20069   0.00000  Uiso   1.00
H36    H     0.29880   0.79856   0.80285   0.00000  Uiso   1.00
H37    H     0.27063   0.13571   0.28945   0.00000  Uiso   1.00
O38    O     0.09254   0.81085   0.98940   0.00000  Uiso   1.00
O39    O     0.11208   0.71240   0.77941   0.00000  Uiso   1.00
O40    O     0.07512   0.15473   0.10584   0.00000  Uiso   1.00
N41    N     0.84094   0.81109   0.00114   0.00000  Uiso   1.00
N42    N     0.14226   0.74092   0.56412   0.00000  Uiso   1.00
N43    N     0.11589   0.05612   0.08416   0.00000  Uiso   1.00
N44    N     0.96139   0.85767   0.15123   0.00000  Uiso   1.00
N45    N     0.26271   0.78750   0.71422   0.00000  Uiso   1.00
N46    N     0.23634   0.10271   0.23426   0.00000  Uiso   1.00
C47    C     0.64419   0.13471   0.70321   0.00000  Uiso   1.00
C48    C     0.48106   0.13826   0.68419   0.00000  Uiso   1.00
C49    C     0.41099   0.16719   0.58460   0.00000  Uiso   1.00
C50    C     0.26107   0.16532   0.58427   0.00000  Uiso   1.00
C51    C     0.01947   0.17538   0.54019   0.00000  Uiso   1.00
C52    C     0.67360   0.15760   0.83935   0.00000  Uiso   1.00
C53    C     0.76544   0.20280   0.87022   0.00000  Uiso   1.00
C54    C     0.77761   0.21721   0.00051   0.00000  Uiso   1.00
C55    C     0.83502   0.25728   0.19733   0.00000  Uiso   1.00
C56    C     0.68085   0.07073   0.70706   0.00000  Uiso   1.00
C57    C     0.77881   0.04289   0.62672   0.00000  Uiso   1.00
C58    C     0.79711   0.98416   0.64565   0.00000  Uiso   1.00
C59    C     0.86577   0.88935   0.63707   0.00000  Uiso   1.00
C60    C     0.50254   0.07992   0.87973   0.00000  Uiso   1.00
C61    C     0.40412   0.10850   0.78007   0.00000  Uiso   1.00
C62    C     0.25427   0.10658   0.77989   0.00000  Uiso   1.00
C63    C     0.18399   0.13551   0.68031   0.00000  Uiso   1.00
C64    C     0.59667   0.12785   0.93523   0.00000  Uiso   1.00
C65    C     0.60872   0.14219   0.06551   0.00000  Uiso   1.00
C66    C     0.70054   0.18740   0.09656   0.00000  Uiso   1.00
C67    C     0.60391   0.04097   0.80294   0.00000  Uiso   1.00
C68    C     0.62208   0.98228   0.82201   0.00000  Uiso   1.00
C69    C     0.72004   0.95435   0.74170   0.00000  Uiso   1.00
H70    H     0.70409   0.15788   0.62858   0.00000  Uiso   1.00
H71    H     0.47057   0.19022   0.51043   0.00000  Uiso   1.00
H72    H     0.82497   0.22582   0.79601   0.00000  Uiso   1.00
H73    H     0.83833   0.06593   0.55254   0.00000  Uiso   1.00
H74    H     0.17773   0.21298   0.42175   0.00000  Uiso   1.00
H75    H     0.92504   0.28802   0.02391   0.00000  Uiso   1.00
H76    H     0.95322   0.95087   0.51051   0.00000  Uiso   1.00
H77    H     0.44265   0.05676   0.95437   0.00000  Uiso   1.00
H78    H     0.19476   0.08355   0.85410   0.00000  Uiso   1.00
H79    H     0.54917   0.11915   0.13968   0.00000  Uiso   1.00
H80    H     0.56253   0.95926   0.89621   0.00000  Uiso   1.00
H81    H     0.95388   0.12640   0.70069   0.00000  Uiso   1.00
H82    H     0.70120   0.20144   0.30285   0.00000  Uiso   1.00
H83    H     0.72937   0.86429   0.78945   0.00000  Uiso   1.00
O84    O     0.90746   0.18915   0.48940   0.00000  Uiso   1.00
O85    O     0.88792   0.28760   0.27941   0.00000  Uiso   1.00
O86    O     0.92488   0.84527   0.60584   0.00000  Uiso   1.00
N87    N     0.15906   0.18891   0.50114   0.00000  Uiso   1.00
N88    N     0.85774   0.25908   0.06412   0.00000  Uiso   1.00
N89    N     0.88411   0.94388   0.58416   0.00000  Uiso   1.00
N90    N     0.03861   0.14233   0.65123   0.00000  Uiso   1.00
N91    N     0.73729   0.21250   0.21422   0.00000  Uiso   1.00
N92    N     0.76366   0.89729   0.73426   0.00000  Uiso   1.00
C93    C     0.85581   0.63471   0.20321   0.00000  Uiso   1.00
C94    C     0.01894   0.63826   0.18419   0.00000  Uiso   1.00
C95    C     0.08901   0.66719   0.08460   0.00000  Uiso   1.00
C96    C     0.23893   0.66532   0.08427   0.00000  Uiso   1.00
C97    C     0.48053   0.67538   0.04019   0.00000  Uiso   1.00
C98    C     0.82640   0.65760   0.33935   0.00000  Uiso   1.00
C99    C     0.73456   0.70280   0.37022   0.00000  Uiso   1.00
C100   C     0.72239   0.71721   0.50051   0.00000  Uiso   1.00
C101   C     0.66498   0.75728   0.69733   0.00000  Uiso   1.00
C102   C     0.81915   0.57073   0.20706   0.00000  Uiso   1.00
C103   C     0.72119   0.54289   0.12672   0.00000  Uiso   1.00
C104   C     0.70289   0.48416   0.14565   0.00000  Uiso   1.00
C105   C     0.63423   0.38935   0.13707   0.00000  Uiso   1.00
C106   C     0.99746   0.57992   0.37973   0.00000  Uiso   1.00
C107   C     0.09588   0.60850   0.28007   0.00000  Uiso   1.00
C108   C     0.24573   0.60658   0.27989   0.00000  Uiso   1.00
C109   C     0.31601   0.63551   0.18031   0.00000  Uiso   1.00
C110   C     0.90333   0.62785   0.43523   0.00000  Uiso   1.00
C111   C     0.89128   0.64219   0.56551   0.00000  Uiso   1.00
C112   C     0.79946   0.68740   0.59656   0.00000  Uiso   1.00
C113   C     0.89609   0.54097   0.30294   0.00000  Uiso   1.00
C114   C     0.87792   0.48228   0.32201   0.00000  Uiso   1.00
C115   C     0.77996   0.45435   0.24170   0.00000  Uiso   1.00
H116   H     0.79591   0.65788   0.12858   0.00000  Uiso   1.00
H117   H     0.02943   0.69022   0.01043   0.00000  Uiso   1.00
H118   H     0.67503   0.72582   0.29601   0.00000  Uiso   1.00
H119   H     0.66167   0.56593   0.05254   0.00000  Uiso   1.00
H120   H     0.32227   0.71298   0.92175   0.00000  Uiso   1.00
H121   H     0.57496   0.78802   0.52391   0.00000  Uiso   1.00
H122   H     0.54678   0.45087   0.01051   0.00000  Uiso   1.00
H123   H     0.05735   0.55676   0.45437   0.00000  Uiso   1.00
H124   H     0.30524   0.58355   0.35410   0.00000  Uiso   1.00
H125   H     0.95083   0.61915   0.63968   0.00000  Uiso   1.00
H126   H     0.93747   0.45926   0.39621   0.00000  Uiso   1.00
H127   H     0.54612   0.62640   0.20069   0.00000  Uiso   1.00
H128   H     0.79880   0.70144   0.80285   0.00000  Uiso   1.00
H129   H     0.77063   0.36429   0.28945   0.00000  Uiso   1.00
O130   O     0.59254   0.68915   0.98940   0.00000  Uiso   1.00
O131   O     0.61208   0.78760   0.77941   0.00000  Uiso   1.00
O132   O     0.57512   0.34527   0.10584   0.00000  Uiso   1.00
N133   N     0.34094   0.68891   0.00114   0.00000  Uiso   1.00
N134   N     0.64226   0.75908   0.56412   0.00000  Uiso   1.00
N135   N     0.61589   0.44388   0.08416   0.00000  Uiso   1.00
N136   N     0.46139   0.64233   0.15123   0.00000  Uiso   1.00
N137   N     0.76271   0.71250   0.71422   0.00000  Uiso   1.00
N138   N     0.73634   0.39729   0.23426   0.00000  Uiso   1.00
C139   C     0.14419   0.36529   0.70321   0.00000  Uiso   1.00
C140   C     0.98106   0.36174   0.68419   0.00000  Uiso   1.00
C141   C     0.91099   0.33281   0.58460   0.00000  Uiso   1.00
C142   C     0.76107   0.33468   0.58427   0.00000  Uiso   1.00
C143   C     0.51947   0.32462   0.54019   0.00000  Uiso   1.00
C144   C     0.17360   0.34240   0.83935   0.00000  Uiso   1.00
C145   C     0.26544   0.29720   0.87022   0.00000  Uiso   1.00
C146   C     0.27761   0.28279   0.00051   0.00000  Uiso   1.00
C147   C     0.33502   0.24272   0.19733   0.00000  Uiso   1.00
C148   C     0.18085   0.42927   0.70706   0.00000  Uiso   1.00
C149   C     0.27881   0.45711   0.62672   0.00000  Uiso   1.00
C150   C     0.29711   0.51584   0.64565   0.00000  Uiso   1.00
C151   C     0.36577   0.61065   0.63707   0.00000  Uiso   1.00
C152   C     0.00254   0.42008   0.87973   0.00000  Uiso   1.00
C153   C     0.90412   0.39150   0.78007   0.00000  Uiso   1.00
C154   C     0.75427   0.39342   0.77989   0.00000  Uiso   1.00
C155   C     0.68399   0.36449   0.68031   0.00000  Uiso   1.00
C156   C     0.09667   0.37215   0.93523   0.00000  Uiso   1.00
C157   C     0.10872   0.35781   0.06551   0.00000  Uiso   1.00
C158   C     0.20054   0.31260   0.09656   0.00000  Uiso   1.00
C159   C     0.10391   0.45903   0.80294   0.00000  Uiso   1.00
C160   C     0.12208   0.51772   0.82201   0.00000  Uiso   1.00
C161   C     0.22004   0.54565   0.74170   0.00000  Uiso   1.00
H162   H     0.20409   0.34212   0.62858   0.00000  Uiso   1.00
H163   H     0.97057   0.30978   0.51043   0.00000  Uiso   1.00
H164   H     0.32497   0.27418   0.79601   0.00000  Uiso   1.00
H165   H     0.33833   0.43407   0.55254   0.00000  Uiso   1.00
H166   H     0.67773   0.28702   0.42175   0.00000  Uiso   1.00
H167   H     0.42504   0.21198   0.02391   0.00000  Uiso   1.00
H168   H     0.45322   0.54913   0.51051   0.00000  Uiso   1.00
H169   H     0.94265   0.44324   0.95437   0.00000  Uiso   1.00
H170   H     0.69476   0.41645   0.85410   0.00000  Uiso   1.00
H171   H     0.04917   0.38085   0.13968   0.00000  Uiso   1.00
H172   H     0.06253   0.54074   0.89621   0.00000  Uiso   1.00
H173   H     0.45388   0.37360   0.70069   0.00000  Uiso   1.00
H174   H     0.20120   0.29856   0.30285   0.00000  Uiso   1.00
H175   H     0.22937   0.63571   0.78945   0.00000  Uiso   1.00
O176   O     0.40746   0.31085   0.48940   0.00000  Uiso   1.00
O177   O     0.38792   0.21240   0.27941   0.00000  Uiso   1.00
O178   O     0.42488   0.65473   0.60584   0.00000  Uiso   1.00
N179   N     0.65906   0.31109   0.50114   0.00000  Uiso   1.00
N180   N     0.35774   0.24092   0.06412   0.00000  Uiso   1.00
N181   N     0.38411   0.55612   0.58416   0.00000  Uiso   1.00
N182   N     0.53861   0.35767   0.65123   0.00000  Uiso   1.00
N183   N     0.23729   0.28750   0.21422   0.00000  Uiso   1.00
N184   N     0.26366   0.60271   0.73426   0.00000  Uiso   1.00
