data_job_03089
_audit_creation_date              2018-12-19
_audit_creation_method            'Materials Studio'
_symmetry_space_group_name_H-M    'P1'
_symmetry_Int_Tables_number       1
_symmetry_cell_setting            triclinic
loop_
_symmetry_equiv_pos_as_xyz
  x,y,z
_cell_length_a                    7.1570
_cell_length_b                    30.4519
_cell_length_c                    41.8321
_cell_angle_alpha                 90.0000
_cell_angle_beta                  90.0000
_cell_angle_gamma                 90.0000
loop_
_atom_site_label
_atom_site_type_symbol
_atom_site_fract_x
_atom_site_fract_y
_atom_site_fract_z
_atom_site_U_iso_or_equiv
_atom_site_adp_type
_atom_site_occupancy
C1     C     0.53022   0.02384   0.91028   0.00000  Uiso   1.00
C2     C     0.64771   0.99305   0.93083   0.00000  Uiso   1.00
C3     C     0.58006   0.95839   0.94899   0.00000  Uiso   1.00
C4     C     0.71017   0.93411   0.96613   0.00000  Uiso   1.00
C5     C     0.86356   0.88478   0.99820   0.00000  Uiso   1.00
C6     C     0.57255   0.07015   0.92211   0.00000  Uiso   1.00
C7     C     0.44171   0.10032   0.93294   0.00000  Uiso   1.00
C8     C     0.50856   0.14095   0.94273   0.00000  Uiso   1.00
C9     C     0.54525   0.21134   0.96125   0.00000  Uiso   1.00
C10    C     0.61117   0.02102   0.87662   0.00000  Uiso   1.00
C11    C     0.51279   0.00990   0.84920   0.00000  Uiso   1.00
C12    C     0.61214   0.00918   0.82070   0.00000  Uiso   1.00
C13    C     0.70880   0.00328   0.76859   0.00000  Uiso   1.00
C14    C     0.88157   0.04236   0.90841   0.00000  Uiso   1.00
C15    C     0.83855   0.00311   0.92981   0.00000  Uiso   1.00
C16    C     0.96879   0.97888   0.94693   0.00000  Uiso   1.00
C17    C     0.90135   0.94419   0.96511   0.00000  Uiso   1.00
C18    C     0.76339   0.08021   0.92109   0.00000  Uiso   1.00
C19    C     0.83044   0.12081   0.93087   0.00000  Uiso   1.00
C20    C     0.69974   0.15103   0.94172   0.00000  Uiso   1.00
C21    C     0.80201   0.03108   0.87561   0.00000  Uiso   1.00
C22    C     0.90153   0.03038   0.84714   0.00000  Uiso   1.00
C23    C     0.80333   0.01926   0.81968   0.00000  Uiso   1.00
H24    H     0.38164   0.01601   0.91107   0.00000  Uiso   1.00
H25    H     0.43236   0.95061   0.94977   0.00000  Uiso   1.00
H26    H     0.29404   0.09253   0.93372   0.00000  Uiso   1.00
H27    H     0.36511   0.00211   0.85000   0.00000  Uiso   1.00
H28    H     0.57275   0.88255   0.99225   0.00000  Uiso   1.00
H29    H     0.28107   0.18179   0.95838   0.00000  Uiso   1.00
H30    H     0.43094   0.99114   0.78184   0.00000  Uiso   1.00
H31    H     0.03015   0.05020   0.90762   0.00000  Uiso   1.00
H32    H     0.11647   0.98667   0.94614   0.00000  Uiso   1.00
H33    H     0.97814   0.12859   0.93008   0.00000  Uiso   1.00
H34    H     0.04921   0.03817   0.84636   0.00000  Uiso   1.00
H35    H     0.12799   0.91182   0.98930   0.00000  Uiso   1.00
H36    H     0.83631   0.21106   0.95543   0.00000  Uiso   1.00
H37    H     0.98619   0.02040   0.77889   0.00000  Uiso   1.00
O38    O     0.89544   0.85479   0.01618   0.00000  Uiso   1.00
O39    O     0.51277   0.24738   0.97174   0.00000  Uiso   1.00
O40    O     0.70940   0.99724   0.74013   0.00000  Uiso   1.00
N41    N     0.69158   0.89815   0.98626   0.00000  Uiso   1.00
N42    N     0.41889   0.17792   0.95460   0.00000  Uiso   1.00
N43    N     0.55899   0.99969   0.78955   0.00000  Uiso   1.00
N44    N     0.99036   0.91390   0.98467   0.00000  Uiso   1.00
N45    N     0.71766   0.19367   0.95302   0.00000  Uiso   1.00
N46    N     0.85777   0.01543   0.78797   0.00000  Uiso   1.00
C47    C     0.96978   0.47616   0.91028   0.00000  Uiso   1.00
C48    C     0.85229   0.50695   0.93083   0.00000  Uiso   1.00
C49    C     0.91994   0.54161   0.94899   0.00000  Uiso   1.00
C50    C     0.78983   0.56589   0.96613   0.00000  Uiso   1.00
C51    C     0.63644   0.61522   0.99820   0.00000  Uiso   1.00
C52    C     0.92745   0.42985   0.92211   0.00000  Uiso   1.00
C53    C     0.05829   0.39968   0.93294   0.00000  Uiso   1.00
C54    C     0.99144   0.35905   0.94273   0.00000  Uiso   1.00
C55    C     0.95475   0.28866   0.96125   0.00000  Uiso   1.00
C56    C     0.88883   0.47898   0.87662   0.00000  Uiso   1.00
C57    C     0.98721   0.49010   0.84920   0.00000  Uiso   1.00
C58    C     0.88786   0.49082   0.82070   0.00000  Uiso   1.00
C59    C     0.79120   0.49672   0.76859   0.00000  Uiso   1.00
C60    C     0.61843   0.45764   0.90841   0.00000  Uiso   1.00
C61    C     0.66145   0.49689   0.92981   0.00000  Uiso   1.00
C62    C     0.53121   0.52112   0.94693   0.00000  Uiso   1.00
C63    C     0.59865   0.55581   0.96511   0.00000  Uiso   1.00
C64    C     0.73661   0.41979   0.92109   0.00000  Uiso   1.00
C65    C     0.66956   0.37919   0.93087   0.00000  Uiso   1.00
C66    C     0.80026   0.34897   0.94172   0.00000  Uiso   1.00
C67    C     0.69799   0.46892   0.87561   0.00000  Uiso   1.00
C68    C     0.59847   0.46962   0.84714   0.00000  Uiso   1.00
C69    C     0.69667   0.48074   0.81968   0.00000  Uiso   1.00
H70    H     0.11836   0.48399   0.91107   0.00000  Uiso   1.00
H71    H     0.06764   0.54939   0.94977   0.00000  Uiso   1.00
H72    H     0.20596   0.40747   0.93372   0.00000  Uiso   1.00
H73    H     0.13489   0.49789   0.85000   0.00000  Uiso   1.00
H74    H     0.92725   0.61745   0.99225   0.00000  Uiso   1.00
H75    H     0.21893   0.31821   0.95838   0.00000  Uiso   1.00
H76    H     0.06906   0.50886   0.78184   0.00000  Uiso   1.00
H77    H     0.46985   0.44980   0.90762   0.00000  Uiso   1.00
H78    H     0.38353   0.51333   0.94614   0.00000  Uiso   1.00
H79    H     0.52186   0.37141   0.93008   0.00000  Uiso   1.00
H80    H     0.45079   0.46183   0.84636   0.00000  Uiso   1.00
H81    H     0.37201   0.58818   0.98930   0.00000  Uiso   1.00
H82    H     0.66369   0.28894   0.95543   0.00000  Uiso   1.00
H83    H     0.51381   0.47960   0.77889   0.00000  Uiso   1.00
O84    O     0.60456   0.64521   0.01618   0.00000  Uiso   1.00
O85    O     0.98723   0.25262   0.97174   0.00000  Uiso   1.00
O86    O     0.79060   0.50276   0.74013   0.00000  Uiso   1.00
N87    N     0.80842   0.60185   0.98626   0.00000  Uiso   1.00
N88    N     0.08111   0.32208   0.95460   0.00000  Uiso   1.00
N89    N     0.94101   0.50031   0.78955   0.00000  Uiso   1.00
N90    N     0.50964   0.58610   0.98467   0.00000  Uiso   1.00
N91    N     0.78234   0.30633   0.95302   0.00000  Uiso   1.00
N92    N     0.64223   0.48457   0.78797   0.00000  Uiso   1.00
C93    C     0.46978   0.52384   0.58972   0.00000  Uiso   1.00
C94    C     0.35229   0.49305   0.56917   0.00000  Uiso   1.00
C95    C     0.41994   0.45839   0.55101   0.00000  Uiso   1.00
C96    C     0.28983   0.43411   0.53387   0.00000  Uiso   1.00
C97    C     0.13644   0.38478   0.50180   0.00000  Uiso   1.00
C98    C     0.42745   0.57015   0.57789   0.00000  Uiso   1.00
C99    C     0.55829   0.60032   0.56706   0.00000  Uiso   1.00
C100   C     0.49144   0.64095   0.55727   0.00000  Uiso   1.00
C101   C     0.45475   0.71134   0.53875   0.00000  Uiso   1.00
C102   C     0.38883   0.52102   0.62338   0.00000  Uiso   1.00
C103   C     0.48721   0.50990   0.65080   0.00000  Uiso   1.00
C104   C     0.38786   0.50918   0.67930   0.00000  Uiso   1.00
C105   C     0.29120   0.50328   0.73141   0.00000  Uiso   1.00
C106   C     0.11843   0.54236   0.59159   0.00000  Uiso   1.00
C107   C     0.16145   0.50311   0.57019   0.00000  Uiso   1.00
C108   C     0.03121   0.47888   0.55307   0.00000  Uiso   1.00
C109   C     0.09865   0.44419   0.53489   0.00000  Uiso   1.00
C110   C     0.23661   0.58021   0.57891   0.00000  Uiso   1.00
C111   C     0.16956   0.62081   0.56913   0.00000  Uiso   1.00
C112   C     0.30026   0.65103   0.55828   0.00000  Uiso   1.00
C113   C     0.19799   0.53108   0.62439   0.00000  Uiso   1.00
C114   C     0.09847   0.53038   0.65286   0.00000  Uiso   1.00
C115   C     0.19667   0.51926   0.68032   0.00000  Uiso   1.00
H116   H     0.61836   0.51601   0.58893   0.00000  Uiso   1.00
H117   H     0.56764   0.45061   0.55023   0.00000  Uiso   1.00
H118   H     0.70596   0.59253   0.56628   0.00000  Uiso   1.00
H119   H     0.63489   0.50211   0.65000   0.00000  Uiso   1.00
H120   H     0.42725   0.38255   0.50775   0.00000  Uiso   1.00
H121   H     0.71893   0.68179   0.54162   0.00000  Uiso   1.00
H122   H     0.56906   0.49114   0.71816   0.00000  Uiso   1.00
H123   H     0.96985   0.55020   0.59238   0.00000  Uiso   1.00
H124   H     0.88353   0.48667   0.55386   0.00000  Uiso   1.00
H125   H     0.02186   0.62859   0.56992   0.00000  Uiso   1.00
H126   H     0.95079   0.53817   0.65364   0.00000  Uiso   1.00
H127   H     0.87201   0.41182   0.51070   0.00000  Uiso   1.00
H128   H     0.16369   0.71106   0.54457   0.00000  Uiso   1.00
H129   H     0.01381   0.52040   0.72111   0.00000  Uiso   1.00
O130   O     0.10456   0.35479   0.48382   0.00000  Uiso   1.00
O131   O     0.48723   0.74738   0.52826   0.00000  Uiso   1.00
O132   O     0.29060   0.49724   0.75987   0.00000  Uiso   1.00
N133   N     0.30842   0.39815   0.51374   0.00000  Uiso   1.00
N134   N     0.58111   0.67792   0.54540   0.00000  Uiso   1.00
N135   N     0.44101   0.49969   0.71045   0.00000  Uiso   1.00
N136   N     0.00964   0.41390   0.51533   0.00000  Uiso   1.00
N137   N     0.28234   0.69367   0.54698   0.00000  Uiso   1.00
N138   N     0.14223   0.51543   0.71203   0.00000  Uiso   1.00
C139   C     0.03022   0.97616   0.58972   0.00000  Uiso   1.00
C140   C     0.14771   0.00695   0.56917   0.00000  Uiso   1.00
C141   C     0.08006   0.04161   0.55101   0.00000  Uiso   1.00
C142   C     0.21017   0.06589   0.53387   0.00000  Uiso   1.00
C143   C     0.36356   0.11522   0.50180   0.00000  Uiso   1.00
C144   C     0.07255   0.92985   0.57789   0.00000  Uiso   1.00
C145   C     0.94171   0.89968   0.56706   0.00000  Uiso   1.00
C146   C     0.00856   0.85905   0.55727   0.00000  Uiso   1.00
C147   C     0.04525   0.78866   0.53875   0.00000  Uiso   1.00
C148   C     0.11117   0.97898   0.62338   0.00000  Uiso   1.00
C149   C     0.01279   0.99010   0.65080   0.00000  Uiso   1.00
C150   C     0.11214   0.99082   0.67930   0.00000  Uiso   1.00
C151   C     0.20880   0.99672   0.73141   0.00000  Uiso   1.00
C152   C     0.38157   0.95764   0.59159   0.00000  Uiso   1.00
C153   C     0.33855   0.99689   0.57019   0.00000  Uiso   1.00
C154   C     0.46879   0.02112   0.55307   0.00000  Uiso   1.00
C155   C     0.40135   0.05581   0.53489   0.00000  Uiso   1.00
C156   C     0.26339   0.91979   0.57891   0.00000  Uiso   1.00
C157   C     0.33044   0.87919   0.56913   0.00000  Uiso   1.00
C158   C     0.19974   0.84897   0.55828   0.00000  Uiso   1.00
C159   C     0.30201   0.96892   0.62439   0.00000  Uiso   1.00
C160   C     0.40153   0.96962   0.65286   0.00000  Uiso   1.00
C161   C     0.30333   0.98074   0.68032   0.00000  Uiso   1.00
H162   H     0.88164   0.98399   0.58893   0.00000  Uiso   1.00
H163   H     0.93236   0.04939   0.55023   0.00000  Uiso   1.00
H164   H     0.79404   0.90747   0.56628   0.00000  Uiso   1.00
H165   H     0.86511   0.99789   0.65000   0.00000  Uiso   1.00
H166   H     0.07275   0.11745   0.50775   0.00000  Uiso   1.00
H167   H     0.78107   0.81821   0.54162   0.00000  Uiso   1.00
H168   H     0.93094   0.00886   0.71816   0.00000  Uiso   1.00
H169   H     0.53015   0.94980   0.59238   0.00000  Uiso   1.00
H170   H     0.61647   0.01333   0.55386   0.00000  Uiso   1.00
H171   H     0.47814   0.87141   0.56992   0.00000  Uiso   1.00
H172   H     0.54921   0.96183   0.65364   0.00000  Uiso   1.00
H173   H     0.62799   0.08818   0.51070   0.00000  Uiso   1.00
H174   H     0.33631   0.78894   0.54457   0.00000  Uiso   1.00
H175   H     0.48619   0.97960   0.72111   0.00000  Uiso   1.00
O176   O     0.39544   0.14521   0.48382   0.00000  Uiso   1.00
O177   O     0.01277   0.75262   0.52826   0.00000  Uiso   1.00
O178   O     0.20940   0.00276   0.75987   0.00000  Uiso   1.00
N179   N     0.19158   0.10185   0.51374   0.00000  Uiso   1.00
N180   N     0.91889   0.82208   0.54540   0.00000  Uiso   1.00
N181   N     0.05899   0.00031   0.71045   0.00000  Uiso   1.00
N182   N     0.49036   0.08610   0.51533   0.00000  Uiso   1.00
N183   N     0.21766   0.80633   0.54698   0.00000  Uiso   1.00
N184   N     0.35777   0.98457   0.71203   0.00000  Uiso   1.00
C185   C     0.46978   0.97616   0.08972   0.00000  Uiso   1.00
C186   C     0.35229   0.00695   0.06917   0.00000  Uiso   1.00
C187   C     0.41994   0.04161   0.05101   0.00000  Uiso   1.00
C188   C     0.28983   0.06589   0.03387   0.00000  Uiso   1.00
C189   C     0.13644   0.11522   0.00180   0.00000  Uiso   1.00
C190   C     0.42745   0.92985   0.07789   0.00000  Uiso   1.00
C191   C     0.55829   0.89968   0.06706   0.00000  Uiso   1.00
C192   C     0.49144   0.85905   0.05727   0.00000  Uiso   1.00
C193   C     0.45475   0.78866   0.03875   0.00000  Uiso   1.00
C194   C     0.38883   0.97898   0.12338   0.00000  Uiso   1.00
C195   C     0.48721   0.99010   0.15080   0.00000  Uiso   1.00
C196   C     0.38786   0.99082   0.17930   0.00000  Uiso   1.00
C197   C     0.29120   0.99672   0.23141   0.00000  Uiso   1.00
C198   C     0.11843   0.95764   0.09159   0.00000  Uiso   1.00
C199   C     0.16145   0.99689   0.07019   0.00000  Uiso   1.00
C200   C     0.03121   0.02112   0.05307   0.00000  Uiso   1.00
C201   C     0.09865   0.05581   0.03489   0.00000  Uiso   1.00
C202   C     0.23661   0.91979   0.07891   0.00000  Uiso   1.00
C203   C     0.16956   0.87919   0.06913   0.00000  Uiso   1.00
C204   C     0.30026   0.84897   0.05828   0.00000  Uiso   1.00
C205   C     0.19799   0.96892   0.12439   0.00000  Uiso   1.00
C206   C     0.09847   0.96962   0.15286   0.00000  Uiso   1.00
C207   C     0.19667   0.98074   0.18032   0.00000  Uiso   1.00
H208   H     0.61836   0.98399   0.08893   0.00000  Uiso   1.00
H209   H     0.56764   0.04939   0.05023   0.00000  Uiso   1.00
H210   H     0.70596   0.90747   0.06628   0.00000  Uiso   1.00
H211   H     0.63489   0.99789   0.15000   0.00000  Uiso   1.00
H212   H     0.42725   0.11745   0.00775   0.00000  Uiso   1.00
H213   H     0.71893   0.81821   0.04162   0.00000  Uiso   1.00
H214   H     0.56906   0.00886   0.21816   0.00000  Uiso   1.00
H215   H     0.96985   0.94980   0.09238   0.00000  Uiso   1.00
H216   H     0.88353   0.01333   0.05386   0.00000  Uiso   1.00
H217   H     0.02186   0.87141   0.06992   0.00000  Uiso   1.00
H218   H     0.95079   0.96183   0.15364   0.00000  Uiso   1.00
H219   H     0.87201   0.08818   0.01070   0.00000  Uiso   1.00
H220   H     0.16369   0.78894   0.04457   0.00000  Uiso   1.00
H221   H     0.01381   0.97960   0.22111   0.00000  Uiso   1.00
O222   O     0.10456   0.14521   0.98382   0.00000  Uiso   1.00
O223   O     0.48723   0.75262   0.02826   0.00000  Uiso   1.00
O224   O     0.29060   0.00276   0.25987   0.00000  Uiso   1.00
N225   N     0.30842   0.10185   0.01374   0.00000  Uiso   1.00
N226   N     0.58111   0.82208   0.04540   0.00000  Uiso   1.00
N227   N     0.44101   0.00031   0.21045   0.00000  Uiso   1.00
N228   N     0.00964   0.08610   0.01533   0.00000  Uiso   1.00
N229   N     0.28234   0.80633   0.04698   0.00000  Uiso   1.00
N230   N     0.14223   0.98457   0.21203   0.00000  Uiso   1.00
C231   C     0.03022   0.52384   0.08972   0.00000  Uiso   1.00
C232   C     0.14771   0.49305   0.06917   0.00000  Uiso   1.00
C233   C     0.08006   0.45839   0.05101   0.00000  Uiso   1.00
C234   C     0.21017   0.43411   0.03387   0.00000  Uiso   1.00
C235   C     0.36356   0.38478   0.00180   0.00000  Uiso   1.00
C236   C     0.07255   0.57015   0.07789   0.00000  Uiso   1.00
C237   C     0.94171   0.60032   0.06706   0.00000  Uiso   1.00
C238   C     0.00856   0.64095   0.05727   0.00000  Uiso   1.00
C239   C     0.04525   0.71134   0.03875   0.00000  Uiso   1.00
C240   C     0.11117   0.52102   0.12338   0.00000  Uiso   1.00
C241   C     0.01279   0.50990   0.15080   0.00000  Uiso   1.00
C242   C     0.11214   0.50918   0.17930   0.00000  Uiso   1.00
C243   C     0.20880   0.50328   0.23141   0.00000  Uiso   1.00
C244   C     0.38157   0.54236   0.09159   0.00000  Uiso   1.00
C245   C     0.33855   0.50311   0.07019   0.00000  Uiso   1.00
C246   C     0.46879   0.47888   0.05307   0.00000  Uiso   1.00
C247   C     0.40135   0.44419   0.03489   0.00000  Uiso   1.00
C248   C     0.26339   0.58021   0.07891   0.00000  Uiso   1.00
C249   C     0.33044   0.62081   0.06913   0.00000  Uiso   1.00
C250   C     0.19974   0.65103   0.05828   0.00000  Uiso   1.00
C251   C     0.30201   0.53108   0.12439   0.00000  Uiso   1.00
C252   C     0.40153   0.53038   0.15286   0.00000  Uiso   1.00
C253   C     0.30333   0.51926   0.18032   0.00000  Uiso   1.00
H254   H     0.88164   0.51601   0.08893   0.00000  Uiso   1.00
H255   H     0.93236   0.45061   0.05023   0.00000  Uiso   1.00
H256   H     0.79404   0.59253   0.06628   0.00000  Uiso   1.00
H257   H     0.86511   0.50211   0.15000   0.00000  Uiso   1.00
H258   H     0.07275   0.38255   0.00775   0.00000  Uiso   1.00
H259   H     0.78107   0.68179   0.04162   0.00000  Uiso   1.00
H260   H     0.93094   0.49114   0.21816   0.00000  Uiso   1.00
H261   H     0.53015   0.55020   0.09238   0.00000  Uiso   1.00
H262   H     0.61647   0.48667   0.05386   0.00000  Uiso   1.00
H263   H     0.47814   0.62859   0.06992   0.00000  Uiso   1.00
H264   H     0.54921   0.53817   0.15364   0.00000  Uiso   1.00
H265   H     0.62799   0.41182   0.01070   0.00000  Uiso   1.00
H266   H     0.33631   0.71106   0.04457   0.00000  Uiso   1.00
H267   H     0.48619   0.52040   0.22111   0.00000  Uiso   1.00
O268   O     0.39544   0.35479   0.98382   0.00000  Uiso   1.00
O269   O     0.01277   0.74738   0.02826   0.00000  Uiso   1.00
O270   O     0.20940   0.49724   0.25987   0.00000  Uiso   1.00
N271   N     0.19158   0.39815   0.01374   0.00000  Uiso   1.00
N272   N     0.91889   0.67792   0.04540   0.00000  Uiso   1.00
N273   N     0.05899   0.49969   0.21045   0.00000  Uiso   1.00
N274   N     0.49036   0.41390   0.01533   0.00000  Uiso   1.00
N275   N     0.21766   0.69367   0.04698   0.00000  Uiso   1.00
N276   N     0.35777   0.51543   0.21203   0.00000  Uiso   1.00
C277   C     0.53022   0.47616   0.41028   0.00000  Uiso   1.00
C278   C     0.64771   0.50695   0.43083   0.00000  Uiso   1.00
C279   C     0.58006   0.54161   0.44899   0.00000  Uiso   1.00
C280   C     0.71017   0.56589   0.46613   0.00000  Uiso   1.00
C281   C     0.86356   0.61522   0.49820   0.00000  Uiso   1.00
C282   C     0.57255   0.42985   0.42211   0.00000  Uiso   1.00
C283   C     0.44171   0.39968   0.43294   0.00000  Uiso   1.00
C284   C     0.50856   0.35905   0.44273   0.00000  Uiso   1.00
C285   C     0.54525   0.28866   0.46125   0.00000  Uiso   1.00
C286   C     0.61117   0.47898   0.37662   0.00000  Uiso   1.00
C287   C     0.51279   0.49010   0.34920   0.00000  Uiso   1.00
C288   C     0.61214   0.49082   0.32070   0.00000  Uiso   1.00
C289   C     0.70880   0.49672   0.26859   0.00000  Uiso   1.00
C290   C     0.88157   0.45764   0.40841   0.00000  Uiso   1.00
C291   C     0.83855   0.49689   0.42981   0.00000  Uiso   1.00
C292   C     0.96879   0.52112   0.44693   0.00000  Uiso   1.00
C293   C     0.90135   0.55581   0.46511   0.00000  Uiso   1.00
C294   C     0.76339   0.41979   0.42109   0.00000  Uiso   1.00
C295   C     0.83044   0.37919   0.43087   0.00000  Uiso   1.00
C296   C     0.69974   0.34897   0.44172   0.00000  Uiso   1.00
C297   C     0.80201   0.46892   0.37561   0.00000  Uiso   1.00
C298   C     0.90153   0.46962   0.34714   0.00000  Uiso   1.00
C299   C     0.80333   0.48074   0.31968   0.00000  Uiso   1.00
H300   H     0.38164   0.48399   0.41107   0.00000  Uiso   1.00
H301   H     0.43236   0.54939   0.44977   0.00000  Uiso   1.00
H302   H     0.29404   0.40747   0.43372   0.00000  Uiso   1.00
H303   H     0.36511   0.49789   0.35000   0.00000  Uiso   1.00
H304   H     0.57275   0.61745   0.49225   0.00000  Uiso   1.00
H305   H     0.28107   0.31821   0.45838   0.00000  Uiso   1.00
H306   H     0.43094   0.50886   0.28184   0.00000  Uiso   1.00
H307   H     0.03015   0.44980   0.40762   0.00000  Uiso   1.00
H308   H     0.11647   0.51333   0.44614   0.00000  Uiso   1.00
H309   H     0.97814   0.37141   0.43008   0.00000  Uiso   1.00
H310   H     0.04921   0.46183   0.34636   0.00000  Uiso   1.00
H311   H     0.12799   0.58818   0.48930   0.00000  Uiso   1.00
H312   H     0.83631   0.28894   0.45543   0.00000  Uiso   1.00
H313   H     0.98619   0.47960   0.27889   0.00000  Uiso   1.00
O314   O     0.89544   0.64521   0.51618   0.00000  Uiso   1.00
O315   O     0.51277   0.25262   0.47174   0.00000  Uiso   1.00
O316   O     0.70940   0.50276   0.24013   0.00000  Uiso   1.00
N317   N     0.69158   0.60185   0.48626   0.00000  Uiso   1.00
N318   N     0.41889   0.32208   0.45460   0.00000  Uiso   1.00
N319   N     0.55899   0.50031   0.28955   0.00000  Uiso   1.00
N320   N     0.99036   0.58610   0.48467   0.00000  Uiso   1.00
N321   N     0.71766   0.30633   0.45302   0.00000  Uiso   1.00
N322   N     0.85777   0.48457   0.28797   0.00000  Uiso   1.00
C323   C     0.96978   0.02384   0.41028   0.00000  Uiso   1.00
C324   C     0.85229   0.99305   0.43083   0.00000  Uiso   1.00
C325   C     0.91994   0.95839   0.44899   0.00000  Uiso   1.00
C326   C     0.78983   0.93411   0.46613   0.00000  Uiso   1.00
C327   C     0.63644   0.88478   0.49820   0.00000  Uiso   1.00
C328   C     0.92745   0.07015   0.42211   0.00000  Uiso   1.00
C329   C     0.05829   0.10032   0.43294   0.00000  Uiso   1.00
C330   C     0.99144   0.14095   0.44273   0.00000  Uiso   1.00
C331   C     0.95475   0.21134   0.46125   0.00000  Uiso   1.00
C332   C     0.88883   0.02102   0.37662   0.00000  Uiso   1.00
C333   C     0.98721   0.00990   0.34920   0.00000  Uiso   1.00
C334   C     0.88786   0.00918   0.32070   0.00000  Uiso   1.00
C335   C     0.79120   0.00328   0.26859   0.00000  Uiso   1.00
C336   C     0.61843   0.04236   0.40841   0.00000  Uiso   1.00
C337   C     0.66145   0.00311   0.42981   0.00000  Uiso   1.00
C338   C     0.53121   0.97888   0.44693   0.00000  Uiso   1.00
C339   C     0.59865   0.94419   0.46511   0.00000  Uiso   1.00
C340   C     0.73661   0.08021   0.42109   0.00000  Uiso   1.00
C341   C     0.66956   0.12081   0.43087   0.00000  Uiso   1.00
C342   C     0.80026   0.15103   0.44172   0.00000  Uiso   1.00
C343   C     0.69799   0.03108   0.37561   0.00000  Uiso   1.00
C344   C     0.59847   0.03038   0.34714   0.00000  Uiso   1.00
C345   C     0.69667   0.01926   0.31968   0.00000  Uiso   1.00
H346   H     0.11836   0.01601   0.41107   0.00000  Uiso   1.00
H347   H     0.06764   0.95061   0.44977   0.00000  Uiso   1.00
H348   H     0.20596   0.09253   0.43372   0.00000  Uiso   1.00
H349   H     0.13489   0.00211   0.35000   0.00000  Uiso   1.00
H350   H     0.92725   0.88255   0.49225   0.00000  Uiso   1.00
H351   H     0.21893   0.18179   0.45838   0.00000  Uiso   1.00
H352   H     0.06906   0.99114   0.28184   0.00000  Uiso   1.00
H353   H     0.46985   0.05020   0.40762   0.00000  Uiso   1.00
H354   H     0.38353   0.98667   0.44614   0.00000  Uiso   1.00
H355   H     0.52186   0.12859   0.43008   0.00000  Uiso   1.00
H356   H     0.45079   0.03817   0.34636   0.00000  Uiso   1.00
H357   H     0.37201   0.91182   0.48930   0.00000  Uiso   1.00
H358   H     0.66369   0.21106   0.45543   0.00000  Uiso   1.00
H359   H     0.51381   0.02040   0.27889   0.00000  Uiso   1.00
O360   O     0.60456   0.85479   0.51618   0.00000  Uiso   1.00
O361   O     0.98723   0.24738   0.47174   0.00000  Uiso   1.00
O362   O     0.79060   0.99724   0.24013   0.00000  Uiso   1.00
N363   N     0.80842   0.89815   0.48626   0.00000  Uiso   1.00
N364   N     0.08111   0.17792   0.45460   0.00000  Uiso   1.00
N365   N     0.94101   0.99969   0.28955   0.00000  Uiso   1.00
N366   N     0.50964   0.91390   0.48467   0.00000  Uiso   1.00
N367   N     0.78234   0.19367   0.45302   0.00000  Uiso   1.00
N368   N     0.64223   0.01543   0.28797   0.00000  Uiso   1.00
