data_job_06534
_audit_creation_date              2018-12-19
_audit_creation_method            'Materials Studio'
_symmetry_space_group_name_H-M    'P1'
_symmetry_Int_Tables_number       1
_symmetry_cell_setting            triclinic
loop_
_symmetry_equiv_pos_as_xyz
  x,y,z
_cell_length_a                    22.6103
_cell_length_b                    22.9529
_cell_length_c                    23.3529
_cell_angle_alpha                 119.3765
_cell_angle_beta                  89.7797
_cell_angle_gamma                 61.3029
loop_
_atom_site_label
_atom_site_type_symbol
_atom_site_fract_x
_atom_site_fract_y
_atom_site_fract_z
_atom_site_U_iso_or_equiv
_atom_site_adp_type
_atom_site_occupancy
C1     C     0.86171   0.59138   0.11426   0.00000  Uiso   1.00
C2     C     0.87273   0.54575   0.03668   0.00000  Uiso   1.00
C3     C     0.90226   0.55258   0.98993   0.00000  Uiso   1.00
C4     C     0.90773   0.50571   0.92116   0.00000  Uiso   1.00
C5     C     0.92834   0.44277   0.80393   0.00000  Uiso   1.00
C6     C     0.78280   0.63524   0.14953   0.00000  Uiso   1.00
C7     C     0.73673   0.71731   0.19766   0.00000  Uiso   1.00
C8     C     0.66649   0.74576   0.22389   0.00000  Uiso   1.00
C9     C     0.54750   0.82175   0.28190   0.00000  Uiso   1.00
C10    C     0.90024   0.52778   0.12985   0.00000  Uiso   1.00
C11    C     0.95292   0.51950   0.16145   0.00000  Uiso   1.00
C12    C     0.98155   0.45749   0.17113   0.00000  Uiso   1.00
C13    C     0.04492   0.36663   0.19859   0.00000  Uiso   1.00
C14    C     0.81888   0.49598   0.07528   0.00000  Uiso   1.00
C15    C     0.84946   0.49394   0.01551   0.00000  Uiso   1.00
C16    C     0.85488   0.44704   0.94680   0.00000  Uiso   1.00
C17    C     0.88443   0.45379   0.89994   0.00000  Uiso   1.00
C18    C     0.75953   0.58343   0.12836   0.00000  Uiso   1.00
C19    C     0.68935   0.61177   0.15453   0.00000  Uiso   1.00
C20    C     0.64319   0.69386   0.20268   0.00000  Uiso   1.00
C21    C     0.87699   0.47596   0.10868   0.00000  Uiso   1.00
C22    C     0.90554   0.41396   0.11832   0.00000  Uiso   1.00
C23    C     0.95825   0.40559   0.14992   0.00000  Uiso   1.00
H24    H     0.87981   0.63172   0.13075   0.00000  Uiso   1.00
H25    H     0.92025   0.59269   0.00633   0.00000  Uiso   1.00
H26    H     0.75475   0.75739   0.21404   0.00000  Uiso   1.00
H27    H     0.97090   0.55961   0.17783   0.00000  Uiso   1.00
H28    H     0.95481   0.52659   0.85906   0.00000  Uiso   1.00
H29    H     0.60584   0.87386   0.29704   0.00000  Uiso   1.00
H30    H     0.06164   0.45681   0.22070   0.00000  Uiso   1.00
H31    H     0.80077   0.45564   0.05880   0.00000  Uiso   1.00
H32    H     0.83688   0.40695   0.93043   0.00000  Uiso   1.00
H33    H     0.67137   0.57165   0.13814   0.00000  Uiso   1.00
H34    H     0.88752   0.37387   0.10193   0.00000  Uiso   1.00
H35    H     0.88713   0.37584   0.79745   0.00000  Uiso   1.00
H36    H     0.53816   0.72312   0.23544   0.00000  Uiso   1.00
H37    H     0.99397   0.30606   0.15909   0.00000  Uiso   1.00
O38    O     0.94613   0.42238   0.74511   0.00000  Uiso   1.00
O39    O     0.48829   0.87799   0.31974   0.00000  Uiso   1.00
O40    O     0.08630   0.33082   0.21957   0.00000  Uiso   1.00
N41    N     0.93394   0.49778   0.86218   0.00000  Uiso   1.00
N42    N     0.60767   0.82247   0.27165   0.00000  Uiso   1.00
N43    N     0.03379   0.43257   0.20029   0.00000  Uiso   1.00
N44    N     0.89752   0.41666   0.82903   0.00000  Uiso   1.00
N45    N     0.57125   0.74135   0.23850   0.00000  Uiso   1.00
N46    N     0.99738   0.35145   0.16714   0.00000  Uiso   1.00
C47    C     0.37930   0.82363   0.07957   0.00000  Uiso   1.00
C48    C     0.43587   0.76941   0.00939   0.00000  Uiso   1.00
C49    C     0.48473   0.68733   0.97519   0.00000  Uiso   1.00
C50    C     0.53213   0.64854   0.91145   0.00000  Uiso   1.00
C51    C     0.62022   0.55800   0.80682   0.00000  Uiso   1.00
C52    C     0.39166   0.88943   0.12533   0.00000  Uiso   1.00
C53    C     0.40332   0.90826   0.18861   0.00000  Uiso   1.00
C54    C     0.41349   0.97050   0.22247   0.00000  Uiso   1.00
C55    C     0.43289   0.06633   0.29786   0.00000  Uiso   1.00
C56    C     0.30852   0.86485   0.06812   0.00000  Uiso   1.00
C57    C     0.25027   0.86303   0.08332   0.00000  Uiso   1.00
C58    C     0.19043   0.90460   0.06904   0.00000  Uiso   1.00
C59    C     0.08074   0.96226   0.05561   0.00000  Uiso   1.00
C60    C     0.37660   0.90069   0.02721   0.00000  Uiso   1.00
C61    C     0.43441   0.81128   0.98095   0.00000  Uiso   1.00
C62    C     0.48175   0.77260   0.91725   0.00000  Uiso   1.00
C63    C     0.53066   0.69047   0.88296   0.00000  Uiso   1.00
C64    C     0.39020   0.93129   0.09688   0.00000  Uiso   1.00
C65    C     0.40034   0.99352   0.13067   0.00000  Uiso   1.00
C66    C     0.41203   0.01244   0.19398   0.00000  Uiso   1.00
C67    C     0.30705   0.90671   0.03968   0.00000  Uiso   1.00
C68    C     0.24729   0.94829   0.02538   0.00000  Uiso   1.00
C69    C     0.18896   0.94654   0.04055   0.00000  Uiso   1.00
H70    H     0.38044   0.79104   0.10172   0.00000  Uiso   1.00
H71    H     0.48585   0.65496   0.99722   0.00000  Uiso   1.00
H72    H     0.40445   0.87586   0.21061   0.00000  Uiso   1.00
H73    H     0.25142   0.83064   0.10533   0.00000  Uiso   1.00
H74    H     0.60208   0.52256   0.86883   0.00000  Uiso   1.00
H75    H     0.43043   0.98835   0.31878   0.00000  Uiso   1.00
H76    H     0.10773   0.89299   0.09679   0.00000  Uiso   1.00
H77    H     0.37546   0.93329   0.00506   0.00000  Uiso   1.00
H78    H     0.48060   0.80501   0.89525   0.00000  Uiso   1.00
H79    H     0.39920   0.02591   0.10864   0.00000  Uiso   1.00
H80    H     0.24618   0.98068   0.00337   0.00000  Uiso   1.00
H81    H     0.59783   0.64434   0.78607   0.00000  Uiso   1.00
H82    H     0.42617   0.11014   0.23603   0.00000  Uiso   1.00
H83    H     0.10348   0.01477   0.01403   0.00000  Uiso   1.00
O84    O     0.66922   0.49650   0.75697   0.00000  Uiso   1.00
O85    O     0.44400   0.10762   0.34729   0.00000  Uiso   1.00
O86    O     0.02064   0.98249   0.05605   0.00000  Uiso   1.00
N87    N     0.58664   0.56882   0.86441   0.00000  Uiso   1.00
N88    N     0.42617   0.00430   0.28509   0.00000  Uiso   1.00
N89    N     0.12447   0.91516   0.07757   0.00000  Uiso   1.00
N90    N     0.58435   0.63435   0.81988   0.00000  Uiso   1.00
N91    N     0.42388   0.06983   0.24056   0.00000  Uiso   1.00
N92    N     0.12218   0.98069   0.03303   0.00000  Uiso   1.00
C93    C     0.53943   0.13185   0.14369   0.00000  Uiso   1.00
C94    C     0.55761   0.07059   0.06694   0.00000  Uiso   1.00
C95    C     0.51092   0.05439   0.03476   0.00000  Uiso   1.00
C96    C     0.53785   0.99619   0.96408   0.00000  Uiso   1.00
C97    C     0.55527   0.90721   0.85055   0.00000  Uiso   1.00
C98    C     0.59127   0.08557   0.16992   0.00000  Uiso   1.00
C99    C     0.57289   0.08198   0.22434   0.00000  Uiso   1.00
C100   C     0.62815   0.03639   0.24035   0.00000  Uiso   1.00
C101   C     0.69784   0.97072   0.28673   0.00000  Uiso   1.00
C102   C     0.55906   0.18829   0.14741   0.00000  Uiso   1.00
C103   C     0.51361   0.27106   0.18292   0.00000  Uiso   1.00
C104   C     0.54177   0.31196   0.17999   0.00000  Uiso   1.00
C105   C     0.56145   0.40577   0.19143   0.00000  Uiso   1.00
C106   C     0.67026   0.05730   0.07539   0.00000  Uiso   1.00
C107   C     0.62867   0.03010   0.02984   0.00000  Uiso   1.00
C108   C     0.65567   0.97192   0.95919   0.00000  Uiso   1.00
C109   C     0.60904   0.95563   0.92691   0.00000  Uiso   1.00
C110   C     0.66233   0.04508   0.13282   0.00000  Uiso   1.00
C111   C     0.71763   0.99950   0.14876   0.00000  Uiso   1.00
C112   C     0.69934   0.99583   0.20318   0.00000  Uiso   1.00
C113   C     0.63013   0.14780   0.11031   0.00000  Uiso   1.00
C114   C     0.65836   0.18858   0.10733   0.00000  Uiso   1.00
C115   C     0.61296   0.27140   0.14282   0.00000  Uiso   1.00
H116   H     0.48411   0.16337   0.17258   0.00000  Uiso   1.00
H117   H     0.45594   0.08573   0.06349   0.00000  Uiso   1.00
H118   H     0.51789   0.11332   0.25304   0.00000  Uiso   1.00
H119   H     0.45863   0.30237   0.21162   0.00000  Uiso   1.00
H120   H     0.45605   0.98178   0.92619   0.00000  Uiso   1.00
H121   H     0.58669   0.03998   0.32588   0.00000  Uiso   1.00
H122   H     0.46171   0.43863   0.23854   0.00000  Uiso   1.00
H123   H     0.72558   0.02578   0.04650   0.00000  Uiso   1.00
H124   H     0.71066   0.94059   0.93049   0.00000  Uiso   1.00
H125   H     0.77262   0.96818   0.12004   0.00000  Uiso   1.00
H126   H     0.71335   0.15723   0.07862   0.00000  Uiso   1.00
H127   H     0.66280   0.86398   0.81824   0.00000  Uiso   1.00
H128   H     0.79344   0.92218   0.21793   0.00000  Uiso   1.00
H129   H     0.66846   0.32083   0.13059   0.00000  Uiso   1.00
O130   O     0.54526   0.86931   0.79818   0.00000  Uiso   1.00
O131   O     0.71665   0.94567   0.32256   0.00000  Uiso   1.00
O132   O     0.55268   0.46869   0.20797   0.00000  Uiso   1.00
N133   N     0.50675   0.96576   0.91670   0.00000  Uiso   1.00
N134   N     0.62889   0.02016   0.29038   0.00000  Uiso   1.00
N135   N     0.51205   0.39287   0.20874   0.00000  Uiso   1.00
N136   N     0.61800   0.90237   0.85862   0.00000  Uiso   1.00
N137   N     0.74014   0.95677   0.23229   0.00000  Uiso   1.00
N138   N     0.62330   0.32948   0.15066   0.00000  Uiso   1.00
C139   C     0.31740   0.82845   0.63604   0.00000  Uiso   1.00
C140   C     0.32475   0.78248   0.55932   0.00000  Uiso   1.00
C141   C     0.34879   0.70196   0.51740   0.00000  Uiso   1.00
C142   C     0.35162   0.67111   0.44858   0.00000  Uiso   1.00
C143   C     0.36613   0.59244   0.33340   0.00000  Uiso   1.00
C144   C     0.24018   0.89953   0.67273   0.00000  Uiso   1.00
C145   C     0.19312   0.91742   0.72618   0.00000  Uiso   1.00
C146   C     0.12477   0.98511   0.75284   0.00000  Uiso   1.00
C147   C     0.00799   0.08819   0.81377   0.00000  Uiso   1.00
C148   C     0.36141   0.86393   0.64339   0.00000  Uiso   1.00
C149   C     0.41626   0.85191   0.67218   0.00000  Uiso   1.00
C150   C     0.44996   0.88964   0.67415   0.00000  Uiso   1.00
C151   C     0.52140   0.93745   0.68953   0.00000  Uiso   1.00
C152   C     0.27969   0.91686   0.58836   0.00000  Uiso   1.00
C153   C     0.30427   0.83051   0.53342   0.00000  Uiso   1.00
C154   C     0.30707   0.79978   0.46465   0.00000  Uiso   1.00
C155   C     0.33111   0.71922   0.42263   0.00000  Uiso   1.00
C156   C     0.21970   0.94755   0.64684   0.00000  Uiso   1.00
C157   C     0.15141   0.01524   0.67343   0.00000  Uiso   1.00
C158   C     0.10425   0.03322   0.72689   0.00000  Uiso   1.00
C159   C     0.34093   0.91195   0.61749   0.00000  Uiso   1.00
C160   C     0.37454   0.94972   0.61942   0.00000  Uiso   1.00
C161   C     0.42944   0.93775   0.64821   0.00000  Uiso   1.00
H162   H     0.33334   0.79107   0.65620   0.00000  Uiso   1.00
H163   H     0.36463   0.66482   0.53746   0.00000  Uiso   1.00
H164   H     0.20899   0.88025   0.74621   0.00000  Uiso   1.00
H165   H     0.43209   0.81474   0.69222   0.00000  Uiso   1.00
H166   H     0.39026   0.54603   0.39440   0.00000  Uiso   1.00
H167   H     0.06209   0.00029   0.83458   0.00000  Uiso   1.00
H168   H     0.53255   0.86216   0.72072   0.00000  Uiso   1.00
H169   H     0.26375   0.95425   0.56820   0.00000  Uiso   1.00
H170   H     0.29122   0.83695   0.44462   0.00000  Uiso   1.00
H171   H     0.13558   0.05239   0.65337   0.00000  Uiso   1.00
H172   H     0.35868   0.98688   0.59938   0.00000  Uiso   1.00
H173   H     0.33068   0.68574   0.31905   0.00000  Uiso   1.00
H174   H     0.00251   0.14001   0.75923   0.00000  Uiso   1.00
H175   H     0.47297   0.00188   0.64537   0.00000  Uiso   1.00
O176   O     0.37977   0.53579   0.27703   0.00000  Uiso   1.00
O177   O     0.94923   0.13177   0.85453   0.00000  Uiso   1.00
O178   O     0.56647   0.95054   0.70515   0.00000  Uiso   1.00
N179   N     0.37248   0.59501   0.39362   0.00000  Uiso   1.00
N180   N     0.06566   0.01971   0.80516   0.00000  Uiso   1.00
N181   N     0.50549   0.89058   0.69873   0.00000  Uiso   1.00
N182   N     0.34042   0.67018   0.35307   0.00000  Uiso   1.00
N183   N     0.03360   0.09489   0.76461   0.00000  Uiso   1.00
N184   N     0.47343   0.96576   0.65818   0.00000  Uiso   1.00
C185   C     0.86815   0.10451   0.61937   0.00000  Uiso   1.00
C186   C     0.90282   0.04084   0.54176   0.00000  Uiso   1.00
C187   C     0.96524   0.01740   0.50161   0.00000  Uiso   1.00
C188   C     0.98820   0.95815   0.43157   0.00000  Uiso   1.00
C189   C     0.04786   0.86451   0.31544   0.00000  Uiso   1.00
C190   C     0.86073   0.06326   0.65131   0.00000  Uiso   1.00
C191   C     0.88774   0.05869   0.70328   0.00000  Uiso   1.00
C192   C     0.87525   0.01832   0.72547   0.00000  Uiso   1.00
C193   C     0.86950   0.95955   0.77947   0.00000  Uiso   1.00
C194   C     0.79279   0.16587   0.62872   0.00000  Uiso   1.00
C195   C     0.76268   0.24757   0.66171   0.00000  Uiso   1.00
C196   C     0.69299   0.29359   0.66489   0.00000  Uiso   1.00
C197   C     0.58177   0.39412   0.68380   0.00000  Uiso   1.00
C198   C     0.79794   0.04096   0.56637   0.00000  Uiso   1.00
C199   C     0.86469   0.00633   0.51297   0.00000  Uiso   1.00
C200   C     0.88756   0.94710   0.44297   0.00000  Uiso   1.00
C201   C     0.94999   0.92357   0.40272   0.00000  Uiso   1.00
C202   C     0.82259   0.02875   0.62253   0.00000  Uiso   1.00
C203   C     0.81005   0.98838   0.64464   0.00000  Uiso   1.00
C204   C     0.83704   0.98374   0.69663   0.00000  Uiso   1.00
C205   C     0.75465   0.13135   0.59993   0.00000  Uiso   1.00
C206   C     0.68500   0.17725   0.60307   0.00000  Uiso   1.00
C207   C     0.65478   0.25901   0.63605   0.00000  Uiso   1.00
H208   H     0.89784   0.13138   0.64178   0.00000  Uiso   1.00
H209   H     0.99474   0.04413   0.52391   0.00000  Uiso   1.00
H210   H     0.91724   0.08541   0.72556   0.00000  Uiso   1.00
H211   H     0.79221   0.27426   0.68398   0.00000  Uiso   1.00
H212   H     0.08537   0.93214   0.38053   0.00000  Uiso   1.00
H213   H     0.92194   0.01923   0.80573   0.00000  Uiso   1.00
H214   H     0.65827   0.41744   0.71807   0.00000  Uiso   1.00
H215   H     0.76824   0.01409   0.54396   0.00000  Uiso   1.00
H216   H     0.85803   0.92040   0.42071   0.00000  Uiso   1.00
H217   H     0.78054   0.96168   0.62236   0.00000  Uiso   1.00
H218   H     0.65550   0.15052   0.58078   0.00000  Uiso   1.00
H219   H     0.97441   0.83172   0.29677   0.00000  Uiso   1.00
H220   H     0.81098   0.91880   0.72197   0.00000  Uiso   1.00
H221   H     0.54731   0.31701   0.63431   0.00000  Uiso   1.00
O222   O     0.09130   0.82239   0.25934   0.00000  Uiso   1.00
O223   O     0.87688   0.93666   0.81720   0.00000  Uiso   1.00
O224   O     0.53096   0.45910   0.70218   0.00000  Uiso   1.00
N225   N     0.04692   0.92138   0.37773   0.00000  Uiso   1.00
N226   N     0.89414   0.00278   0.77526   0.00000  Uiso   1.00
N227   N     0.64762   0.37508   0.69332   0.00000  Uiso   1.00
N228   N     0.98722   0.86734   0.33266   0.00000  Uiso   1.00
N229   N     0.83443   0.94875   0.73019   0.00000  Uiso   1.00
N230   N     0.58792   0.32105   0.64824   0.00000  Uiso   1.00
C231   C     0.03476   0.62492   0.64555   0.00000  Uiso   1.00
C232   C     0.06681   0.58706   0.56919   0.00000  Uiso   1.00
C233   C     0.02893   0.59548   0.52413   0.00000  Uiso   1.00
C234   C     0.06807   0.55608   0.45625   0.00000  Uiso   1.00
C235   C     0.10653   0.50434   0.34103   0.00000  Uiso   1.00
C236   C     0.06549   0.67371   0.68499   0.00000  Uiso   1.00
C237   C     0.02648   0.75499   0.73731   0.00000  Uiso   1.00
C238   C     0.06451   0.78852   0.76692   0.00000  Uiso   1.00
C239   C     0.10092   0.87129   0.83152   0.00000  Uiso   1.00
C240   C     0.06577   0.55577   0.65478   0.00000  Uiso   1.00
C241   C     0.02701   0.53790   0.68171   0.00000  Uiso   1.00
C242   C     0.06528   0.47214   0.68590   0.00000  Uiso   1.00
C243   C     0.10213   0.37180   0.70359   0.00000  Uiso   1.00
C244   C     0.17163   0.53995   0.60514   0.00000  Uiso   1.00
C245   C     0.14116   0.54091   0.54724   0.00000  Uiso   1.00
C246   C     0.18037   0.50147   0.47941   0.00000  Uiso   1.00
C247   C     0.14255   0.50984   0.43426   0.00000  Uiso   1.00
C248   C     0.13983   0.62756   0.66305   0.00000  Uiso   1.00
C249   C     0.17792   0.66098   0.69259   0.00000  Uiso   1.00
C250   C     0.13899   0.74228   0.74493   0.00000  Uiso   1.00
C251   C     0.14012   0.50962   0.63283   0.00000  Uiso   1.00
C252   C     0.17846   0.44388   0.63699   0.00000  Uiso   1.00
C253   C     0.13976   0.42590   0.66391   0.00000  Uiso   1.00
H254   H     0.97687   0.66086   0.66264   0.00000  Uiso   1.00
H255   H     0.97139   0.63121   0.54113   0.00000  Uiso   1.00
H256   H     0.96895   0.79069   0.75429   0.00000  Uiso   1.00
H257   H     0.96948   0.57362   0.69869   0.00000  Uiso   1.00
H258   H     0.99810   0.57802   0.39675   0.00000  Uiso   1.00
H259   H     0.99295   0.91427   0.84620   0.00000  Uiso   1.00
H260   H     0.99407   0.45655   0.72897   0.00000  Uiso   1.00
H261   H     0.22952   0.50402   0.58805   0.00000  Uiso   1.00
H262   H     0.23790   0.46576   0.46244   0.00000  Uiso   1.00
H263   H     0.23546   0.62524   0.67560   0.00000  Uiso   1.00
H264   H     0.23599   0.40818   0.62000   0.00000  Uiso   1.00
H265   H     0.21441   0.44374   0.33288   0.00000  Uiso   1.00
H266   H     0.20926   0.77999   0.78234   0.00000  Uiso   1.00
H267   H     0.21038   0.32227   0.66510   0.00000  Uiso   1.00
O268   O     0.10721   0.48856   0.28354   0.00000  Uiso   1.00
O269   O     0.10046   0.92971   0.87322   0.00000  Uiso   1.00
O270   O     0.10192   0.32920   0.71940   0.00000  Uiso   1.00
N271   N     0.04786   0.55165   0.39895   0.00000  Uiso   1.00
N272   N     0.04305   0.86603   0.81916   0.00000  Uiso   1.00
N273   N     0.04409   0.43812   0.70957   0.00000  Uiso   1.00
N274   N     0.16425   0.47939   0.36458   0.00000  Uiso   1.00
N275   N     0.15944   0.79377   0.78479   0.00000  Uiso   1.00
N276   N     0.16048   0.36586   0.67520   0.00000  Uiso   1.00
C277   C     0.97383   0.67293   0.96503   0.00000  Uiso   1.00
C278   C     0.96612   0.75242   0.01501   0.00000  Uiso   1.00
C279   C     0.95090   0.79074   0.08619   0.00000  Uiso   1.00
C280   C     0.94606   0.86301   0.12280   0.00000  Uiso   1.00
C281   C     0.93260   0.98145   0.20549   0.00000  Uiso   1.00
C282   C     0.04725   0.61783   0.91183   0.00000  Uiso   1.00
C283   C     0.10025   0.54298   0.89626   0.00000  Uiso   1.00
C284   C     0.16371   0.50194   0.84600   0.00000  Uiso   1.00
C285   C     0.27619   0.41139   0.76846   0.00000  Uiso   1.00
C286   C     0.92077   0.68977   0.92606   0.00000  Uiso   1.00
C287   C     0.86743   0.67540   0.92243   0.00000  Uiso   1.00
C288   C     0.82440   0.69491   0.88413   0.00000  Uiso   1.00
C289   C     0.74050   0.71608   0.82869   0.00000  Uiso   1.00
C290   C     0.99229   0.73311   0.90346   0.00000  Uiso   1.00
C291   C     0.97614   0.78511   0.98156   0.00000  Uiso   1.00
C292   C     0.97132   0.85733   0.01807   0.00000  Uiso   1.00
C293   C     0.95610   0.89576   0.08930   0.00000  Uiso   1.00
C294   C     0.05728   0.65051   0.87839   0.00000  Uiso   1.00
C295   C     0.12067   0.60957   0.82814   0.00000  Uiso   1.00
C296   C     0.17375   0.53469   0.81249   0.00000  Uiso   1.00
C297   C     0.93079   0.72246   0.89261   0.00000  Uiso   1.00
C298   C     0.88785   0.74199   0.85431   0.00000  Uiso   1.00
C299   C     0.83445   0.72766   0.85063   0.00000  Uiso   1.00
H300   H     0.96603   0.64747   0.99106   0.00000  Uiso   1.00
H301   H     0.94315   0.76542   0.11205   0.00000  Uiso   1.00
H302   H     0.09248   0.51770   0.92214   0.00000  Uiso   1.00
H303   H     0.85969   0.65010   0.94831   0.00000  Uiso   1.00
H304   H     0.92224   0.91059   0.23144   0.00000  Uiso   1.00
H305   H     0.23709   0.38824   0.83099   0.00000  Uiso   1.00
H306   H     0.74620   0.66744   0.88617   0.00000  Uiso   1.00
H307   H     0.00009   0.75856   0.87742   0.00000  Uiso   1.00
H308   H     0.97908   0.88261   0.99218   0.00000  Uiso   1.00
H309   H     0.12841   0.63488   0.80227   0.00000  Uiso   1.00
H310   H     0.89562   0.76729   0.82844   0.00000  Uiso   1.00
H311   H     0.95140   0.00571   0.13415   0.00000  Uiso   1.00
H312   H     0.26625   0.48335   0.73369   0.00000  Uiso   1.00
H313   H     0.77537   0.76255   0.78888   0.00000  Uiso   1.00
O314   O     0.92241   0.03774   0.26033   0.00000  Uiso   1.00
O315   O     0.33547   0.35242   0.73494   0.00000  Uiso   1.00
O316   O     0.69145   0.71873   0.80735   0.00000  Uiso   1.00
N317   N     0.93197   0.91596   0.19280   0.00000  Uiso   1.00
N318   N     0.22634   0.42760   0.81840   0.00000  Uiso   1.00
N319   N     0.76742   0.68861   0.86998   0.00000  Uiso   1.00
N320   N     0.94766   0.96714   0.14044   0.00000  Uiso   1.00
N321   N     0.24203   0.47878   0.76605   0.00000  Uiso   1.00
N322   N     0.78311   0.73979   0.81763   0.00000  Uiso   1.00
C323   C     0.55219   0.38056   0.87175   0.00000  Uiso   1.00
C324   C     0.51523   0.42616   0.94869   0.00000  Uiso   1.00
C325   C     0.46117   0.50693   0.99133   0.00000  Uiso   1.00
C326   C     0.43436   0.53737   0.06023   0.00000  Uiso   1.00
C327   C     0.37294   0.61557   0.17585   0.00000  Uiso   1.00
C328   C     0.54339   0.31032   0.83538   0.00000  Uiso   1.00
C329   C     0.51302   0.29370   0.78274   0.00000  Uiso   1.00
C330   C     0.50993   0.22661   0.75625   0.00000  Uiso   1.00
C331   C     0.49229   0.12494   0.69590   0.00000  Uiso   1.00
C332   C     0.63118   0.34380   0.86308   0.00000  Uiso   1.00
C333   C     0.67463   0.35529   0.83372   0.00000  Uiso   1.00
C334   C     0.74545   0.31637   0.83054   0.00000  Uiso   1.00
C335   C     0.86410   0.26668   0.81321   0.00000  Uiso   1.00
C336   C     0.60071   0.29098   0.91829   0.00000  Uiso   1.00
C337   C     0.54159   0.37750   0.97396   0.00000  Uiso   1.00
C338   C     0.51485   0.40782   0.04282   0.00000  Uiso   1.00
C339   C     0.46076   0.48862   0.08556   0.00000  Uiso   1.00
C340   C     0.56975   0.26167   0.86065   0.00000  Uiso   1.00
C341   C     0.56670   0.19459   0.83423   0.00000  Uiso   1.00
C342   C     0.53633   0.17787   0.78157   0.00000  Uiso   1.00
C343   C     0.65753   0.29514   0.88836   0.00000  Uiso   1.00
C344   C     0.72830   0.25619   0.88521   0.00000  Uiso   1.00
C345   C     0.77185   0.26763   0.85586   0.00000  Uiso   1.00
H346   H     0.53167   0.41843   0.85207   0.00000  Uiso   1.00
H347   H     0.44078   0.54456   0.97175   0.00000  Uiso   1.00
H348   H     0.49264   0.33136   0.76319   0.00000  Uiso   1.00
H349   H     0.65421   0.39295   0.81416   0.00000  Uiso   1.00
H350   H     0.35163   0.66294   0.11558   0.00000  Uiso   1.00
H351   H     0.46098   0.21337   0.67579   0.00000  Uiso   1.00
H352   H     0.80170   0.34324   0.78329   0.00000  Uiso   1.00
H353   H     0.62123   0.25309   0.93797   0.00000  Uiso   1.00
H354   H     0.53526   0.37015   0.06237   0.00000  Uiso   1.00
H355   H     0.58711   0.15695   0.85380   0.00000  Uiso   1.00
H356   H     0.74868   0.21854   0.90478   0.00000  Uiso   1.00
H357   H     0.42830   0.52138   0.18913   0.00000  Uiso   1.00
H358   H     0.53766   0.07180   0.74934   0.00000  Uiso   1.00
H359   H     0.87837   0.20168   0.85684   0.00000  Uiso   1.00
O360   O     0.33178   0.67214   0.23263   0.00000  Uiso   1.00
O361   O     0.47526   0.08231   0.65564   0.00000  Uiso   1.00
O362   O     0.92227   0.25271   0.79667   0.00000  Uiso   1.00
N363   N     0.38148   0.61356   0.11582   0.00000  Uiso   1.00
N364   N     0.48371   0.19324   0.70465   0.00000  Uiso   1.00
N365   N     0.80225   0.31465   0.80513   0.00000  Uiso   1.00
N366   N     0.42274   0.53739   0.15540   0.00000  Uiso   1.00
N367   N     0.52497   0.11707   0.74423   0.00000  Uiso   1.00
N368   N     0.84351   0.23848   0.84471   0.00000  Uiso   1.00
C369   C     0.34802   0.09392   0.88895   0.00000  Uiso   1.00
C370   C     0.31860   0.16140   0.96557   0.00000  Uiso   1.00
C371   C     0.35867   0.17757   0.00843   0.00000  Uiso   1.00
C372   C     0.32176   0.24199   0.07698   0.00000  Uiso   1.00
C373   C     0.28739   0.33972   0.19218   0.00000  Uiso   1.00
C374   C     0.31438   0.13409   0.85136   0.00000  Uiso   1.00
C375   C     0.35090   0.12728   0.79818   0.00000  Uiso   1.00
C376   C     0.31042   0.16871   0.77057   0.00000  Uiso   1.00
C377   C     0.26949   0.22399   0.70842   0.00000  Uiso   1.00
C378   C     0.31732   0.04497   0.88112   0.00000  Uiso   1.00
C379   C     0.35631   0.96324   0.85294   0.00000  Uiso   1.00
C380   C     0.31832   0.92963   0.85037   0.00000  Uiso   1.00
C381   C     0.28195   0.84655   0.83442   0.00000  Uiso   1.00
C382   C     0.21121   0.17958   0.93446   0.00000  Uiso   1.00
C383   C     0.24429   0.20793   0.99029   0.00000  Uiso   1.00
C384   C     0.20731   0.27234   0.05878   0.00000  Uiso   1.00
C385   C     0.24732   0.28860   0.10174   0.00000  Uiso   1.00
C386   C     0.24007   0.18061   0.87607   0.00000  Uiso   1.00
C387   C     0.19953   0.22206   0.84853   0.00000  Uiso   1.00
C388   C     0.23598   0.21532   0.79533   0.00000  Uiso   1.00
C389   C     0.24301   0.09150   0.90583   0.00000  Uiso   1.00
C390   C     0.20495   0.05802   0.90330   0.00000  Uiso   1.00
C391   C     0.24387   0.97625   0.87513   0.00000  Uiso   1.00
H392   H     0.40587   0.05769   0.86971   0.00000  Uiso   1.00
H393   H     0.41618   0.14155   0.98928   0.00000  Uiso   1.00
H394   H     0.40840   0.09126   0.77906   0.00000  Uiso   1.00
H395   H     0.41382   0.92725   0.83382   0.00000  Uiso   1.00
H396   H     0.39484   0.25506   0.13275   0.00000  Uiso   1.00
H397   H     0.37844   0.14900   0.68947   0.00000  Uiso   1.00
H398   H     0.38986   0.80315   0.80494   0.00000  Uiso   1.00
H399   H     0.15335   0.21581   0.95370   0.00000  Uiso   1.00
H400   H     0.14981   0.30834   0.07790   0.00000  Uiso   1.00
H401   H     0.14203   0.25806   0.86767   0.00000  Uiso   1.00
H402   H     0.14744   0.09404   0.92243   0.00000  Uiso   1.00
H403   H     0.17864   0.39043   0.20467   0.00000  Uiso   1.00
H404   H     0.16224   0.28438   0.76138   0.00000  Uiso   1.00
H405   H     0.17366   0.93852   0.87686   0.00000  Uiso   1.00
O406   O     0.28896   0.38078   0.24889   0.00000  Uiso   1.00
O407   O     0.26745   0.24163   0.66731   0.00000  Uiso   1.00
O408   O     0.28243   0.78788   0.81881   0.00000  Uiso   1.00
N409   N     0.34444   0.27421   0.13264   0.00000  Uiso   1.00
N410   N     0.32911   0.17507   0.71820   0.00000  Uiso   1.00
N411   N     0.33978   0.85171   0.82614   0.00000  Uiso   1.00
N412   N     0.22811   0.34705   0.17134   0.00000  Uiso   1.00
N413   N     0.21278   0.24791   0.75690   0.00000  Uiso   1.00
N414   N     0.22345   0.92456   0.86484   0.00000  Uiso   1.00
C415   C     0.53889   0.41371   0.38672   0.00000  Uiso   1.00
C416   C     0.53180   0.45990   0.46335   0.00000  Uiso   1.00
C417   C     0.50274   0.54171   0.50628   0.00000  Uiso   1.00
C418   C     0.50111   0.57254   0.57482   0.00000  Uiso   1.00
C419   C     0.48610   0.65175   0.69005   0.00000  Uiso   1.00
C420   C     0.61748   0.34732   0.34914   0.00000  Uiso   1.00
C421   C     0.66045   0.33447   0.29602   0.00000  Uiso   1.00
C422   C     0.73095   0.27051   0.26841   0.00000  Uiso   1.00
C423   C     0.84895   0.17490   0.20628   0.00000  Uiso   1.00
C424   C     0.50083   0.37174   0.37879   0.00000  Uiso   1.00
C425   C     0.44574   0.37940   0.35059   0.00000  Uiso   1.00
C426   C     0.41804   0.33599   0.34793   0.00000  Uiso   1.00
C427   C     0.35493   0.27829   0.33184   0.00000  Uiso   1.00
C428   C     0.58768   0.32298   0.43212   0.00000  Uiso   1.00
C429   C     0.55830   0.41061   0.48801   0.00000  Uiso   1.00
C430   C     0.55672   0.44133   0.55651   0.00000  Uiso   1.00
C431   C     0.52766   0.52317   0.59953   0.00000  Uiso   1.00
C432   C     0.64398   0.29804   0.37379   0.00000  Uiso   1.00
C433   C     0.71443   0.23408   0.34625   0.00000  Uiso   1.00
C434   C     0.75750   0.22114   0.29311   0.00000  Uiso   1.00
C435   C     0.52733   0.32245   0.40345   0.00000  Uiso   1.00
C436   C     0.49972   0.27901   0.40083   0.00000  Uiso   1.00
C437   C     0.44459   0.28661   0.37263   0.00000  Uiso   1.00
H438   H     0.51826   0.45208   0.36752   0.00000  Uiso   1.00
H439   H     0.48224   0.57983   0.48717   0.00000  Uiso   1.00
H440   H     0.63992   0.37261   0.27694   0.00000  Uiso   1.00
H441   H     0.42524   0.41754   0.33151   0.00000  Uiso   1.00
H442   H     0.45401   0.69973   0.63069   0.00000  Uiso   1.00
H443   H     0.78649   0.26278   0.18740   0.00000  Uiso   1.00
H444   H     0.33380   0.35752   0.30246   0.00000  Uiso   1.00
H445   H     0.60832   0.28461   0.45132   0.00000  Uiso   1.00
H446   H     0.57723   0.40317   0.57558   0.00000  Uiso   1.00
H447   H     0.73492   0.19595   0.36535   0.00000  Uiso   1.00
H448   H     0.52024   0.24088   0.41991   0.00000  Uiso   1.00
H449   H     0.53112   0.55634   0.70245   0.00000  Uiso   1.00
H450   H     0.86360   0.11940   0.25915   0.00000  Uiso   1.00
H451   H     0.41091   0.21414   0.37421   0.00000  Uiso   1.00
O452   O     0.47051   0.70905   0.74679   0.00000  Uiso   1.00
O453   O     0.90671   0.13579   0.16520   0.00000  Uiso   1.00
O454   O     0.31279   0.26008   0.31616   0.00000  Uiso   1.00
N455   N     0.47641   0.64971   0.63053   0.00000  Uiso   1.00
N456   N     0.78727   0.24120   0.21609   0.00000  Uiso   1.00
N457   N     0.36405   0.32976   0.32364   0.00000  Uiso   1.00
N458   N     0.51790   0.57256   0.66914   0.00000  Uiso   1.00
N459   N     0.82875   0.16405   0.25470   0.00000  Uiso   1.00
N460   N     0.40554   0.25261   0.36225   0.00000  Uiso   1.00
C461   C     0.07752   0.05701   0.34912   0.00000  Uiso   1.00
C462   C     0.04264   0.12158   0.42655   0.00000  Uiso   1.00
C463   C     0.98701   0.13668   0.46916   0.00000  Uiso   1.00
C464   C     0.96257   0.19840   0.53856   0.00000  Uiso   1.00
C465   C     0.90380   0.29185   0.65486   0.00000  Uiso   1.00
C466   C     0.07158   0.10054   0.31465   0.00000  Uiso   1.00
C467   C     0.04029   0.09794   0.26317   0.00000  Uiso   1.00
C468   C     0.04022   0.14194   0.23837   0.00000  Uiso   1.00
C469   C     0.02643   0.20268   0.18091   0.00000  Uiso   1.00
C470   C     0.15639   0.00562   0.33870   0.00000  Uiso   1.00
C471   C     0.19641   0.92321   0.30742   0.00000  Uiso   1.00
C472   C     0.26774   0.88729   0.30284   0.00000  Uiso   1.00
C473   C     0.38562   0.80065   0.28271   0.00000  Uiso   1.00
C474   C     0.13305   0.13976   0.39660   0.00000  Uiso   1.00
C475   C     0.07280   0.16652   0.45234   0.00000  Uiso   1.00
C476   C     0.04844   0.22823   0.52169   0.00000  Uiso   1.00
C477   C     0.99278   0.24342   0.56440   0.00000  Uiso   1.00
C478   C     0.10174   0.14548   0.34044   0.00000  Uiso   1.00
C479   C     0.10172   0.18949   0.31570   0.00000  Uiso   1.00
C480   C     0.07043   0.18696   0.26420   0.00000  Uiso   1.00
C481   C     0.18655   0.05056   0.36449   0.00000  Uiso   1.00
C482   C     0.25784   0.01476   0.35995   0.00000  Uiso   1.00
C483   C     0.29796   0.93231   0.32868   0.00000  Uiso   1.00
H484   H     0.05404   0.02202   0.32904   0.00000  Uiso   1.00
H485   H     0.96368   0.10189   0.44919   0.00000  Uiso   1.00
H486   H     0.01696   0.06315   0.24322   0.00000  Uiso   1.00
H487   H     0.17305   0.88845   0.28747   0.00000  Uiso   1.00
H488   H     0.87678   0.21028   0.59376   0.00000  Uiso   1.00
H489   H     0.98915   0.12857   0.15946   0.00000  Uiso   1.00
H490   H     0.31829   0.76017   0.25275   0.00000  Uiso   1.00
H491   H     0.15653   0.17475   0.41668   0.00000  Uiso   1.00
H492   H     0.07179   0.26300   0.54163   0.00000  Uiso   1.00
H493   H     0.12507   0.22426   0.33567   0.00000  Uiso   1.00
H494   H     0.28116   0.04956   0.37991   0.00000  Uiso   1.00
H495   H     0.96453   0.34105   0.66879   0.00000  Uiso   1.00
H496   H     0.07689   0.25934   0.23448   0.00000  Uiso   1.00
H497   H     0.40604   0.89094   0.32778   0.00000  Uiso   1.00
O498   O     0.86304   0.33098   0.71189   0.00000  Uiso   1.00
O499   O     0.01048   0.22377   0.14209   0.00000  Uiso   1.00
O500   O     0.44231   0.74045   0.26449   0.00000  Uiso   1.00
N501   N     0.90907   0.22894   0.59427   0.00000  Uiso   1.00
N502   N     0.01411   0.15255   0.18823   0.00000  Uiso   1.00
N503   N     0.32184   0.80813   0.27543   0.00000  Uiso   1.00
N504   N     0.95629   0.29930   0.63464   0.00000  Uiso   1.00
N505   N     0.06133   0.22292   0.22861   0.00000  Uiso   1.00
N506   N     0.36906   0.87849   0.31581   0.00000  Uiso   1.00
C507   C     0.86023   0.60238   0.37799   0.00000  Uiso   1.00
C508   C     0.81872   0.65715   0.45489   0.00000  Uiso   1.00
C509   C     0.84530   0.65168   0.50675   0.00000  Uiso   1.00
C510   C     0.79882   0.70744   0.57389   0.00000  Uiso   1.00
C511   C     0.74509   0.78347   0.69106   0.00000  Uiso   1.00
C512   C     0.81871   0.56719   0.34119   0.00000  Uiso   1.00
C513   C     0.84529   0.48607   0.29744   0.00000  Uiso   1.00
C514   C     0.79881   0.46611   0.26886   0.00000  Uiso   1.00
C515   C     0.74507   0.40247   0.20947   0.00000  Uiso   1.00
C516   C     0.85430   0.65734   0.35640   0.00000  Uiso   1.00
C517   C     0.91081   0.65200   0.32543   0.00000  Uiso   1.00
C518   C     0.89429   0.70793   0.30964   0.00000  Uiso   1.00
C519   C     0.89582   0.78426   0.27387   0.00000  Uiso   1.00
C520   C     0.73043   0.71116   0.40501   0.00000  Uiso   1.00
C521   C     0.74822   0.71624   0.46957   0.00000  Uiso   1.00
C522   C     0.70169   0.77202   0.53665   0.00000  Uiso   1.00
C523   C     0.72820   0.76663   0.58860   0.00000  Uiso   1.00
C524   C     0.74822   0.62627   0.35587   0.00000  Uiso   1.00
C525   C     0.70169   0.60642   0.32734   0.00000  Uiso   1.00
C526   C     0.72818   0.52530   0.28357   0.00000  Uiso   1.00
C527   C     0.78380   0.71642   0.37108   0.00000  Uiso   1.00
C528   C     0.76720   0.77236   0.35533   0.00000  Uiso   1.00
C529   C     0.82366   0.76711   0.32435   0.00000  Uiso   1.00
H530   H     0.91511   0.55638   0.36656   0.00000  Uiso   1.00
H531   H     0.89986   0.60594   0.49537   0.00000  Uiso   1.00
H532   H     0.89985   0.44036   0.28609   0.00000  Uiso   1.00
H533   H     0.96535   0.60627   0.31408   0.00000  Uiso   1.00
H534   H     0.85185   0.68692   0.64465   0.00000  Uiso   1.00
H535   H     0.85184   0.33780   0.20335   0.00000  Uiso   1.00
H536   H     0.98996   0.68765   0.26237   0.00000  Uiso   1.00
H537   H     0.67554   0.75716   0.41644   0.00000  Uiso   1.00
H538   H     0.64714   0.81774   0.54799   0.00000  Uiso   1.00
H539   H     0.64713   0.65216   0.33871   0.00000  Uiso   1.00
H540   H     0.71264   0.81807   0.36670   0.00000  Uiso   1.00
H541   H     0.64673   0.85882   0.68736   0.00000  Uiso   1.00
H542   H     0.64672   0.50970   0.24606   0.00000  Uiso   1.00
H543   H     0.78485   0.85955   0.30508   0.00000  Uiso   1.00
O544   O     0.73492   0.80908   0.75164   0.00000  Uiso   1.00
O545   O     0.73491   0.35105   0.17266   0.00000  Uiso   1.00
O546   O     0.91613   0.81005   0.25010   0.00000  Uiso   1.00
N547   N     0.80747   0.71907   0.63665   0.00000  Uiso   1.00
N548   N     0.80746   0.39266   0.22407   0.00000  Uiso   1.00
N549   N     0.93660   0.71973   0.27923   0.00000  Uiso   1.00
N550   N     0.69710   0.81157   0.65963   0.00000  Uiso   1.00
N551   N     0.69709   0.48516   0.24705   0.00000  Uiso   1.00
N552   N     0.82623   0.81223   0.30221   0.00000  Uiso   1.00
