data_job_01127
_audit_creation_date              2018-12-19
_audit_creation_method            'Materials Studio'
_symmetry_space_group_name_H-M    'P1'
_symmetry_Int_Tables_number       1
_symmetry_cell_setting            triclinic
loop_
_symmetry_equiv_pos_as_xyz
  x,y,z
_cell_length_a                    16.2442
_cell_length_b                    12.5248
_cell_length_c                    32.1432
_cell_angle_alpha                 90.0000
_cell_angle_beta                  126.3271
_cell_angle_gamma                 90.0000
loop_
_atom_site_label
_atom_site_type_symbol
_atom_site_fract_x
_atom_site_fract_y
_atom_site_fract_z
_atom_site_U_iso_or_equiv
_atom_site_adp_type
_atom_site_occupancy
C1     C     0.05714   0.89659   0.86060   0.00000  Uiso   1.00
C2     C     0.16020   0.95256   0.88767   0.00000  Uiso   1.00
C3     C     0.18407   0.05245   0.91077   0.00000  Uiso   1.00
C4     C     0.28260   0.08968   0.93348   0.00000  Uiso   1.00
C5     C     0.43167   0.18582   0.97555   0.00000  Uiso   1.00
C6     C     0.02330   0.87172   0.80612   0.00000  Uiso   1.00
C7     C     0.93205   0.90363   0.76065   0.00000  Uiso   1.00
C8     C     0.91534   0.87279   0.71472   0.00000  Uiso   1.00
C9     C     0.85182   0.84335   0.63018   0.00000  Uiso   1.00
C10    C     0.07875   0.78907   0.88751   0.00000  Uiso   1.00
C11    C     0.03410   0.75147   0.91046   0.00000  Uiso   1.00
C12    C     0.06405   0.65102   0.93304   0.00000  Uiso   1.00
C13    C     0.08662   0.49327   0.97487   0.00000  Uiso   1.00
C14    C     0.18969   0.78505   0.85987   0.00000  Uiso   1.00
C15    C     0.23220   0.89197   0.88727   0.00000  Uiso   1.00
C16    C     0.33072   0.92905   0.90996   0.00000  Uiso   1.00
C17    C     0.35473   0.02898   0.93309   0.00000  Uiso   1.00
C18    C     0.09529   0.81114   0.80572   0.00000  Uiso   1.00
C19    C     0.07870   0.78023   0.75985   0.00000  Uiso   1.00
C20    C     0.98746   0.81209   0.71432   0.00000  Uiso   1.00
C21    C     0.15074   0.72848   0.88711   0.00000  Uiso   1.00
C22    C     0.18076   0.62807   0.90966   0.00000  Uiso   1.00
C23    C     0.13617   0.59033   0.93264   0.00000  Uiso   1.00
H24    H     0.00109   0.94376   0.86090   0.00000  Uiso   1.00
H25    H     0.12833   0.09932   0.91106   0.00000  Uiso   1.00
H26    H     0.87635   0.95050   0.76097   0.00000  Uiso   1.00
H27    H     0.97839   0.79837   0.91076   0.00000  Uiso   1.00
H28    H     0.30114   0.24508   0.96648   0.00000  Uiso   1.00
H29    H     0.76982   0.93128   0.65000   0.00000  Uiso   1.00
H30    H     0.98498   0.61047   0.96586   0.00000  Uiso   1.00
H31    H     0.24574   0.73789   0.85956   0.00000  Uiso   1.00
H32    H     0.38642   0.88215   0.90965   0.00000  Uiso   1.00
H33    H     0.13443   0.73334   0.75955   0.00000  Uiso   1.00
H34    H     0.23647   0.58121   0.90934   0.00000  Uiso   1.00
H35    H     0.51061   0.06883   0.96533   0.00000  Uiso   1.00
H36    H     0.97928   0.75502   0.64885   0.00000  Uiso   1.00
H37    H     0.19445   0.43422   0.96471   0.00000  Uiso   1.00
O38    O     0.49399   0.25559   0.99886   0.00000  Uiso   1.00
O39    O     0.79690   0.84387   0.58366   0.00000  Uiso   1.00
O40    O     0.07920   0.42299   0.99806   0.00000  Uiso   1.00
N41    N     0.33114   0.18380   0.95934   0.00000  Uiso   1.00
N42    N     0.83439   0.89042   0.66345   0.00000  Uiso   1.00
N43    N     0.03553   0.59048   0.95874   0.00000  Uiso   1.00
N44    N     0.44386   0.08895   0.95873   0.00000  Uiso   1.00
N45    N     0.94710   0.79558   0.66284   0.00000  Uiso   1.00
N46    N     0.14824   0.49564   0.95813   0.00000  Uiso   1.00
C47    C     0.33214   0.09173   0.64051   0.00000  Uiso   1.00
C48    C     0.34529   0.00651   0.61099   0.00000  Uiso   1.00
C49    C     0.29698   0.90789   0.59577   0.00000  Uiso   1.00
C50    C     0.31920   0.84118   0.56913   0.00000  Uiso   1.00
C51    C     0.32931   0.70413   0.52499   0.00000  Uiso   1.00
C52    C     0.43906   0.11510   0.68903   0.00000  Uiso   1.00
C53    C     0.46958   0.10780   0.73942   0.00000  Uiso   1.00
C54    C     0.57073   0.13252   0.77848   0.00000  Uiso   1.00
C55    C     0.72639   0.16413   0.85550   0.00000  Uiso   1.00
C56    C     0.29798   0.19258   0.60764   0.00000  Uiso   1.00
C57    C     0.20989   0.25046   0.58960   0.00000  Uiso   1.00
C58    C     0.19228   0.34044   0.56013   0.00000  Uiso   1.00
C59    C     0.12889   0.49235   0.51077   0.00000  Uiso   1.00
C60    C     0.45750   0.14864   0.62027   0.00000  Uiso   1.00
C61    C     0.41339   0.03742   0.60000   0.00000  Uiso   1.00
C62    C     0.43568   0.97085   0.57338   0.00000  Uiso   1.00
C63    C     0.38742   0.87215   0.55811   0.00000  Uiso   1.00
C64    C     0.50715   0.14600   0.67804   0.00000  Uiso   1.00
C65    C     0.60828   0.17075   0.71703   0.00000  Uiso   1.00
C66    C     0.63894   0.16349   0.76746   0.00000  Uiso   1.00
C67    C     0.36607   0.22349   0.59664   0.00000  Uiso   1.00
C68    C     0.34859   0.31341   0.56720   0.00000  Uiso   1.00
C69    C     0.26049   0.37140   0.54912   0.00000  Uiso   1.00
H70    H     0.27913   0.06767   0.64907   0.00000  Uiso   1.00
H71    H     0.24430   0.88399   0.60428   0.00000  Uiso   1.00
H72    H     0.41686   0.08389   0.74791   0.00000  Uiso   1.00
H73    H     0.15722   0.22651   0.59811   0.00000  Uiso   1.00
H74    H     0.23574   0.69397   0.54980   0.00000  Uiso   1.00
H75    H     0.59959   0.11548   0.85265   0.00000  Uiso   1.00
H76    H     0.05208   0.41625   0.53677   0.00000  Uiso   1.00
H77    H     0.51052   0.17270   0.61171   0.00000  Uiso   1.00
H78    H     0.48838   0.99479   0.56487   0.00000  Uiso   1.00
H79    H     0.66095   0.19467   0.70851   0.00000  Uiso   1.00
H80    H     0.40130   0.33730   0.55870   0.00000  Uiso   1.00
H81    H     0.43385   0.78389   0.51782   0.00000  Uiso   1.00
H82    H     0.79770   0.20541   0.82067   0.00000  Uiso   1.00
H83    H     0.25019   0.50617   0.50478   0.00000  Uiso   1.00
O84    O     0.31609   0.61998   0.50369   0.00000  Uiso   1.00
O85    O     0.79344   0.17301   0.90102   0.00000  Uiso   1.00
O86    O     0.07511   0.56760   0.48658   0.00000  Uiso   1.00
N87    N     0.28539   0.73956   0.54869   0.00000  Uiso   1.00
N88    N     0.62557   0.13363   0.83184   0.00000  Uiso   1.00
N89    N     0.11371   0.41484   0.53652   0.00000  Uiso   1.00
N90    N     0.39199   0.78794   0.53148   0.00000  Uiso   1.00
N91    N     0.73217   0.18202   0.81463   0.00000  Uiso   1.00
N92    N     0.22031   0.46322   0.51931   0.00000  Uiso   1.00
C93    C     0.94286   0.39659   0.63940   0.00000  Uiso   1.00
C94    C     0.83980   0.45256   0.61233   0.00000  Uiso   1.00
C95    C     0.81593   0.55245   0.58923   0.00000  Uiso   1.00
C96    C     0.71740   0.58968   0.56652   0.00000  Uiso   1.00
C97    C     0.56833   0.68582   0.52445   0.00000  Uiso   1.00
C98    C     0.97670   0.37172   0.69388   0.00000  Uiso   1.00
C99    C     0.06795   0.40363   0.73935   0.00000  Uiso   1.00
C100   C     0.08466   0.37279   0.78528   0.00000  Uiso   1.00
C101   C     0.14818   0.34335   0.86982   0.00000  Uiso   1.00
C102   C     0.92125   0.28907   0.61249   0.00000  Uiso   1.00
C103   C     0.96590   0.25147   0.58954   0.00000  Uiso   1.00
C104   C     0.93595   0.15102   0.56696   0.00000  Uiso   1.00
C105   C     0.91338   0.99327   0.52513   0.00000  Uiso   1.00
C106   C     0.81031   0.28505   0.64013   0.00000  Uiso   1.00
C107   C     0.76780   0.39197   0.61273   0.00000  Uiso   1.00
C108   C     0.66928   0.42905   0.59004   0.00000  Uiso   1.00
C109   C     0.64527   0.52898   0.56691   0.00000  Uiso   1.00
C110   C     0.90471   0.31114   0.69428   0.00000  Uiso   1.00
C111   C     0.92130   0.28023   0.74015   0.00000  Uiso   1.00
C112   C     0.01254   0.31209   0.78568   0.00000  Uiso   1.00
C113   C     0.84926   0.22848   0.61289   0.00000  Uiso   1.00
C114   C     0.81924   0.12807   0.59034   0.00000  Uiso   1.00
C115   C     0.86383   0.09033   0.56736   0.00000  Uiso   1.00
H116   H     0.99891   0.44376   0.63910   0.00000  Uiso   1.00
H117   H     0.87167   0.59932   0.58894   0.00000  Uiso   1.00
H118   H     0.12365   0.45050   0.73903   0.00000  Uiso   1.00
H119   H     0.02161   0.29837   0.58924   0.00000  Uiso   1.00
H120   H     0.69886   0.74508   0.53352   0.00000  Uiso   1.00
H121   H     0.23018   0.43128   0.85000   0.00000  Uiso   1.00
H122   H     0.01502   0.11047   0.53414   0.00000  Uiso   1.00
H123   H     0.75426   0.23789   0.64044   0.00000  Uiso   1.00
H124   H     0.61358   0.38215   0.59035   0.00000  Uiso   1.00
H125   H     0.86557   0.23334   0.74045   0.00000  Uiso   1.00
H126   H     0.76353   0.08121   0.59066   0.00000  Uiso   1.00
H127   H     0.48939   0.56883   0.53467   0.00000  Uiso   1.00
H128   H     0.02072   0.25502   0.85115   0.00000  Uiso   1.00
H129   H     0.80555   0.93422   0.53529   0.00000  Uiso   1.00
O130   O     0.50601   0.75559   0.50114   0.00000  Uiso   1.00
O131   O     0.20310   0.34387   0.91634   0.00000  Uiso   1.00
O132   O     0.92080   0.92299   0.50194   0.00000  Uiso   1.00
N133   N     0.66886   0.68380   0.54066   0.00000  Uiso   1.00
N134   N     0.16561   0.39042   0.83655   0.00000  Uiso   1.00
N135   N     0.96447   0.09048   0.54126   0.00000  Uiso   1.00
N136   N     0.55614   0.58895   0.54127   0.00000  Uiso   1.00
N137   N     0.05290   0.29558   0.83716   0.00000  Uiso   1.00
N138   N     0.85176   0.99564   0.54187   0.00000  Uiso   1.00
C139   C     0.66786   0.59173   0.85949   0.00000  Uiso   1.00
C140   C     0.65471   0.50651   0.88901   0.00000  Uiso   1.00
C141   C     0.70302   0.40789   0.90423   0.00000  Uiso   1.00
C142   C     0.68080   0.34118   0.93087   0.00000  Uiso   1.00
C143   C     0.67069   0.20413   0.97501   0.00000  Uiso   1.00
C144   C     0.56094   0.61510   0.81097   0.00000  Uiso   1.00
C145   C     0.53042   0.60780   0.76058   0.00000  Uiso   1.00
C146   C     0.42927   0.63252   0.72152   0.00000  Uiso   1.00
C147   C     0.27361   0.66413   0.64450   0.00000  Uiso   1.00
C148   C     0.70202   0.69258   0.89236   0.00000  Uiso   1.00
C149   C     0.79011   0.75046   0.91040   0.00000  Uiso   1.00
C150   C     0.80772   0.84044   0.93987   0.00000  Uiso   1.00
C151   C     0.87111   0.99235   0.98923   0.00000  Uiso   1.00
C152   C     0.54250   0.64864   0.87973   0.00000  Uiso   1.00
C153   C     0.58661   0.53742   0.90000   0.00000  Uiso   1.00
C154   C     0.56432   0.47085   0.92662   0.00000  Uiso   1.00
C155   C     0.61258   0.37215   0.94189   0.00000  Uiso   1.00
C156   C     0.49285   0.64600   0.82196   0.00000  Uiso   1.00
C157   C     0.39172   0.67075   0.78297   0.00000  Uiso   1.00
C158   C     0.36106   0.66349   0.73254   0.00000  Uiso   1.00
C159   C     0.63393   0.72349   0.90336   0.00000  Uiso   1.00
C160   C     0.65141   0.81341   0.93280   0.00000  Uiso   1.00
C161   C     0.73951   0.87140   0.95088   0.00000  Uiso   1.00
H162   H     0.72087   0.56767   0.85093   0.00000  Uiso   1.00
H163   H     0.75570   0.38399   0.89572   0.00000  Uiso   1.00
H164   H     0.58314   0.58389   0.75209   0.00000  Uiso   1.00
H165   H     0.84278   0.72651   0.90189   0.00000  Uiso   1.00
H166   H     0.76426   0.19397   0.95020   0.00000  Uiso   1.00
H167   H     0.40041   0.61548   0.64735   0.00000  Uiso   1.00
H168   H     0.94792   0.91625   0.96323   0.00000  Uiso   1.00
H169   H     0.48948   0.67270   0.88829   0.00000  Uiso   1.00
H170   H     0.51162   0.49479   0.93513   0.00000  Uiso   1.00
H171   H     0.33905   0.69467   0.79149   0.00000  Uiso   1.00
H172   H     0.59870   0.83730   0.94130   0.00000  Uiso   1.00
H173   H     0.56615   0.28389   0.98218   0.00000  Uiso   1.00
H174   H     0.20230   0.70541   0.67933   0.00000  Uiso   1.00
H175   H     0.74981   0.00617   0.99522   0.00000  Uiso   1.00
O176   O     0.68391   0.11998   0.99631   0.00000  Uiso   1.00
O177   O     0.20656   0.67301   0.59898   0.00000  Uiso   1.00
O178   O     0.92489   0.06760   0.01342   0.00000  Uiso   1.00
N179   N     0.71461   0.23956   0.95131   0.00000  Uiso   1.00
N180   N     0.37443   0.63363   0.66816   0.00000  Uiso   1.00
N181   N     0.88629   0.91484   0.96348   0.00000  Uiso   1.00
N182   N     0.60801   0.28794   0.96852   0.00000  Uiso   1.00
N183   N     0.26783   0.68202   0.68537   0.00000  Uiso   1.00
N184   N     0.77969   0.96322   0.98069   0.00000  Uiso   1.00
C185   C     0.94286   0.10341   0.13940   0.00000  Uiso   1.00
C186   C     0.83980   0.04744   0.11233   0.00000  Uiso   1.00
C187   C     0.81593   0.94755   0.08923   0.00000  Uiso   1.00
C188   C     0.71740   0.91032   0.06652   0.00000  Uiso   1.00
C189   C     0.56833   0.81418   0.02445   0.00000  Uiso   1.00
C190   C     0.97670   0.12828   0.19388   0.00000  Uiso   1.00
C191   C     0.06795   0.09637   0.23935   0.00000  Uiso   1.00
C192   C     0.08466   0.12721   0.28528   0.00000  Uiso   1.00
C193   C     0.14818   0.15665   0.36982   0.00000  Uiso   1.00
C194   C     0.92125   0.21093   0.11249   0.00000  Uiso   1.00
C195   C     0.96590   0.24853   0.08954   0.00000  Uiso   1.00
C196   C     0.93595   0.34898   0.06696   0.00000  Uiso   1.00
C197   C     0.91338   0.50673   0.02513   0.00000  Uiso   1.00
C198   C     0.81031   0.21495   0.14013   0.00000  Uiso   1.00
C199   C     0.76780   0.10803   0.11273   0.00000  Uiso   1.00
C200   C     0.66928   0.07095   0.09004   0.00000  Uiso   1.00
C201   C     0.64527   0.97102   0.06691   0.00000  Uiso   1.00
C202   C     0.90471   0.18886   0.19428   0.00000  Uiso   1.00
C203   C     0.92130   0.21977   0.24015   0.00000  Uiso   1.00
C204   C     0.01254   0.18791   0.28568   0.00000  Uiso   1.00
C205   C     0.84926   0.27152   0.11289   0.00000  Uiso   1.00
C206   C     0.81924   0.37193   0.09034   0.00000  Uiso   1.00
C207   C     0.86383   0.40967   0.06736   0.00000  Uiso   1.00
H208   H     0.99891   0.05624   0.13910   0.00000  Uiso   1.00
H209   H     0.87167   0.90068   0.08894   0.00000  Uiso   1.00
H210   H     0.12365   0.04950   0.23903   0.00000  Uiso   1.00
H211   H     0.02161   0.20163   0.08924   0.00000  Uiso   1.00
H212   H     0.69886   0.75492   0.03352   0.00000  Uiso   1.00
H213   H     0.23018   0.06872   0.35000   0.00000  Uiso   1.00
H214   H     0.01502   0.38953   0.03414   0.00000  Uiso   1.00
H215   H     0.75426   0.26211   0.14044   0.00000  Uiso   1.00
H216   H     0.61358   0.11785   0.09035   0.00000  Uiso   1.00
H217   H     0.86557   0.26666   0.24045   0.00000  Uiso   1.00
H218   H     0.76353   0.41879   0.09066   0.00000  Uiso   1.00
H219   H     0.48939   0.93117   0.03467   0.00000  Uiso   1.00
H220   H     0.02072   0.24498   0.35115   0.00000  Uiso   1.00
H221   H     0.80555   0.56578   0.03529   0.00000  Uiso   1.00
O222   O     0.50601   0.74441   0.00114   0.00000  Uiso   1.00
O223   O     0.20310   0.15613   0.41634   0.00000  Uiso   1.00
O224   O     0.92080   0.57701   0.00194   0.00000  Uiso   1.00
N225   N     0.66886   0.81620   0.04066   0.00000  Uiso   1.00
N226   N     0.16561   0.10958   0.33655   0.00000  Uiso   1.00
N227   N     0.96447   0.40952   0.04126   0.00000  Uiso   1.00
N228   N     0.55614   0.91105   0.04127   0.00000  Uiso   1.00
N229   N     0.05290   0.20442   0.33716   0.00000  Uiso   1.00
N230   N     0.85176   0.50436   0.04187   0.00000  Uiso   1.00
C231   C     0.66786   0.90827   0.35949   0.00000  Uiso   1.00
C232   C     0.65471   0.99349   0.38901   0.00000  Uiso   1.00
C233   C     0.70302   0.09211   0.40423   0.00000  Uiso   1.00
C234   C     0.68080   0.15882   0.43087   0.00000  Uiso   1.00
C235   C     0.67069   0.29587   0.47501   0.00000  Uiso   1.00
C236   C     0.56094   0.88490   0.31097   0.00000  Uiso   1.00
C237   C     0.53042   0.89220   0.26058   0.00000  Uiso   1.00
C238   C     0.42927   0.86748   0.22152   0.00000  Uiso   1.00
C239   C     0.27361   0.83587   0.14450   0.00000  Uiso   1.00
C240   C     0.70202   0.80742   0.39236   0.00000  Uiso   1.00
C241   C     0.79011   0.74954   0.41040   0.00000  Uiso   1.00
C242   C     0.80772   0.65956   0.43987   0.00000  Uiso   1.00
C243   C     0.87111   0.50765   0.48923   0.00000  Uiso   1.00
C244   C     0.54250   0.85136   0.37973   0.00000  Uiso   1.00
C245   C     0.58661   0.96258   0.40000   0.00000  Uiso   1.00
C246   C     0.56432   0.02915   0.42662   0.00000  Uiso   1.00
C247   C     0.61258   0.12785   0.44189   0.00000  Uiso   1.00
C248   C     0.49285   0.85400   0.32196   0.00000  Uiso   1.00
C249   C     0.39172   0.82925   0.28297   0.00000  Uiso   1.00
C250   C     0.36106   0.83651   0.23254   0.00000  Uiso   1.00
C251   C     0.63393   0.77651   0.40336   0.00000  Uiso   1.00
C252   C     0.65141   0.68659   0.43280   0.00000  Uiso   1.00
C253   C     0.73951   0.62860   0.45088   0.00000  Uiso   1.00
H254   H     0.72087   0.93233   0.35093   0.00000  Uiso   1.00
H255   H     0.75570   0.11601   0.39572   0.00000  Uiso   1.00
H256   H     0.58314   0.91611   0.25209   0.00000  Uiso   1.00
H257   H     0.84278   0.77349   0.40189   0.00000  Uiso   1.00
H258   H     0.76426   0.30603   0.45020   0.00000  Uiso   1.00
H259   H     0.40041   0.88452   0.14735   0.00000  Uiso   1.00
H260   H     0.94792   0.58375   0.46323   0.00000  Uiso   1.00
H261   H     0.48948   0.82730   0.38829   0.00000  Uiso   1.00
H262   H     0.51162   0.00521   0.43513   0.00000  Uiso   1.00
H263   H     0.33905   0.80533   0.29149   0.00000  Uiso   1.00
H264   H     0.59870   0.66270   0.44130   0.00000  Uiso   1.00
H265   H     0.56615   0.21611   0.48218   0.00000  Uiso   1.00
H266   H     0.20230   0.79459   0.17933   0.00000  Uiso   1.00
H267   H     0.74981   0.49383   0.49522   0.00000  Uiso   1.00
O268   O     0.68391   0.38002   0.49631   0.00000  Uiso   1.00
O269   O     0.20656   0.82699   0.09898   0.00000  Uiso   1.00
O270   O     0.92489   0.43240   0.51342   0.00000  Uiso   1.00
N271   N     0.71461   0.26044   0.45131   0.00000  Uiso   1.00
N272   N     0.37443   0.86637   0.16816   0.00000  Uiso   1.00
N273   N     0.88629   0.58516   0.46348   0.00000  Uiso   1.00
N274   N     0.60801   0.21206   0.46852   0.00000  Uiso   1.00
N275   N     0.26783   0.81798   0.18537   0.00000  Uiso   1.00
N276   N     0.77969   0.53678   0.48069   0.00000  Uiso   1.00
C277   C     0.05714   0.60341   0.36060   0.00000  Uiso   1.00
C278   C     0.16020   0.54744   0.38767   0.00000  Uiso   1.00
C279   C     0.18407   0.44755   0.41077   0.00000  Uiso   1.00
C280   C     0.28260   0.41032   0.43348   0.00000  Uiso   1.00
C281   C     0.43167   0.31418   0.47555   0.00000  Uiso   1.00
C282   C     0.02330   0.62828   0.30612   0.00000  Uiso   1.00
C283   C     0.93205   0.59637   0.26065   0.00000  Uiso   1.00
C284   C     0.91534   0.62721   0.21472   0.00000  Uiso   1.00
C285   C     0.85182   0.65665   0.13018   0.00000  Uiso   1.00
C286   C     0.07875   0.71093   0.38751   0.00000  Uiso   1.00
C287   C     0.03410   0.74853   0.41046   0.00000  Uiso   1.00
C288   C     0.06405   0.84898   0.43304   0.00000  Uiso   1.00
C289   C     0.08662   0.00673   0.47487   0.00000  Uiso   1.00
C290   C     0.18969   0.71495   0.35987   0.00000  Uiso   1.00
C291   C     0.23220   0.60803   0.38727   0.00000  Uiso   1.00
C292   C     0.33072   0.57095   0.40996   0.00000  Uiso   1.00
C293   C     0.35473   0.47102   0.43309   0.00000  Uiso   1.00
C294   C     0.09529   0.68886   0.30572   0.00000  Uiso   1.00
C295   C     0.07870   0.71977   0.25985   0.00000  Uiso   1.00
C296   C     0.98746   0.68791   0.21432   0.00000  Uiso   1.00
C297   C     0.15074   0.77152   0.38711   0.00000  Uiso   1.00
C298   C     0.18076   0.87193   0.40966   0.00000  Uiso   1.00
C299   C     0.13617   0.90967   0.43264   0.00000  Uiso   1.00
H300   H     0.00109   0.55624   0.36090   0.00000  Uiso   1.00
H301   H     0.12833   0.40068   0.41106   0.00000  Uiso   1.00
H302   H     0.87635   0.54950   0.26097   0.00000  Uiso   1.00
H303   H     0.97839   0.70163   0.41076   0.00000  Uiso   1.00
H304   H     0.30114   0.25492   0.46648   0.00000  Uiso   1.00
H305   H     0.76982   0.56872   0.15000   0.00000  Uiso   1.00
H306   H     0.98498   0.88953   0.46586   0.00000  Uiso   1.00
H307   H     0.24574   0.76211   0.35956   0.00000  Uiso   1.00
H308   H     0.38642   0.61785   0.40965   0.00000  Uiso   1.00
H309   H     0.13443   0.76666   0.25955   0.00000  Uiso   1.00
H310   H     0.23647   0.91879   0.40934   0.00000  Uiso   1.00
H311   H     0.51061   0.43117   0.46533   0.00000  Uiso   1.00
H312   H     0.97928   0.74498   0.14885   0.00000  Uiso   1.00
H313   H     0.19445   0.06578   0.46471   0.00000  Uiso   1.00
O314   O     0.49399   0.24441   0.49886   0.00000  Uiso   1.00
O315   O     0.79690   0.65613   0.08366   0.00000  Uiso   1.00
O316   O     0.07920   0.07701   0.49806   0.00000  Uiso   1.00
N317   N     0.33114   0.31620   0.45934   0.00000  Uiso   1.00
N318   N     0.83439   0.60958   0.16345   0.00000  Uiso   1.00
N319   N     0.03553   0.90952   0.45874   0.00000  Uiso   1.00
N320   N     0.44386   0.41105   0.45873   0.00000  Uiso   1.00
N321   N     0.94710   0.70442   0.16284   0.00000  Uiso   1.00
N322   N     0.14824   0.00436   0.45813   0.00000  Uiso   1.00
C323   C     0.33214   0.40827   0.14051   0.00000  Uiso   1.00
C324   C     0.34529   0.49349   0.11099   0.00000  Uiso   1.00
C325   C     0.29698   0.59211   0.09577   0.00000  Uiso   1.00
C326   C     0.31920   0.65882   0.06913   0.00000  Uiso   1.00
C327   C     0.32931   0.79587   0.02499   0.00000  Uiso   1.00
C328   C     0.43906   0.38490   0.18903   0.00000  Uiso   1.00
C329   C     0.46958   0.39220   0.23942   0.00000  Uiso   1.00
C330   C     0.57073   0.36748   0.27848   0.00000  Uiso   1.00
C331   C     0.72639   0.33587   0.35550   0.00000  Uiso   1.00
C332   C     0.29798   0.30742   0.10764   0.00000  Uiso   1.00
C333   C     0.20989   0.24954   0.08960   0.00000  Uiso   1.00
C334   C     0.19228   0.15956   0.06013   0.00000  Uiso   1.00
C335   C     0.12889   0.00765   0.01077   0.00000  Uiso   1.00
C336   C     0.45750   0.35136   0.12027   0.00000  Uiso   1.00
C337   C     0.41339   0.46258   0.10000   0.00000  Uiso   1.00
C338   C     0.43568   0.52915   0.07338   0.00000  Uiso   1.00
C339   C     0.38742   0.62785   0.05811   0.00000  Uiso   1.00
C340   C     0.50715   0.35400   0.17804   0.00000  Uiso   1.00
C341   C     0.60828   0.32925   0.21703   0.00000  Uiso   1.00
C342   C     0.63894   0.33651   0.26746   0.00000  Uiso   1.00
C343   C     0.36607   0.27651   0.09664   0.00000  Uiso   1.00
C344   C     0.34859   0.18659   0.06720   0.00000  Uiso   1.00
C345   C     0.26049   0.12860   0.04912   0.00000  Uiso   1.00
H346   H     0.27913   0.43233   0.14907   0.00000  Uiso   1.00
H347   H     0.24430   0.61601   0.10428   0.00000  Uiso   1.00
H348   H     0.41686   0.41611   0.24791   0.00000  Uiso   1.00
H349   H     0.15722   0.27349   0.09811   0.00000  Uiso   1.00
H350   H     0.23574   0.80603   0.04980   0.00000  Uiso   1.00
H351   H     0.59959   0.38452   0.35265   0.00000  Uiso   1.00
H352   H     0.05208   0.08375   0.03677   0.00000  Uiso   1.00
H353   H     0.51052   0.32730   0.11171   0.00000  Uiso   1.00
H354   H     0.48838   0.50521   0.06487   0.00000  Uiso   1.00
H355   H     0.66095   0.30533   0.20851   0.00000  Uiso   1.00
H356   H     0.40130   0.16270   0.05870   0.00000  Uiso   1.00
H357   H     0.43385   0.71611   0.01782   0.00000  Uiso   1.00
H358   H     0.79770   0.29459   0.32067   0.00000  Uiso   1.00
H359   H     0.25019   0.99383   0.00478   0.00000  Uiso   1.00
O360   O     0.31609   0.88002   0.00369   0.00000  Uiso   1.00
O361   O     0.79344   0.32699   0.40102   0.00000  Uiso   1.00
O362   O     0.07511   0.93240   0.98658   0.00000  Uiso   1.00
N363   N     0.28539   0.76044   0.04869   0.00000  Uiso   1.00
N364   N     0.62557   0.36637   0.33184   0.00000  Uiso   1.00
N365   N     0.11371   0.08516   0.03652   0.00000  Uiso   1.00
N366   N     0.39199   0.71206   0.03148   0.00000  Uiso   1.00
N367   N     0.73217   0.31798   0.31463   0.00000  Uiso   1.00
N368   N     0.22031   0.03678   0.01931   0.00000  Uiso   1.00
