data_job_06352
_audit_creation_date              2018-12-19
_audit_creation_method            'Materials Studio'
_symmetry_space_group_name_H-M    'P1'
_symmetry_Int_Tables_number       1
_symmetry_cell_setting            triclinic
loop_
_symmetry_equiv_pos_as_xyz
  x,y,z
_cell_length_a                    12.6682
_cell_length_b                    19.5014
_cell_length_c                    20.4064
_cell_angle_alpha                 115.2830
_cell_angle_beta                  76.8135
_cell_angle_gamma                 82.9686
loop_
_atom_site_label
_atom_site_type_symbol
_atom_site_fract_x
_atom_site_fract_y
_atom_site_fract_z
_atom_site_U_iso_or_equiv
_atom_site_adp_type
_atom_site_occupancy
C1     C     0.06267   0.35830   0.49067   0.00000  Uiso   1.00
C2     C     0.97761   0.33105   0.44938   0.00000  Uiso   1.00
C3     C     0.90922   0.37545   0.42990   0.00000  Uiso   1.00
C4     C     0.83700   0.33988   0.39230   0.00000  Uiso   1.00
C5     C     0.70543   0.30932   0.33088   0.00000  Uiso   1.00
C6     C     0.03110   0.34693   0.56142   0.00000  Uiso   1.00
C7     C     0.00771   0.40468   0.63613   0.00000  Uiso   1.00
C8     C     0.98054   0.38248   0.69284   0.00000  Uiso   1.00
C9     C     0.93210   0.37655   0.80536   0.00000  Uiso   1.00
C10    C     0.17475   0.29955   0.43920   0.00000  Uiso   1.00
C11    C     0.27215   0.31747   0.41116   0.00000  Uiso   1.00
C12    C     0.36593   0.25539   0.36497   0.00000  Uiso   1.00
C13    C     0.54052   0.17591   0.28771   0.00000  Uiso   1.00
C14    C     0.05604   0.21619   0.45854   0.00000  Uiso   1.00
C15    C     0.97401   0.25386   0.43193   0.00000  Uiso   1.00
C16    C     0.90188   0.21821   0.39435   0.00000  Uiso   1.00
C17    C     0.83339   0.26255   0.37481   0.00000  Uiso   1.00
C18    C     0.02750   0.26974   0.54397   0.00000  Uiso   1.00
C19    C     0.00037   0.24745   0.60058   0.00000  Uiso   1.00
C20    C     0.97693   0.30515   0.67536   0.00000  Uiso   1.00
C21    C     0.17115   0.22236   0.42174   0.00000  Uiso   1.00
C22    C     0.26480   0.16024   0.37560   0.00000  Uiso   1.00
C23    C     0.36232   0.17806   0.34749   0.00000  Uiso   1.00
H24    H     0.06547   0.41840   0.50426   0.00000  Uiso   1.00
H25    H     0.91202   0.43518   0.44343   0.00000  Uiso   1.00
H26    H     0.01051   0.46441   0.64962   0.00000  Uiso   1.00
H27    H     0.27490   0.37721   0.42468   0.00000  Uiso   1.00
H28    H     0.74027   0.41976   0.36830   0.00000  Uiso   1.00
H29    H     0.94798   0.48137   0.80308   0.00000  Uiso   1.00
H30    H     0.50551   0.29751   0.32873   0.00000  Uiso   1.00
H31    H     0.05324   0.15609   0.44495   0.00000  Uiso   1.00
H32    H     0.89911   0.15848   0.38085   0.00000  Uiso   1.00
H33    H     0.99760   0.18771   0.58705   0.00000  Uiso   1.00
H34    H     0.26199   0.10051   0.36210   0.00000  Uiso   1.00
H35    H     0.72979   0.19518   0.31752   0.00000  Uiso   1.00
H36    H     0.93750   0.25679   0.75229   0.00000  Uiso   1.00
H37    H     0.49502   0.07293   0.27795   0.00000  Uiso   1.00
O38    O     0.63384   0.31378   0.30184   0.00000  Uiso   1.00
O39    O     0.90636   0.39461   0.87224   0.00000  Uiso   1.00
O40    O     0.63782   0.15339   0.24992   0.00000  Uiso   1.00
N41    N     0.75897   0.36657   0.36513   0.00000  Uiso   1.00
N42    N     0.95315   0.42418   0.77162   0.00000  Uiso   1.00
N43    N     0.47440   0.25228   0.32817   0.00000  Uiso   1.00
N44    N     0.75333   0.24572   0.33781   0.00000  Uiso   1.00
N45    N     0.94751   0.30333   0.74429   0.00000  Uiso   1.00
N46    N     0.46876   0.13144   0.30084   0.00000  Uiso   1.00
C47    C     0.54830   0.51684   0.86600   0.00000  Uiso   1.00
C48    C     0.42537   0.55247   0.88188   0.00000  Uiso   1.00
C49    C     0.33754   0.56636   0.94449   0.00000  Uiso   1.00
C50    C     0.23113   0.59936   0.94862   0.00000  Uiso   1.00
C51    C     0.04295   0.65185   0.98185   0.00000  Uiso   1.00
C52    C     0.58556   0.44545   0.78725   0.00000  Uiso   1.00
C53    C     0.63242   0.36936   0.77031   0.00000  Uiso   1.00
C54    C     0.66088   0.31226   0.69477   0.00000  Uiso   1.00
C55    C     0.72147   0.19861   0.58108   0.00000  Uiso   1.00
C56    C     0.61152   0.57582   0.85759   0.00000  Uiso   1.00
C57    C     0.68023   0.60933   0.89976   0.00000  Uiso   1.00
C58    C     0.73056   0.66199   0.88343   0.00000  Uiso   1.00
C59    C     0.83146   0.75076   0.87895   0.00000  Uiso   1.00
C60    C     0.51554   0.55074   0.76199   0.00000  Uiso   1.00
C61    C     0.40758   0.57088   0.82538   0.00000  Uiso   1.00
C62    C     0.30128   0.60387   0.82942   0.00000  Uiso   1.00
C63    C     0.21330   0.61781   0.89203   0.00000  Uiso   1.00
C64    C     0.56777   0.46386   0.73076   0.00000  Uiso   1.00
C65    C     0.59617   0.40687   0.65523   0.00000  Uiso   1.00
C66    C     0.64305   0.33071   0.63817   0.00000  Uiso   1.00
C67    C     0.59372   0.59424   0.80110   0.00000  Uiso   1.00
C68    C     0.64397   0.64685   0.78469   0.00000  Uiso   1.00
C69    C     0.71274   0.68044   0.82684   0.00000  Uiso   1.00
H70    H     0.56216   0.50249   0.90998   0.00000  Uiso   1.00
H71    H     0.35134   0.55209   0.98820   0.00000  Uiso   1.00
H72    H     0.64619   0.35513   0.81404   0.00000  Uiso   1.00
H73    H     0.69398   0.59507   0.94348   0.00000  Uiso   1.00
H74    H     0.10975   0.61518   0.04998   0.00000  Uiso   1.00
H75    H     0.73150   0.19986   0.68275   0.00000  Uiso   1.00
H76    H     0.83228   0.70583   0.95570   0.00000  Uiso   1.00
H77    H     0.50168   0.56508   0.71801   0.00000  Uiso   1.00
H78    H     0.28754   0.61812   0.78569   0.00000  Uiso   1.00
H79    H     0.58239   0.42114   0.61153   0.00000  Uiso   1.00
H80    H     0.63018   0.66108   0.74097   0.00000  Uiso   1.00
H81    H     0.05796   0.66876   0.88562   0.00000  Uiso   1.00
H82    H     0.67971   0.25344   0.51839   0.00000  Uiso   1.00
H83    H     0.78049   0.75941   0.79134   0.00000  Uiso   1.00
O84    O     0.94407   0.67571   0.01578   0.00000  Uiso   1.00
O85    O     0.75980   0.13083   0.53398   0.00000  Uiso   1.00
O86    O     0.89201   0.79465   0.89209   0.00000  Uiso   1.00
N87    N     0.12696   0.62053   0.00202   0.00000  Uiso   1.00
N88    N     0.70823   0.23223   0.65868   0.00000  Uiso   1.00
N89    N     0.80248   0.70525   0.91386   0.00000  Uiso   1.00
N90    N     0.09909   0.64936   0.91358   0.00000  Uiso   1.00
N91    N     0.68037   0.26106   0.57024   0.00000  Uiso   1.00
N92    N     0.77461   0.73408   0.82541   0.00000  Uiso   1.00
C93    C     0.41584   0.14557   0.64889   0.00000  Uiso   1.00
C94    C     0.30840   0.12134   0.67003   0.00000  Uiso   1.00
C95    C     0.28136   0.05384   0.62443   0.00000  Uiso   1.00
C96    C     0.17904   0.04228   0.65410   0.00000  Uiso   1.00
C97    C     0.02324   0.99645   0.67586   0.00000  Uiso   1.00
C98    C     0.37925   0.22679   0.65647   0.00000  Uiso   1.00
C99    C     0.41180   0.24794   0.59947   0.00000  Uiso   1.00
C100   C     0.36913   0.32516   0.61773   0.00000  Uiso   1.00
C101   C     0.32339   0.44305   0.61845   0.00000  Uiso   1.00
C102   C     0.46828   0.15679   0.71186   0.00000  Uiso   1.00
C103   C     0.57569   0.11911   0.70142   0.00000  Uiso   1.00
C104   C     0.60799   0.13741   0.76632   0.00000  Uiso   1.00
C105   C     0.70048   0.14662   0.85303   0.00000  Uiso   1.00
C106   C     0.28222   0.24509   0.78270   0.00000  Uiso   1.00
C107   C     0.23583   0.17540   0.74271   0.00000  Uiso   1.00
C108   C     0.13352   0.16393   0.77246   0.00000  Uiso   1.00
C109   C     0.10633   0.09642   0.72691   0.00000  Uiso   1.00
C110   C     0.30668   0.28084   0.72915   0.00000  Uiso   1.00
C111   C     0.26396   0.35804   0.74750   0.00000  Uiso   1.00
C112   C     0.29642   0.37931   0.69054   0.00000  Uiso   1.00
C113   C     0.39571   0.21084   0.78454   0.00000  Uiso   1.00
C114   C     0.42785   0.22921   0.84946   0.00000  Uiso   1.00
C115   C     0.53528   0.19155   0.83913   0.00000  Uiso   1.00
H116   H     0.47234   0.10350   0.59231   0.00000  Uiso   1.00
H117   H     0.33755   0.01203   0.56818   0.00000  Uiso   1.00
H118   H     0.46797   0.20611   0.54323   0.00000  Uiso   1.00
H119   H     0.63183   0.07729   0.64517   0.00000  Uiso   1.00
H120   H     0.15607   0.93446   0.57347   0.00000  Uiso   1.00
H121   H     0.43111   0.34369   0.52087   0.00000  Uiso   1.00
H122   H     0.77665   0.07206   0.73583   0.00000  Uiso   1.00
H123   H     0.22571   0.28717   0.83928   0.00000  Uiso   1.00
H124   H     0.07738   0.20577   0.82871   0.00000  Uiso   1.00
H125   H     0.20780   0.39985   0.80375   0.00000  Uiso   1.00
H126   H     0.37166   0.27104   0.90569   0.00000  Uiso   1.00
H127   H     0.94490   0.09172   0.78492   0.00000  Uiso   1.00
H128   H     0.21995   0.50095   0.73232   0.00000  Uiso   1.00
H129   H     0.56549   0.22931   0.94728   0.00000  Uiso   1.00
O130   O     0.95734   0.95624   0.66778   0.00000  Uiso   1.00
O131   O     0.31820   0.49314   0.59877   0.00000  Uiso   1.00
O132   O     0.77154   0.13676   0.88079   0.00000  Uiso   1.00
N133   N     0.12674   0.98263   0.62470   0.00000  Uiso   1.00
N134   N     0.38387   0.36524   0.57551   0.00000  Uiso   1.00
N135   N     0.70694   0.11130   0.77648   0.00000  Uiso   1.00
N136   N     0.01311   0.06725   0.73848   0.00000  Uiso   1.00
N137   N     0.27024   0.44986   0.68929   0.00000  Uiso   1.00
N138   N     0.59331   0.19592   0.89026   0.00000  Uiso   1.00
C139   C     0.93733   0.64169   0.50933   0.00000  Uiso   1.00
C140   C     0.02239   0.66895   0.55062   0.00000  Uiso   1.00
C141   C     0.09078   0.62455   0.57010   0.00000  Uiso   1.00
C142   C     0.16300   0.66011   0.60770   0.00000  Uiso   1.00
C143   C     0.29457   0.69068   0.66912   0.00000  Uiso   1.00
C144   C     0.96890   0.65307   0.43858   0.00000  Uiso   1.00
C145   C     0.99229   0.59532   0.36387   0.00000  Uiso   1.00
C146   C     0.01946   0.61752   0.30716   0.00000  Uiso   1.00
C147   C     0.06790   0.62345   0.19464   0.00000  Uiso   1.00
C148   C     0.82525   0.70045   0.56081   0.00000  Uiso   1.00
C149   C     0.72785   0.68253   0.58884   0.00000  Uiso   1.00
C150   C     0.63407   0.74461   0.63503   0.00000  Uiso   1.00
C151   C     0.45948   0.82409   0.71229   0.00000  Uiso   1.00
C152   C     0.94396   0.78381   0.54146   0.00000  Uiso   1.00
C153   C     0.02599   0.74614   0.56807   0.00000  Uiso   1.00
C154   C     0.09812   0.78179   0.60565   0.00000  Uiso   1.00
C155   C     0.16661   0.73745   0.62519   0.00000  Uiso   1.00
C156   C     0.97250   0.73026   0.45603   0.00000  Uiso   1.00
C157   C     0.99963   0.75255   0.39942   0.00000  Uiso   1.00
C158   C     0.02307   0.69485   0.32464   0.00000  Uiso   1.00
C159   C     0.82885   0.77764   0.57826   0.00000  Uiso   1.00
C160   C     0.73520   0.83976   0.62440   0.00000  Uiso   1.00
C161   C     0.63768   0.82194   0.65251   0.00000  Uiso   1.00
H162   H     0.93453   0.58160   0.49574   0.00000  Uiso   1.00
H163   H     0.08798   0.56482   0.55657   0.00000  Uiso   1.00
H164   H     0.98949   0.53559   0.35038   0.00000  Uiso   1.00
H165   H     0.72510   0.62279   0.57532   0.00000  Uiso   1.00
H166   H     0.25973   0.58024   0.63170   0.00000  Uiso   1.00
H167   H     0.05202   0.51863   0.19692   0.00000  Uiso   1.00
H168   H     0.49449   0.70249   0.67127   0.00000  Uiso   1.00
H169   H     0.94676   0.84391   0.55505   0.00000  Uiso   1.00
H170   H     0.10089   0.84152   0.61915   0.00000  Uiso   1.00
H171   H     0.00240   0.81229   0.41295   0.00000  Uiso   1.00
H172   H     0.73801   0.89949   0.63790   0.00000  Uiso   1.00
H173   H     0.27021   0.80482   0.68248   0.00000  Uiso   1.00
H174   H     0.06250   0.74321   0.24771   0.00000  Uiso   1.00
H175   H     0.50498   0.92707   0.72205   0.00000  Uiso   1.00
O176   O     0.36616   0.68622   0.69816   0.00000  Uiso   1.00
O177   O     0.09364   0.60539   0.12776   0.00000  Uiso   1.00
O178   O     0.36218   0.84661   0.75009   0.00000  Uiso   1.00
N179   N     0.24103   0.63343   0.63487   0.00000  Uiso   1.00
N180   N     0.04685   0.57582   0.22838   0.00000  Uiso   1.00
N181   N     0.52560   0.74771   0.67183   0.00000  Uiso   1.00
N182   N     0.24667   0.75427   0.66219   0.00000  Uiso   1.00
N183   N     0.05249   0.69667   0.25571   0.00000  Uiso   1.00
N184   N     0.53124   0.86856   0.69916   0.00000  Uiso   1.00
C185   C     0.45170   0.48316   0.13400   0.00000  Uiso   1.00
C186   C     0.57463   0.44753   0.11812   0.00000  Uiso   1.00
C187   C     0.66246   0.43364   0.05551   0.00000  Uiso   1.00
C188   C     0.76887   0.40064   0.05138   0.00000  Uiso   1.00
C189   C     0.95705   0.34815   0.01815   0.00000  Uiso   1.00
C190   C     0.41444   0.55455   0.21275   0.00000  Uiso   1.00
C191   C     0.36758   0.63064   0.22969   0.00000  Uiso   1.00
C192   C     0.33912   0.68774   0.30523   0.00000  Uiso   1.00
C193   C     0.27853   0.80139   0.41892   0.00000  Uiso   1.00
C194   C     0.38848   0.42418   0.14241   0.00000  Uiso   1.00
C195   C     0.31977   0.39067   0.10024   0.00000  Uiso   1.00
C196   C     0.26944   0.33801   0.11657   0.00000  Uiso   1.00
C197   C     0.16854   0.24924   0.12105   0.00000  Uiso   1.00
C198   C     0.48446   0.44926   0.23801   0.00000  Uiso   1.00
C199   C     0.59242   0.42912   0.17462   0.00000  Uiso   1.00
C200   C     0.69872   0.39613   0.17058   0.00000  Uiso   1.00
C201   C     0.78670   0.38219   0.10798   0.00000  Uiso   1.00
C202   C     0.43223   0.53614   0.26924   0.00000  Uiso   1.00
C203   C     0.40383   0.59313   0.34477   0.00000  Uiso   1.00
C204   C     0.35695   0.66929   0.36183   0.00000  Uiso   1.00
C205   C     0.40628   0.40576   0.19890   0.00000  Uiso   1.00
C206   C     0.35603   0.35315   0.21531   0.00000  Uiso   1.00
C207   C     0.28726   0.31956   0.17316   0.00000  Uiso   1.00
H208   H     0.43784   0.49750   0.09002   0.00000  Uiso   1.00
H209   H     0.64866   0.44791   0.01180   0.00000  Uiso   1.00
H210   H     0.35381   0.64487   0.18596   0.00000  Uiso   1.00
H211   H     0.30602   0.40493   0.05652   0.00000  Uiso   1.00
H212   H     0.89025   0.38482   0.95002   0.00000  Uiso   1.00
H213   H     0.26851   0.80014   0.31725   0.00000  Uiso   1.00
H214   H     0.16772   0.29417   0.04430   0.00000  Uiso   1.00
H215   H     0.49832   0.43492   0.28199   0.00000  Uiso   1.00
H216   H     0.71246   0.38188   0.21431   0.00000  Uiso   1.00
H217   H     0.41761   0.57886   0.38847   0.00000  Uiso   1.00
H218   H     0.36982   0.33892   0.25903   0.00000  Uiso   1.00
H219   H     0.94204   0.33124   0.11438   0.00000  Uiso   1.00
H220   H     0.32029   0.74656   0.48161   0.00000  Uiso   1.00
H221   H     0.21951   0.24059   0.20866   0.00000  Uiso   1.00
O222   O     0.05593   0.32429   0.98422   0.00000  Uiso   1.00
O223   O     0.24020   0.86917   0.46602   0.00000  Uiso   1.00
O224   O     0.10799   0.20535   0.10791   0.00000  Uiso   1.00
N225   N     0.87304   0.37947   0.99798   0.00000  Uiso   1.00
N226   N     0.29177   0.76777   0.34132   0.00000  Uiso   1.00
N227   N     0.19752   0.29475   0.08614   0.00000  Uiso   1.00
N228   N     0.90091   0.35064   0.08642   0.00000  Uiso   1.00
N229   N     0.31963   0.73894   0.42976   0.00000  Uiso   1.00
N230   N     0.22539   0.26592   0.17459   0.00000  Uiso   1.00
C231   C     0.58416   0.85443   0.35111   0.00000  Uiso   1.00
C232   C     0.69160   0.87866   0.32997   0.00000  Uiso   1.00
C233   C     0.71864   0.94616   0.37557   0.00000  Uiso   1.00
C234   C     0.82096   0.95772   0.34590   0.00000  Uiso   1.00
C235   C     0.97676   0.00355   0.32414   0.00000  Uiso   1.00
C236   C     0.62075   0.77321   0.34353   0.00000  Uiso   1.00
C237   C     0.58820   0.75206   0.40053   0.00000  Uiso   1.00
C238   C     0.63087   0.67484   0.38227   0.00000  Uiso   1.00
C239   C     0.67661   0.55695   0.38155   0.00000  Uiso   1.00
C240   C     0.53172   0.84321   0.28814   0.00000  Uiso   1.00
C241   C     0.42431   0.88089   0.29858   0.00000  Uiso   1.00
C242   C     0.39201   0.86259   0.23368   0.00000  Uiso   1.00
C243   C     0.29952   0.85338   0.14697   0.00000  Uiso   1.00
C244   C     0.71778   0.75491   0.21731   0.00000  Uiso   1.00
C245   C     0.76417   0.82460   0.25729   0.00000  Uiso   1.00
C246   C     0.86648   0.83606   0.22754   0.00000  Uiso   1.00
C247   C     0.89367   0.90358   0.27309   0.00000  Uiso   1.00
C248   C     0.69332   0.71916   0.27085   0.00000  Uiso   1.00
C249   C     0.73604   0.64196   0.25250   0.00000  Uiso   1.00
C250   C     0.70358   0.62069   0.30946   0.00000  Uiso   1.00
C251   C     0.60429   0.78916   0.21546   0.00000  Uiso   1.00
C252   C     0.57215   0.77079   0.15054   0.00000  Uiso   1.00
C253   C     0.46472   0.80844   0.16087   0.00000  Uiso   1.00
H254   H     0.52766   0.89650   0.40769   0.00000  Uiso   1.00
H255   H     0.66245   0.98797   0.43182   0.00000  Uiso   1.00
H256   H     0.53203   0.79389   0.45677   0.00000  Uiso   1.00
H257   H     0.36817   0.92271   0.35483   0.00000  Uiso   1.00
H258   H     0.84393   0.06554   0.42653   0.00000  Uiso   1.00
H259   H     0.56889   0.65631   0.47913   0.00000  Uiso   1.00
H260   H     0.22335   0.92794   0.26417   0.00000  Uiso   1.00
H261   H     0.77429   0.71283   0.16072   0.00000  Uiso   1.00
H262   H     0.92262   0.79423   0.17129   0.00000  Uiso   1.00
H263   H     0.79220   0.60015   0.19625   0.00000  Uiso   1.00
H264   H     0.62834   0.72896   0.09431   0.00000  Uiso   1.00
H265   H     0.05510   0.90828   0.21508   0.00000  Uiso   1.00
H266   H     0.78005   0.49905   0.26768   0.00000  Uiso   1.00
H267   H     0.43451   0.77069   0.05272   0.00000  Uiso   1.00
O268   O     0.04266   0.04376   0.33222   0.00000  Uiso   1.00
O269   O     0.68180   0.50686   0.40123   0.00000  Uiso   1.00
O270   O     0.22846   0.86324   0.11921   0.00000  Uiso   1.00
N271   N     0.87326   0.01737   0.37530   0.00000  Uiso   1.00
N272   N     0.61613   0.63476   0.42449   0.00000  Uiso   1.00
N273   N     0.29306   0.88870   0.22352   0.00000  Uiso   1.00
N274   N     0.98689   0.93275   0.26152   0.00000  Uiso   1.00
N275   N     0.72976   0.55014   0.31071   0.00000  Uiso   1.00
N276   N     0.40669   0.80408   0.10974   0.00000  Uiso   1.00
