data_job_01600
_audit_creation_date              2018-12-19
_audit_creation_method            'Materials Studio'
_symmetry_space_group_name_H-M    'P1'
_symmetry_Int_Tables_number       1
_symmetry_cell_setting            triclinic
loop_
_symmetry_equiv_pos_as_xyz
  x,y,z
_cell_length_a                    19.7626
_cell_length_b                    19.6702
_cell_length_c                    12.8054
_cell_angle_alpha                 90.0000
_cell_angle_beta                  90.0000
_cell_angle_gamma                 90.0000
loop_
_atom_site_label
_atom_site_type_symbol
_atom_site_fract_x
_atom_site_fract_y
_atom_site_fract_z
_atom_site_U_iso_or_equiv
_atom_site_adp_type
_atom_site_occupancy
C1     C     0.73791   0.83653   0.69458   0.00000  Uiso   1.00
C2     C     0.72644   0.77441   0.62557   0.00000  Uiso   1.00
C3     C     0.69784   0.71337   0.65729   0.00000  Uiso   1.00
C4     C     0.69176   0.66272   0.58237   0.00000  Uiso   1.00
C5     C     0.67067   0.56472   0.49087   0.00000  Uiso   1.00
C6     C     0.81325   0.85262   0.68736   0.00000  Uiso   1.00
C7     C     0.85762   0.85735   0.77104   0.00000  Uiso   1.00
C8     C     0.92461   0.87254   0.74812   0.00000  Uiso   1.00
C9     C     0.03828   0.89601   0.75256   0.00000  Uiso   1.00
C10    C     0.70149   0.89529   0.64098   0.00000  Uiso   1.00
C11    C     0.65191   0.93591   0.68568   0.00000  Uiso   1.00
C12    C     0.62481   0.98705   0.62373   0.00000  Uiso   1.00
C13    C     0.56496   0.07677   0.55617   0.00000  Uiso   1.00
C14    C     0.77795   0.85511   0.50510   0.00000  Uiso   1.00
C15    C     0.74820   0.78451   0.52265   0.00000  Uiso   1.00
C16    C     0.74215   0.73394   0.44765   0.00000  Uiso   1.00
C17    C     0.71354   0.67284   0.47926   0.00000  Uiso   1.00
C18    C     0.83500   0.86271   0.58444   0.00000  Uiso   1.00
C19    C     0.90193   0.87791   0.56139   0.00000  Uiso   1.00
C20    C     0.94640   0.88266   0.64502   0.00000  Uiso   1.00
C21    C     0.72324   0.90538   0.53806   0.00000  Uiso   1.00
C22    C     0.69621   0.95647   0.47603   0.00000  Uiso   1.00
C23    C     0.64660   0.99716   0.52062   0.00000  Uiso   1.00
H24    H     0.72098   0.82867   0.77471   0.00000  Uiso   1.00
H25    H     0.68102   0.70558   0.73695   0.00000  Uiso   1.00
H26    H     0.84078   0.84954   0.85068   0.00000  Uiso   1.00
H27    H     0.63509   0.92808   0.76533   0.00000  Uiso   1.00
H28    H     0.64634   0.57355   0.64971   0.00000  Uiso   1.00
H29    H     0.98318   0.87712   0.88950   0.00000  Uiso   1.00
H30    H     0.54946   0.04276   0.70954   0.00000  Uiso   1.00
H31    H     0.79489   0.86298   0.42497   0.00000  Uiso   1.00
H32    H     0.75898   0.74177   0.36801   0.00000  Uiso   1.00
H33    H     0.91874   0.88572   0.48174   0.00000  Uiso   1.00
H34    H     0.71306   0.96427   0.39639   0.00000  Uiso   1.00
H35    H     0.70962   0.60292   0.35026   0.00000  Uiso   1.00
H36    H     0.04646   0.90650   0.59006   0.00000  Uiso   1.00
H37    H     0.61274   0.07213   0.41009   0.00000  Uiso   1.00
O38    O     0.65305   0.50788   0.46883   0.00000  Uiso   1.00
O39    O     0.09497   0.90616   0.78344   0.00000  Uiso   1.00
O40    O     0.52594   0.12346   0.54733   0.00000  Uiso   1.00
N41    N     0.66615   0.59711   0.58704   0.00000  Uiso   1.00
N42    N     0.98108   0.88091   0.81124   0.00000  Uiso   1.00
N43    N     0.57560   0.03578   0.64299   0.00000  Uiso   1.00
N44    N     0.70020   0.61291   0.42591   0.00000  Uiso   1.00
N45    N     0.01513   0.89672   0.65011   0.00000  Uiso   1.00
N46    N     0.60965   0.05158   0.48186   0.00000  Uiso   1.00
C47    C     0.73791   0.33653   0.19458   0.00000  Uiso   1.00
C48    C     0.72644   0.27441   0.12557   0.00000  Uiso   1.00
C49    C     0.69784   0.21337   0.15729   0.00000  Uiso   1.00
C50    C     0.69176   0.16272   0.08237   0.00000  Uiso   1.00
C51    C     0.67067   0.06472   0.99087   0.00000  Uiso   1.00
C52    C     0.81325   0.35262   0.18736   0.00000  Uiso   1.00
C53    C     0.85762   0.35735   0.27104   0.00000  Uiso   1.00
C54    C     0.92461   0.37254   0.24812   0.00000  Uiso   1.00
C55    C     0.03828   0.39601   0.25256   0.00000  Uiso   1.00
C56    C     0.70149   0.39529   0.14098   0.00000  Uiso   1.00
C57    C     0.65191   0.43591   0.18568   0.00000  Uiso   1.00
C58    C     0.62481   0.48705   0.12373   0.00000  Uiso   1.00
C59    C     0.56496   0.57677   0.05617   0.00000  Uiso   1.00
C60    C     0.77795   0.35511   0.00510   0.00000  Uiso   1.00
C61    C     0.74820   0.28451   0.02265   0.00000  Uiso   1.00
C62    C     0.74215   0.23394   0.94765   0.00000  Uiso   1.00
C63    C     0.71354   0.17284   0.97926   0.00000  Uiso   1.00
C64    C     0.83500   0.36271   0.08444   0.00000  Uiso   1.00
C65    C     0.90193   0.37791   0.06139   0.00000  Uiso   1.00
C66    C     0.94640   0.38266   0.14502   0.00000  Uiso   1.00
C67    C     0.72324   0.40538   0.03806   0.00000  Uiso   1.00
C68    C     0.69621   0.45647   0.97603   0.00000  Uiso   1.00
C69    C     0.64660   0.49716   0.02062   0.00000  Uiso   1.00
H70    H     0.72098   0.32867   0.27471   0.00000  Uiso   1.00
H71    H     0.68102   0.20558   0.23695   0.00000  Uiso   1.00
H72    H     0.84078   0.34954   0.35068   0.00000  Uiso   1.00
H73    H     0.63509   0.42808   0.26533   0.00000  Uiso   1.00
H74    H     0.64634   0.07355   0.14971   0.00000  Uiso   1.00
H75    H     0.98318   0.37712   0.38950   0.00000  Uiso   1.00
H76    H     0.54946   0.54276   0.20954   0.00000  Uiso   1.00
H77    H     0.79489   0.36298   0.92497   0.00000  Uiso   1.00
H78    H     0.75898   0.24177   0.86801   0.00000  Uiso   1.00
H79    H     0.91874   0.38572   0.98174   0.00000  Uiso   1.00
H80    H     0.71306   0.46427   0.89639   0.00000  Uiso   1.00
H81    H     0.70962   0.10292   0.85026   0.00000  Uiso   1.00
H82    H     0.04646   0.40650   0.09006   0.00000  Uiso   1.00
H83    H     0.61274   0.57213   0.91009   0.00000  Uiso   1.00
O84    O     0.65305   0.00788   0.96883   0.00000  Uiso   1.00
O85    O     0.09497   0.40616   0.28344   0.00000  Uiso   1.00
O86    O     0.52594   0.62346   0.04733   0.00000  Uiso   1.00
N87    N     0.66615   0.09711   0.08704   0.00000  Uiso   1.00
N88    N     0.98108   0.38091   0.31124   0.00000  Uiso   1.00
N89    N     0.57560   0.53578   0.14299   0.00000  Uiso   1.00
N90    N     0.70020   0.11291   0.92591   0.00000  Uiso   1.00
N91    N     0.01513   0.39672   0.15011   0.00000  Uiso   1.00
N92    N     0.60965   0.55158   0.98186   0.00000  Uiso   1.00
C93    C     0.26209   0.16347   0.69458   0.00000  Uiso   1.00
C94    C     0.27356   0.22559   0.62557   0.00000  Uiso   1.00
C95    C     0.30216   0.28663   0.65729   0.00000  Uiso   1.00
C96    C     0.30824   0.33728   0.58237   0.00000  Uiso   1.00
C97    C     0.32933   0.43528   0.49087   0.00000  Uiso   1.00
C98    C     0.18675   0.14738   0.68736   0.00000  Uiso   1.00
C99    C     0.14238   0.14265   0.77104   0.00000  Uiso   1.00
C100   C     0.07539   0.12746   0.74812   0.00000  Uiso   1.00
C101   C     0.96172   0.10399   0.75256   0.00000  Uiso   1.00
C102   C     0.29851   0.10471   0.64098   0.00000  Uiso   1.00
C103   C     0.34809   0.06409   0.68568   0.00000  Uiso   1.00
C104   C     0.37519   0.01295   0.62373   0.00000  Uiso   1.00
C105   C     0.43504   0.92323   0.55617   0.00000  Uiso   1.00
C106   C     0.22205   0.14489   0.50510   0.00000  Uiso   1.00
C107   C     0.25180   0.21549   0.52265   0.00000  Uiso   1.00
C108   C     0.25785   0.26606   0.44765   0.00000  Uiso   1.00
C109   C     0.28646   0.32716   0.47926   0.00000  Uiso   1.00
C110   C     0.16500   0.13729   0.58444   0.00000  Uiso   1.00
C111   C     0.09807   0.12209   0.56139   0.00000  Uiso   1.00
C112   C     0.05360   0.11734   0.64502   0.00000  Uiso   1.00
C113   C     0.27676   0.09462   0.53806   0.00000  Uiso   1.00
C114   C     0.30379   0.04353   0.47603   0.00000  Uiso   1.00
C115   C     0.35340   0.00284   0.52062   0.00000  Uiso   1.00
H116   H     0.27902   0.17133   0.77471   0.00000  Uiso   1.00
H117   H     0.31898   0.29442   0.73695   0.00000  Uiso   1.00
H118   H     0.15922   0.15046   0.85068   0.00000  Uiso   1.00
H119   H     0.36491   0.07192   0.76533   0.00000  Uiso   1.00
H120   H     0.35366   0.42645   0.64971   0.00000  Uiso   1.00
H121   H     0.01682   0.12288   0.88950   0.00000  Uiso   1.00
H122   H     0.45054   0.95724   0.70954   0.00000  Uiso   1.00
H123   H     0.20511   0.13702   0.42497   0.00000  Uiso   1.00
H124   H     0.24102   0.25823   0.36801   0.00000  Uiso   1.00
H125   H     0.08126   0.11428   0.48174   0.00000  Uiso   1.00
H126   H     0.28694   0.03573   0.39639   0.00000  Uiso   1.00
H127   H     0.29038   0.39708   0.35026   0.00000  Uiso   1.00
H128   H     0.95354   0.09350   0.59006   0.00000  Uiso   1.00
H129   H     0.38726   0.92787   0.41009   0.00000  Uiso   1.00
O130   O     0.34695   0.49212   0.46883   0.00000  Uiso   1.00
O131   O     0.90503   0.09384   0.78344   0.00000  Uiso   1.00
O132   O     0.47406   0.87654   0.54733   0.00000  Uiso   1.00
N133   N     0.33385   0.40289   0.58704   0.00000  Uiso   1.00
N134   N     0.01892   0.11909   0.81124   0.00000  Uiso   1.00
N135   N     0.42440   0.96422   0.64299   0.00000  Uiso   1.00
N136   N     0.29980   0.38709   0.42591   0.00000  Uiso   1.00
N137   N     0.98487   0.10328   0.65011   0.00000  Uiso   1.00
N138   N     0.39035   0.94842   0.48186   0.00000  Uiso   1.00
C139   C     0.26209   0.66347   0.19458   0.00000  Uiso   1.00
C140   C     0.27356   0.72559   0.12557   0.00000  Uiso   1.00
C141   C     0.30216   0.78663   0.15729   0.00000  Uiso   1.00
C142   C     0.30824   0.83728   0.08237   0.00000  Uiso   1.00
C143   C     0.32933   0.93528   0.99087   0.00000  Uiso   1.00
C144   C     0.18675   0.64738   0.18736   0.00000  Uiso   1.00
C145   C     0.14238   0.64265   0.27104   0.00000  Uiso   1.00
C146   C     0.07539   0.62746   0.24812   0.00000  Uiso   1.00
C147   C     0.96172   0.60399   0.25256   0.00000  Uiso   1.00
C148   C     0.29851   0.60471   0.14098   0.00000  Uiso   1.00
C149   C     0.34809   0.56409   0.18568   0.00000  Uiso   1.00
C150   C     0.37519   0.51295   0.12373   0.00000  Uiso   1.00
C151   C     0.43504   0.42323   0.05617   0.00000  Uiso   1.00
C152   C     0.22205   0.64489   0.00510   0.00000  Uiso   1.00
C153   C     0.25180   0.71549   0.02265   0.00000  Uiso   1.00
C154   C     0.25785   0.76606   0.94765   0.00000  Uiso   1.00
C155   C     0.28646   0.82716   0.97926   0.00000  Uiso   1.00
C156   C     0.16500   0.63729   0.08444   0.00000  Uiso   1.00
C157   C     0.09807   0.62209   0.06139   0.00000  Uiso   1.00
C158   C     0.05360   0.61734   0.14502   0.00000  Uiso   1.00
C159   C     0.27676   0.59462   0.03806   0.00000  Uiso   1.00
C160   C     0.30379   0.54353   0.97603   0.00000  Uiso   1.00
C161   C     0.35340   0.50284   0.02062   0.00000  Uiso   1.00
H162   H     0.27902   0.67133   0.27471   0.00000  Uiso   1.00
H163   H     0.31898   0.79442   0.23695   0.00000  Uiso   1.00
H164   H     0.15922   0.65046   0.35068   0.00000  Uiso   1.00
H165   H     0.36491   0.57192   0.26533   0.00000  Uiso   1.00
H166   H     0.35366   0.92645   0.14971   0.00000  Uiso   1.00
H167   H     0.01682   0.62288   0.38950   0.00000  Uiso   1.00
H168   H     0.45054   0.45724   0.20954   0.00000  Uiso   1.00
H169   H     0.20511   0.63702   0.92497   0.00000  Uiso   1.00
H170   H     0.24102   0.75823   0.86801   0.00000  Uiso   1.00
H171   H     0.08126   0.61428   0.98174   0.00000  Uiso   1.00
H172   H     0.28694   0.53573   0.89639   0.00000  Uiso   1.00
H173   H     0.29038   0.89708   0.85026   0.00000  Uiso   1.00
H174   H     0.95354   0.59350   0.09006   0.00000  Uiso   1.00
H175   H     0.38726   0.42787   0.91009   0.00000  Uiso   1.00
O176   O     0.34695   0.99212   0.96883   0.00000  Uiso   1.00
O177   O     0.90503   0.59384   0.28344   0.00000  Uiso   1.00
O178   O     0.47406   0.37654   0.04733   0.00000  Uiso   1.00
N179   N     0.33385   0.90289   0.08704   0.00000  Uiso   1.00
N180   N     0.01892   0.61909   0.31124   0.00000  Uiso   1.00
N181   N     0.42440   0.46422   0.14299   0.00000  Uiso   1.00
N182   N     0.29980   0.88709   0.92591   0.00000  Uiso   1.00
N183   N     0.98487   0.60328   0.15011   0.00000  Uiso   1.00
N184   N     0.39035   0.44842   0.98186   0.00000  Uiso   1.00
C185   C     0.23791   0.66347   0.69458   0.00000  Uiso   1.00
C186   C     0.22644   0.72559   0.62557   0.00000  Uiso   1.00
C187   C     0.19784   0.78663   0.65729   0.00000  Uiso   1.00
C188   C     0.19176   0.83728   0.58237   0.00000  Uiso   1.00
C189   C     0.17067   0.93528   0.49087   0.00000  Uiso   1.00
C190   C     0.31325   0.64738   0.68736   0.00000  Uiso   1.00
C191   C     0.35762   0.64265   0.77104   0.00000  Uiso   1.00
C192   C     0.42461   0.62746   0.74812   0.00000  Uiso   1.00
C193   C     0.53828   0.60399   0.75256   0.00000  Uiso   1.00
C194   C     0.20149   0.60471   0.64098   0.00000  Uiso   1.00
C195   C     0.15191   0.56409   0.68568   0.00000  Uiso   1.00
C196   C     0.12481   0.51295   0.62373   0.00000  Uiso   1.00
C197   C     0.06496   0.42323   0.55617   0.00000  Uiso   1.00
C198   C     0.27795   0.64489   0.50510   0.00000  Uiso   1.00
C199   C     0.24820   0.71549   0.52265   0.00000  Uiso   1.00
C200   C     0.24215   0.76606   0.44765   0.00000  Uiso   1.00
C201   C     0.21354   0.82716   0.47926   0.00000  Uiso   1.00
C202   C     0.33500   0.63729   0.58444   0.00000  Uiso   1.00
C203   C     0.40193   0.62209   0.56139   0.00000  Uiso   1.00
C204   C     0.44640   0.61734   0.64502   0.00000  Uiso   1.00
C205   C     0.22324   0.59462   0.53806   0.00000  Uiso   1.00
C206   C     0.19621   0.54353   0.47603   0.00000  Uiso   1.00
C207   C     0.14660   0.50284   0.52062   0.00000  Uiso   1.00
H208   H     0.22098   0.67133   0.77471   0.00000  Uiso   1.00
H209   H     0.18102   0.79442   0.73695   0.00000  Uiso   1.00
H210   H     0.34078   0.65046   0.85068   0.00000  Uiso   1.00
H211   H     0.13509   0.57192   0.76533   0.00000  Uiso   1.00
H212   H     0.14634   0.92645   0.64971   0.00000  Uiso   1.00
H213   H     0.48318   0.62288   0.88950   0.00000  Uiso   1.00
H214   H     0.04946   0.45724   0.70954   0.00000  Uiso   1.00
H215   H     0.29489   0.63702   0.42497   0.00000  Uiso   1.00
H216   H     0.25898   0.75823   0.36801   0.00000  Uiso   1.00
H217   H     0.41874   0.61428   0.48174   0.00000  Uiso   1.00
H218   H     0.21306   0.53573   0.39639   0.00000  Uiso   1.00
H219   H     0.20962   0.89708   0.35026   0.00000  Uiso   1.00
H220   H     0.54646   0.59350   0.59006   0.00000  Uiso   1.00
H221   H     0.11274   0.42787   0.41009   0.00000  Uiso   1.00
O222   O     0.15305   0.99212   0.46883   0.00000  Uiso   1.00
O223   O     0.59497   0.59384   0.78344   0.00000  Uiso   1.00
O224   O     0.02594   0.37654   0.54733   0.00000  Uiso   1.00
N225   N     0.16615   0.90289   0.58704   0.00000  Uiso   1.00
N226   N     0.48108   0.61909   0.81124   0.00000  Uiso   1.00
N227   N     0.07560   0.46422   0.64299   0.00000  Uiso   1.00
N228   N     0.20020   0.88709   0.42591   0.00000  Uiso   1.00
N229   N     0.51513   0.60328   0.65011   0.00000  Uiso   1.00
N230   N     0.10965   0.44842   0.48186   0.00000  Uiso   1.00
C231   C     0.23791   0.16347   0.19458   0.00000  Uiso   1.00
C232   C     0.22644   0.22559   0.12557   0.00000  Uiso   1.00
C233   C     0.19784   0.28663   0.15729   0.00000  Uiso   1.00
C234   C     0.19176   0.33728   0.08237   0.00000  Uiso   1.00
C235   C     0.17067   0.43528   0.99087   0.00000  Uiso   1.00
C236   C     0.31325   0.14738   0.18736   0.00000  Uiso   1.00
C237   C     0.35762   0.14265   0.27104   0.00000  Uiso   1.00
C238   C     0.42461   0.12746   0.24812   0.00000  Uiso   1.00
C239   C     0.53828   0.10399   0.25256   0.00000  Uiso   1.00
C240   C     0.20149   0.10471   0.14098   0.00000  Uiso   1.00
C241   C     0.15191   0.06409   0.18568   0.00000  Uiso   1.00
C242   C     0.12481   0.01295   0.12373   0.00000  Uiso   1.00
C243   C     0.06496   0.92323   0.05617   0.00000  Uiso   1.00
C244   C     0.27795   0.14489   0.00510   0.00000  Uiso   1.00
C245   C     0.24820   0.21549   0.02265   0.00000  Uiso   1.00
C246   C     0.24215   0.26606   0.94765   0.00000  Uiso   1.00
C247   C     0.21354   0.32716   0.97926   0.00000  Uiso   1.00
C248   C     0.33500   0.13729   0.08444   0.00000  Uiso   1.00
C249   C     0.40193   0.12209   0.06139   0.00000  Uiso   1.00
C250   C     0.44640   0.11734   0.14502   0.00000  Uiso   1.00
C251   C     0.22324   0.09462   0.03806   0.00000  Uiso   1.00
C252   C     0.19621   0.04353   0.97603   0.00000  Uiso   1.00
C253   C     0.14660   0.00284   0.02062   0.00000  Uiso   1.00
H254   H     0.22098   0.17133   0.27471   0.00000  Uiso   1.00
H255   H     0.18102   0.29442   0.23695   0.00000  Uiso   1.00
H256   H     0.34078   0.15046   0.35068   0.00000  Uiso   1.00
H257   H     0.13509   0.07192   0.26533   0.00000  Uiso   1.00
H258   H     0.14634   0.42645   0.14971   0.00000  Uiso   1.00
H259   H     0.48318   0.12288   0.38950   0.00000  Uiso   1.00
H260   H     0.04946   0.95724   0.20954   0.00000  Uiso   1.00
H261   H     0.29489   0.13702   0.92497   0.00000  Uiso   1.00
H262   H     0.25898   0.25823   0.86801   0.00000  Uiso   1.00
H263   H     0.41874   0.11428   0.98174   0.00000  Uiso   1.00
H264   H     0.21306   0.03573   0.89639   0.00000  Uiso   1.00
H265   H     0.20962   0.39708   0.85026   0.00000  Uiso   1.00
H266   H     0.54646   0.09350   0.09006   0.00000  Uiso   1.00
H267   H     0.11274   0.92787   0.91009   0.00000  Uiso   1.00
O268   O     0.15305   0.49212   0.96883   0.00000  Uiso   1.00
O269   O     0.59497   0.09384   0.28344   0.00000  Uiso   1.00
O270   O     0.02594   0.87654   0.04733   0.00000  Uiso   1.00
N271   N     0.16615   0.40289   0.08704   0.00000  Uiso   1.00
N272   N     0.48108   0.11909   0.31124   0.00000  Uiso   1.00
N273   N     0.07560   0.96422   0.14299   0.00000  Uiso   1.00
N274   N     0.20020   0.38709   0.92591   0.00000  Uiso   1.00
N275   N     0.51513   0.10328   0.15011   0.00000  Uiso   1.00
N276   N     0.10965   0.94842   0.98186   0.00000  Uiso   1.00
C277   C     0.76209   0.33653   0.69458   0.00000  Uiso   1.00
C278   C     0.77356   0.27441   0.62557   0.00000  Uiso   1.00
C279   C     0.80216   0.21337   0.65729   0.00000  Uiso   1.00
C280   C     0.80824   0.16272   0.58237   0.00000  Uiso   1.00
C281   C     0.82933   0.06472   0.49087   0.00000  Uiso   1.00
C282   C     0.68675   0.35262   0.68736   0.00000  Uiso   1.00
C283   C     0.64238   0.35735   0.77104   0.00000  Uiso   1.00
C284   C     0.57539   0.37254   0.74812   0.00000  Uiso   1.00
C285   C     0.46172   0.39601   0.75256   0.00000  Uiso   1.00
C286   C     0.79851   0.39529   0.64098   0.00000  Uiso   1.00
C287   C     0.84809   0.43591   0.68568   0.00000  Uiso   1.00
C288   C     0.87519   0.48705   0.62373   0.00000  Uiso   1.00
C289   C     0.93504   0.57677   0.55617   0.00000  Uiso   1.00
C290   C     0.72205   0.35511   0.50510   0.00000  Uiso   1.00
C291   C     0.75180   0.28451   0.52265   0.00000  Uiso   1.00
C292   C     0.75785   0.23394   0.44765   0.00000  Uiso   1.00
C293   C     0.78646   0.17284   0.47926   0.00000  Uiso   1.00
C294   C     0.66500   0.36271   0.58444   0.00000  Uiso   1.00
C295   C     0.59807   0.37791   0.56139   0.00000  Uiso   1.00
C296   C     0.55360   0.38266   0.64502   0.00000  Uiso   1.00
C297   C     0.77676   0.40538   0.53806   0.00000  Uiso   1.00
C298   C     0.80379   0.45647   0.47603   0.00000  Uiso   1.00
C299   C     0.85340   0.49716   0.52062   0.00000  Uiso   1.00
H300   H     0.77902   0.32867   0.77471   0.00000  Uiso   1.00
H301   H     0.81898   0.20558   0.73695   0.00000  Uiso   1.00
H302   H     0.65922   0.34954   0.85068   0.00000  Uiso   1.00
H303   H     0.86491   0.42808   0.76533   0.00000  Uiso   1.00
H304   H     0.85366   0.07355   0.64971   0.00000  Uiso   1.00
H305   H     0.51682   0.37712   0.88950   0.00000  Uiso   1.00
H306   H     0.95054   0.54276   0.70954   0.00000  Uiso   1.00
H307   H     0.70511   0.36298   0.42497   0.00000  Uiso   1.00
H308   H     0.74102   0.24177   0.36801   0.00000  Uiso   1.00
H309   H     0.58126   0.38572   0.48174   0.00000  Uiso   1.00
H310   H     0.78694   0.46427   0.39639   0.00000  Uiso   1.00
H311   H     0.79038   0.10292   0.35026   0.00000  Uiso   1.00
H312   H     0.45354   0.40650   0.59006   0.00000  Uiso   1.00
H313   H     0.88726   0.57213   0.41009   0.00000  Uiso   1.00
O314   O     0.84695   0.00788   0.46883   0.00000  Uiso   1.00
O315   O     0.40503   0.40616   0.78344   0.00000  Uiso   1.00
O316   O     0.97406   0.62346   0.54733   0.00000  Uiso   1.00
N317   N     0.83385   0.09711   0.58704   0.00000  Uiso   1.00
N318   N     0.51892   0.38091   0.81124   0.00000  Uiso   1.00
N319   N     0.92440   0.53578   0.64299   0.00000  Uiso   1.00
N320   N     0.79980   0.11291   0.42591   0.00000  Uiso   1.00
N321   N     0.48487   0.39672   0.65011   0.00000  Uiso   1.00
N322   N     0.89035   0.55158   0.48186   0.00000  Uiso   1.00
C323   C     0.76209   0.83653   0.19458   0.00000  Uiso   1.00
C324   C     0.77356   0.77441   0.12557   0.00000  Uiso   1.00
C325   C     0.80216   0.71337   0.15729   0.00000  Uiso   1.00
C326   C     0.80824   0.66272   0.08237   0.00000  Uiso   1.00
C327   C     0.82933   0.56472   0.99087   0.00000  Uiso   1.00
C328   C     0.68675   0.85262   0.18736   0.00000  Uiso   1.00
C329   C     0.64238   0.85735   0.27104   0.00000  Uiso   1.00
C330   C     0.57539   0.87254   0.24812   0.00000  Uiso   1.00
C331   C     0.46172   0.89601   0.25256   0.00000  Uiso   1.00
C332   C     0.79851   0.89529   0.14098   0.00000  Uiso   1.00
C333   C     0.84809   0.93591   0.18568   0.00000  Uiso   1.00
C334   C     0.87519   0.98705   0.12373   0.00000  Uiso   1.00
C335   C     0.93504   0.07677   0.05617   0.00000  Uiso   1.00
C336   C     0.72205   0.85511   0.00510   0.00000  Uiso   1.00
C337   C     0.75180   0.78451   0.02265   0.00000  Uiso   1.00
C338   C     0.75785   0.73394   0.94765   0.00000  Uiso   1.00
C339   C     0.78646   0.67284   0.97926   0.00000  Uiso   1.00
C340   C     0.66500   0.86271   0.08444   0.00000  Uiso   1.00
C341   C     0.59807   0.87791   0.06139   0.00000  Uiso   1.00
C342   C     0.55360   0.88266   0.14502   0.00000  Uiso   1.00
C343   C     0.77676   0.90538   0.03806   0.00000  Uiso   1.00
C344   C     0.80379   0.95647   0.97603   0.00000  Uiso   1.00
C345   C     0.85340   0.99716   0.02062   0.00000  Uiso   1.00
H346   H     0.77902   0.82867   0.27471   0.00000  Uiso   1.00
H347   H     0.81898   0.70558   0.23695   0.00000  Uiso   1.00
H348   H     0.65922   0.84954   0.35068   0.00000  Uiso   1.00
H349   H     0.86491   0.92808   0.26533   0.00000  Uiso   1.00
H350   H     0.85366   0.57355   0.14971   0.00000  Uiso   1.00
H351   H     0.51682   0.87712   0.38950   0.00000  Uiso   1.00
H352   H     0.95054   0.04276   0.20954   0.00000  Uiso   1.00
H353   H     0.70511   0.86298   0.92497   0.00000  Uiso   1.00
H354   H     0.74102   0.74177   0.86801   0.00000  Uiso   1.00
H355   H     0.58126   0.88572   0.98174   0.00000  Uiso   1.00
H356   H     0.78694   0.96427   0.89639   0.00000  Uiso   1.00
H357   H     0.79038   0.60292   0.85026   0.00000  Uiso   1.00
H358   H     0.45354   0.90650   0.09006   0.00000  Uiso   1.00
H359   H     0.88726   0.07213   0.91009   0.00000  Uiso   1.00
O360   O     0.84695   0.50788   0.96883   0.00000  Uiso   1.00
O361   O     0.40503   0.90616   0.28344   0.00000  Uiso   1.00
O362   O     0.97406   0.12346   0.04733   0.00000  Uiso   1.00
N363   N     0.83385   0.59711   0.08704   0.00000  Uiso   1.00
N364   N     0.51892   0.88091   0.31124   0.00000  Uiso   1.00
N365   N     0.92440   0.03578   0.14299   0.00000  Uiso   1.00
N366   N     0.79980   0.61291   0.92591   0.00000  Uiso   1.00
N367   N     0.48487   0.89672   0.15011   0.00000  Uiso   1.00
N368   N     0.89035   0.05158   0.98186   0.00000  Uiso   1.00
