data_job_05919
_audit_creation_date              2018-12-19
_audit_creation_method            'Materials Studio'
_symmetry_space_group_name_H-M    'P1'
_symmetry_Int_Tables_number       1
_symmetry_cell_setting            triclinic
loop_
_symmetry_equiv_pos_as_xyz
  x,y,z
_cell_length_a                    15.9297
_cell_length_b                    15.4616
_cell_length_c                    14.0763
_cell_angle_alpha                 95.6734
_cell_angle_beta                  96.1734
_cell_angle_gamma                 93.8915
loop_
_atom_site_label
_atom_site_type_symbol
_atom_site_fract_x
_atom_site_fract_y
_atom_site_fract_z
_atom_site_U_iso_or_equiv
_atom_site_adp_type
_atom_site_occupancy
C1     C     0.19526   0.53262   0.85725   0.00000  Uiso   1.00
C2     C     0.17096   0.62653   0.86191   0.00000  Uiso   1.00
C3     C     0.10224   0.65595   0.80866   0.00000  Uiso   1.00
C4     C     0.09085   0.74430   0.82328   0.00000  Uiso   1.00
C5     C     0.04473   0.88149   0.82051   0.00000  Uiso   1.00
C6     C     0.28632   0.53525   0.83288   0.00000  Uiso   1.00
C7     C     0.31458   0.48790   0.75521   0.00000  Uiso   1.00
C8     C     0.40030   0.49940   0.74541   0.00000  Uiso   1.00
C9     C     0.53328   0.49482   0.69760   0.00000  Uiso   1.00
C10    C     0.19838   0.50776   0.95967   0.00000  Uiso   1.00
C11    C     0.15273   0.43729   0.98861   0.00000  Uiso   1.00
C12    C     0.16443   0.42564   0.08556   0.00000  Uiso   1.00
C13    C     0.16087   0.37839   0.23461   0.00000  Uiso   1.00
C14    C     0.29724   0.63722   0.97794   0.00000  Uiso   1.00
C15    C     0.22636   0.68335   0.92747   0.00000  Uiso   1.00
C16    C     0.21507   0.77168   0.94218   0.00000  Uiso   1.00
C17    C     0.14634   0.80122   0.88896   0.00000  Uiso   1.00
C18    C     0.34171   0.59206   0.89843   0.00000  Uiso   1.00
C19    C     0.42741   0.60363   0.88874   0.00000  Uiso   1.00
C20    C     0.45580   0.55632   0.81108   0.00000  Uiso   1.00
C21    C     0.25377   0.56458   0.02523   0.00000  Uiso   1.00
C22    C     0.26555   0.55303   0.12214   0.00000  Uiso   1.00
C23    C     0.21992   0.48256   0.15123   0.00000  Uiso   1.00
H24    H     0.15214   0.48838   0.80622   0.00000  Uiso   1.00
H25    H     0.05939   0.61196   0.75792   0.00000  Uiso   1.00
H26    H     0.27170   0.44393   0.70450   0.00000  Uiso   1.00
H27    H     0.10986   0.39334   0.93786   0.00000  Uiso   1.00
H28    H     0.98101   0.77403   0.73327   0.00000  Uiso   1.00
H29    H     0.42868   0.41971   0.62064   0.00000  Uiso   1.00
H30    H     0.08742   0.31302   0.11273   0.00000  Uiso   1.00
H31    H     0.34037   0.68145   0.02898   0.00000  Uiso   1.00
H32    H     0.25795   0.81563   0.99292   0.00000  Uiso   1.00
H33    H     0.47026   0.64760   0.93949   0.00000  Uiso   1.00
H34    H     0.30843   0.59701   0.17285   0.00000  Uiso   1.00
H35    H     0.14217   0.93934   0.92399   0.00000  Uiso   1.00
H36    H     0.58985   0.58501   0.81136   0.00000  Uiso   1.00
H37    H     0.24859   0.47833   0.30346   0.00000  Uiso   1.00
O38    O     0.00399   0.94147   0.80086   0.00000  Uiso   1.00
O39    O     0.59132   0.47660   0.65311   0.00000  Uiso   1.00
O40    O     0.14360   0.33664   0.29872   0.00000  Uiso   1.00
N41    N     0.03024   0.79452   0.78312   0.00000  Uiso   1.00
N42    N     0.44879   0.46326   0.67781   0.00000  Uiso   1.00
N43    N     0.12975   0.36350   0.13787   0.00000  Uiso   1.00
N44    N     0.11696   0.88347   0.88575   0.00000  Uiso   1.00
N45    N     0.53551   0.55221   0.78044   0.00000  Uiso   1.00
N46    N     0.21647   0.45245   0.24050   0.00000  Uiso   1.00
C47    C     0.86790   0.19531   0.52208   0.00000  Uiso   1.00
C48    C     0.87155   0.17097   0.62473   0.00000  Uiso   1.00
C49    C     0.82605   0.10077   0.65439   0.00000  Uiso   1.00
C50    C     0.83821   0.08961   0.75144   0.00000  Uiso   1.00
C51    C     0.83538   0.04318   0.90096   0.00000  Uiso   1.00
C52    C     0.84364   0.28922   0.52638   0.00000  Uiso   1.00
C53    C     0.77467   0.31844   0.47334   0.00000  Uiso   1.00
C54    C     0.76335   0.40683   0.48759   0.00000  Uiso   1.00
C55    C     0.71721   0.54399   0.48437   0.00000  Uiso   1.00
C56    C     0.95877   0.19771   0.49708   0.00000  Uiso   1.00
C57    C     0.98661   0.15001   0.41938   0.00000  Uiso   1.00
C58    C     0.07222   0.16137   0.40895   0.00000  Uiso   1.00
C59    C     0.20484   0.15645   0.36024   0.00000  Uiso   1.00
C60    C     0.97043   0.30034   0.64169   0.00000  Uiso   1.00
C61    C     0.92724   0.22803   0.68970   0.00000  Uiso   1.00
C62    C     0.93948   0.21698   0.78673   0.00000  Uiso   1.00
C63    C     0.89400   0.14677   0.81652   0.00000  Uiso   1.00
C64    C     0.89932   0.34627   0.59135   0.00000  Uiso   1.00
C65    C     0.88810   0.43465   0.60568   0.00000  Uiso   1.00
C66    C     0.81914   0.46399   0.55267   0.00000  Uiso   1.00
C67    C     0.01446   0.25476   0.56205   0.00000  Uiso   1.00
C68    C     0.10004   0.26621   0.55173   0.00000  Uiso   1.00
C69    C     0.12801   0.21853   0.47403   0.00000  Uiso   1.00
H70    H     0.82454   0.15090   0.47149   0.00000  Uiso   1.00
H71    H     0.78295   0.05663   0.60409   0.00000  Uiso   1.00
H72    H     0.73159   0.27427   0.42306   0.00000  Uiso   1.00
H73    H     0.94349   0.10586   0.36913   0.00000  Uiso   1.00
H74    H     0.76137   0.97731   0.77975   0.00000  Uiso   1.00
H75    H     0.65309   0.43621   0.39803   0.00000  Uiso   1.00
H76    H     0.09993   0.08109   0.28428   0.00000  Uiso   1.00
H77    H     0.01379   0.34476   0.69227   0.00000  Uiso   1.00
H78    H     0.98258   0.26114   0.83698   0.00000  Uiso   1.00
H79    H     0.93122   0.47878   0.65595   0.00000  Uiso   1.00
H80    H     0.14312   0.31037   0.60202   0.00000  Uiso   1.00
H81    H     0.92339   0.14329   0.96878   0.00000  Uiso   1.00
H82    H     0.81512   0.60220   0.58705   0.00000  Uiso   1.00
H83    H     0.26195   0.24708   0.47330   0.00000  Uiso   1.00
O84    O     0.81842   0.00181   0.96549   0.00000  Uiso   1.00
O85    O     0.67637   0.60388   0.46466   0.00000  Uiso   1.00
O86    O     0.26261   0.13796   0.31543   0.00000  Uiso   1.00
N87    N     0.80380   0.02784   0.80438   0.00000  Uiso   1.00
N88    N     0.70256   0.45689   0.44749   0.00000  Uiso   1.00
N89    N     0.12031   0.12490   0.34114   0.00000  Uiso   1.00
N90    N     0.89098   0.11715   0.90609   0.00000  Uiso   1.00
N91    N     0.78974   0.54620   0.54921   0.00000  Uiso   1.00
N92    N     0.20749   0.21421   0.44285   0.00000  Uiso   1.00
C93    C     0.53507   0.86564   0.19134   0.00000  Uiso   1.00
C94    C     0.62613   0.86859   0.16693   0.00000  Uiso   1.00
C95    C     0.65459   0.82104   0.08955   0.00000  Uiso   1.00
C96    C     0.74027   0.83288   0.07967   0.00000  Uiso   1.00
C97    C     0.87327   0.82870   0.03188   0.00000  Uiso   1.00
C98    C     0.53841   0.84134   0.29399   0.00000  Uiso   1.00
C99    C     0.49310   0.77088   0.32343   0.00000  Uiso   1.00
C100   C     0.50493   0.75980   0.42051   0.00000  Uiso   1.00
C101   C     0.50170   0.71335   0.56999   0.00000  Uiso   1.00
C102   C     0.51026   0.95936   0.19539   0.00000  Uiso   1.00
C103   C     0.44129   0.98813   0.14194   0.00000  Uiso   1.00
C104   C     0.42941   0.07641   0.15603   0.00000  Uiso   1.00
C105   C     0.38249   0.21321   0.15241   0.00000  Uiso   1.00
C106   C     0.63662   0.97125   0.31142   0.00000  Uiso   1.00
C107   C     0.68128   0.92595   0.23216   0.00000  Uiso   1.00
C108   C     0.76694   0.93788   0.22240   0.00000  Uiso   1.00
C109   C     0.79552   0.89035   0.14501   0.00000  Uiso   1.00
C110   C     0.59356   0.89870   0.35921   0.00000  Uiso   1.00
C111   C     0.60545   0.88772   0.45628   0.00000  Uiso   1.00
C112   C     0.56019   0.81726   0.48585   0.00000  Uiso   1.00
C113   C     0.56542   0.01672   0.26061   0.00000  Uiso   1.00
C114   C     0.55365   0.10497   0.27479   0.00000  Uiso   1.00
C115   C     0.48467   0.13388   0.22137   0.00000  Uiso   1.00
H116   H     0.49212   0.82098   0.14057   0.00000  Uiso   1.00
H117   H     0.61188   0.77665   0.03909   0.00000  Uiso   1.00
H118   H     0.45042   0.72651   0.27294   0.00000  Uiso   1.00
H119   H     0.39862   0.94372   0.09148   0.00000  Uiso   1.00
H120   H     0.76899   0.75277   0.95537   0.00000  Uiso   1.00
H121   H     0.42850   0.64706   0.44846   0.00000  Uiso   1.00
H122   H     0.31927   0.10511   0.06580   0.00000  Uiso   1.00
H123   H     0.67956   0.01591   0.36220   0.00000  Uiso   1.00
H124   H     0.80961   0.98227   0.27288   0.00000  Uiso   1.00
H125   H     0.64814   0.93213   0.50673   0.00000  Uiso   1.00
H126   H     0.59634   0.14934   0.32526   0.00000  Uiso   1.00
H127   H     0.92947   0.91965   0.14513   0.00000  Uiso   1.00
H128   H     0.58898   0.81395   0.63821   0.00000  Uiso   1.00
H129   H     0.47976   0.27199   0.25556   0.00000  Uiso   1.00
O130   O     0.93140   0.81054   0.98751   0.00000  Uiso   1.00
O131   O     0.48469   0.67187   0.63442   0.00000  Uiso   1.00
O132   O     0.34138   0.27281   0.13239   0.00000  Uiso   1.00
N133   N     0.78891   0.79667   0.01228   0.00000  Uiso   1.00
N134   N     0.47059   0.69784   0.47328   0.00000  Uiso   1.00
N135   N     0.36845   0.12606   0.11555   0.00000  Uiso   1.00
N136   N     0.87526   0.88647   0.11438   0.00000  Uiso   1.00
N137   N     0.55694   0.78764   0.57538   0.00000  Uiso   1.00
N138   N     0.45481   0.21587   0.21765   0.00000  Uiso   1.00
C139   C     0.80474   0.46738   0.14275   0.00000  Uiso   1.00
C140   C     0.82904   0.37347   0.13809   0.00000  Uiso   1.00
C141   C     0.89776   0.34405   0.19134   0.00000  Uiso   1.00
C142   C     0.90915   0.25570   0.17672   0.00000  Uiso   1.00
C143   C     0.95527   0.11851   0.17949   0.00000  Uiso   1.00
C144   C     0.71368   0.46475   0.16712   0.00000  Uiso   1.00
C145   C     0.68542   0.51210   0.24479   0.00000  Uiso   1.00
C146   C     0.59970   0.50060   0.25459   0.00000  Uiso   1.00
C147   C     0.46672   0.50518   0.30240   0.00000  Uiso   1.00
C148   C     0.80162   0.49224   0.04033   0.00000  Uiso   1.00
C149   C     0.84728   0.56271   0.01139   0.00000  Uiso   1.00
C150   C     0.83557   0.57436   0.91444   0.00000  Uiso   1.00
C151   C     0.83913   0.62161   0.76539   0.00000  Uiso   1.00
C152   C     0.70276   0.36278   0.02206   0.00000  Uiso   1.00
C153   C     0.77364   0.31665   0.07253   0.00000  Uiso   1.00
C154   C     0.78493   0.22832   0.05782   0.00000  Uiso   1.00
C155   C     0.85366   0.19878   0.11104   0.00000  Uiso   1.00
C156   C     0.65829   0.40794   0.10157   0.00000  Uiso   1.00
C157   C     0.57259   0.39637   0.11126   0.00000  Uiso   1.00
C158   C     0.54420   0.44368   0.18892   0.00000  Uiso   1.00
C159   C     0.74623   0.43542   0.97477   0.00000  Uiso   1.00
C160   C     0.73445   0.44697   0.87786   0.00000  Uiso   1.00
C161   C     0.78008   0.51744   0.84877   0.00000  Uiso   1.00
H162   H     0.84786   0.51162   0.19378   0.00000  Uiso   1.00
H163   H     0.94061   0.38804   0.24208   0.00000  Uiso   1.00
H164   H     0.72830   0.55607   0.29550   0.00000  Uiso   1.00
H165   H     0.89014   0.60666   0.06214   0.00000  Uiso   1.00
H166   H     0.01899   0.22597   0.26673   0.00000  Uiso   1.00
H167   H     0.57132   0.58029   0.37936   0.00000  Uiso   1.00
H168   H     0.91257   0.68698   0.88727   0.00000  Uiso   1.00
H169   H     0.65963   0.31855   0.97102   0.00000  Uiso   1.00
H170   H     0.74205   0.18437   0.00708   0.00000  Uiso   1.00
H171   H     0.52974   0.35240   0.06051   0.00000  Uiso   1.00
H172   H     0.69157   0.40299   0.82715   0.00000  Uiso   1.00
H173   H     0.85783   0.06066   0.07601   0.00000  Uiso   1.00
H174   H     0.41015   0.41499   0.18864   0.00000  Uiso   1.00
H175   H     0.75141   0.52167   0.69654   0.00000  Uiso   1.00
O176   O     0.99601   0.05853   0.19914   0.00000  Uiso   1.00
O177   O     0.40868   0.52340   0.34689   0.00000  Uiso   1.00
O178   O     0.85640   0.66336   0.70128   0.00000  Uiso   1.00
N179   N     0.96976   0.20548   0.21688   0.00000  Uiso   1.00
N180   N     0.55121   0.53674   0.32219   0.00000  Uiso   1.00
N181   N     0.87025   0.63650   0.86213   0.00000  Uiso   1.00
N182   N     0.88304   0.11653   0.11425   0.00000  Uiso   1.00
N183   N     0.46449   0.44779   0.21956   0.00000  Uiso   1.00
N184   N     0.78353   0.54755   0.75950   0.00000  Uiso   1.00
C185   C     0.13210   0.80469   0.47792   0.00000  Uiso   1.00
C186   C     0.12845   0.82903   0.37527   0.00000  Uiso   1.00
C187   C     0.17395   0.89923   0.34561   0.00000  Uiso   1.00
C188   C     0.16179   0.91039   0.24856   0.00000  Uiso   1.00
C189   C     0.16462   0.95682   0.09904   0.00000  Uiso   1.00
C190   C     0.15636   0.71078   0.47362   0.00000  Uiso   1.00
C191   C     0.22533   0.68156   0.52666   0.00000  Uiso   1.00
C192   C     0.23665   0.59317   0.51241   0.00000  Uiso   1.00
C193   C     0.28279   0.45601   0.51563   0.00000  Uiso   1.00
C194   C     0.04123   0.80229   0.50292   0.00000  Uiso   1.00
C195   C     0.01339   0.84999   0.58062   0.00000  Uiso   1.00
C196   C     0.92778   0.83863   0.59105   0.00000  Uiso   1.00
C197   C     0.79516   0.84355   0.63976   0.00000  Uiso   1.00
C198   C     0.02957   0.69966   0.35831   0.00000  Uiso   1.00
C199   C     0.07276   0.77197   0.31030   0.00000  Uiso   1.00
C200   C     0.06052   0.78302   0.21327   0.00000  Uiso   1.00
C201   C     0.10600   0.85324   0.18348   0.00000  Uiso   1.00
C202   C     0.10068   0.65373   0.40865   0.00000  Uiso   1.00
C203   C     0.11190   0.56535   0.39432   0.00000  Uiso   1.00
C204   C     0.18086   0.53601   0.44733   0.00000  Uiso   1.00
C205   C     0.98554   0.74524   0.43795   0.00000  Uiso   1.00
C206   C     0.89996   0.73379   0.44827   0.00000  Uiso   1.00
C207   C     0.87199   0.78147   0.52597   0.00000  Uiso   1.00
H208   H     0.17546   0.84910   0.52851   0.00000  Uiso   1.00
H209   H     0.21705   0.94337   0.39591   0.00000  Uiso   1.00
H210   H     0.26841   0.72573   0.57694   0.00000  Uiso   1.00
H211   H     0.05651   0.89414   0.63087   0.00000  Uiso   1.00
H212   H     0.23863   0.02269   0.22024   0.00000  Uiso   1.00
H213   H     0.34691   0.56379   0.60197   0.00000  Uiso   1.00
H214   H     0.90007   0.91891   0.71572   0.00000  Uiso   1.00
H215   H     0.98621   0.65524   0.30773   0.00000  Uiso   1.00
H216   H     0.01742   0.73886   0.16302   0.00000  Uiso   1.00
H217   H     0.06878   0.52122   0.34405   0.00000  Uiso   1.00
H218   H     0.85688   0.68963   0.39799   0.00000  Uiso   1.00
H219   H     0.07661   0.85671   0.03122   0.00000  Uiso   1.00
H220   H     0.18488   0.39780   0.41295   0.00000  Uiso   1.00
H221   H     0.73805   0.75292   0.52670   0.00000  Uiso   1.00
O222   O     0.18158   0.99819   0.03451   0.00000  Uiso   1.00
O223   O     0.32363   0.39612   0.53534   0.00000  Uiso   1.00
O224   O     0.73739   0.86204   0.68457   0.00000  Uiso   1.00
N225   N     0.19620   0.97216   0.19562   0.00000  Uiso   1.00
N226   N     0.29744   0.54311   0.55251   0.00000  Uiso   1.00
N227   N     0.87969   0.87510   0.65886   0.00000  Uiso   1.00
N228   N     0.10902   0.88285   0.09391   0.00000  Uiso   1.00
N229   N     0.21026   0.45380   0.45079   0.00000  Uiso   1.00
N230   N     0.79251   0.78579   0.55715   0.00000  Uiso   1.00
C231   C     0.46493   0.13436   0.80866   0.00000  Uiso   1.00
C232   C     0.37387   0.13141   0.83307   0.00000  Uiso   1.00
C233   C     0.34541   0.17896   0.91045   0.00000  Uiso   1.00
C234   C     0.25973   0.16712   0.92033   0.00000  Uiso   1.00
C235   C     0.12673   0.17130   0.96812   0.00000  Uiso   1.00
C236   C     0.46160   0.15866   0.70601   0.00000  Uiso   1.00
C237   C     0.50690   0.22912   0.67657   0.00000  Uiso   1.00
C238   C     0.49507   0.24020   0.57949   0.00000  Uiso   1.00
C239   C     0.49830   0.28665   0.43001   0.00000  Uiso   1.00
C240   C     0.48974   0.04064   0.80461   0.00000  Uiso   1.00
C241   C     0.55871   0.01187   0.85806   0.00000  Uiso   1.00
C242   C     0.57059   0.92359   0.84397   0.00000  Uiso   1.00
C243   C     0.61751   0.78680   0.84759   0.00000  Uiso   1.00
C244   C     0.36338   0.02875   0.68858   0.00000  Uiso   1.00
C245   C     0.31872   0.07405   0.76784   0.00000  Uiso   1.00
C246   C     0.23306   0.06212   0.77760   0.00000  Uiso   1.00
C247   C     0.20448   0.10965   0.85499   0.00000  Uiso   1.00
C248   C     0.40644   0.10130   0.64079   0.00000  Uiso   1.00
C249   C     0.39455   0.11228   0.54372   0.00000  Uiso   1.00
C250   C     0.43981   0.18274   0.51415   0.00000  Uiso   1.00
C251   C     0.43458   0.98328   0.73939   0.00000  Uiso   1.00
C252   C     0.44635   0.89503   0.72521   0.00000  Uiso   1.00
C253   C     0.51533   0.86612   0.77863   0.00000  Uiso   1.00
H254   H     0.50788   0.17902   0.85943   0.00000  Uiso   1.00
H255   H     0.38812   0.22336   0.96091   0.00000  Uiso   1.00
H256   H     0.54958   0.27349   0.72706   0.00000  Uiso   1.00
H257   H     0.60138   0.05628   0.90852   0.00000  Uiso   1.00
H258   H     0.23101   0.24723   0.04463   0.00000  Uiso   1.00
H259   H     0.57150   0.35294   0.55154   0.00000  Uiso   1.00
H260   H     0.68073   0.89489   0.93420   0.00000  Uiso   1.00
H261   H     0.32044   0.98409   0.63780   0.00000  Uiso   1.00
H262   H     0.19039   0.01773   0.72712   0.00000  Uiso   1.00
H263   H     0.35186   0.06787   0.49327   0.00000  Uiso   1.00
H264   H     0.40366   0.85066   0.67474   0.00000  Uiso   1.00
H265   H     0.07053   0.08035   0.85487   0.00000  Uiso   1.00
H266   H     0.41102   0.18605   0.36179   0.00000  Uiso   1.00
H267   H     0.52024   0.72801   0.74444   0.00000  Uiso   1.00
O268   O     0.06860   0.18946   0.01249   0.00000  Uiso   1.00
O269   O     0.51531   0.32813   0.36558   0.00000  Uiso   1.00
O270   O     0.65862   0.72719   0.86761   0.00000  Uiso   1.00
N271   N     0.21109   0.20333   0.98772   0.00000  Uiso   1.00
N272   N     0.52941   0.30217   0.52672   0.00000  Uiso   1.00
N273   N     0.63155   0.87394   0.88445   0.00000  Uiso   1.00
N274   N     0.12474   0.11353   0.88562   0.00000  Uiso   1.00
N275   N     0.44306   0.21236   0.42462   0.00000  Uiso   1.00
N276   N     0.54519   0.78413   0.78235   0.00000  Uiso   1.00
