data_job_01861
_audit_creation_date              2018-12-19
_audit_creation_method            'Materials Studio'
_symmetry_space_group_name_H-M    'P1'
_symmetry_Int_Tables_number       1
_symmetry_cell_setting            triclinic
loop_
_symmetry_equiv_pos_as_xyz
  x,y,z
_cell_length_a                    16.7652
_cell_length_b                    17.2694
_cell_length_c                    15.7320
_cell_angle_alpha                 90.0000
_cell_angle_beta                  90.0000
_cell_angle_gamma                 90.0000
loop_
_atom_site_label
_atom_site_type_symbol
_atom_site_fract_x
_atom_site_fract_y
_atom_site_fract_z
_atom_site_U_iso_or_equiv
_atom_site_adp_type
_atom_site_occupancy
C1     C     0.03774   0.64294   0.05041   0.00000  Uiso   1.00
C2     C     0.05024   0.71819   0.09934   0.00000  Uiso   1.00
C3     C     0.09335   0.72616   0.17414   0.00000  Uiso   1.00
C4     C     0.09774   0.79987   0.20904   0.00000  Uiso   1.00
C5     C     0.12280   0.90707   0.29091   0.00000  Uiso   1.00
C6     C     0.94770   0.63259   0.04266   0.00000  Uiso   1.00
C7     C     0.90462   0.56857   0.06978   0.00000  Uiso   1.00
C8     C     0.82270   0.57023   0.05696   0.00000  Uiso   1.00
C9     C     0.68858   0.54450   0.05077   0.00000  Uiso   1.00
C10    C     0.06808   0.65805   0.96055   0.00000  Uiso   1.00
C11    C     0.12620   0.61544   0.91862   0.00000  Uiso   1.00
C12    C     0.14562   0.63852   0.83665   0.00000  Uiso   1.00
C13    C     0.19841   0.65232   0.70298   0.00000  Uiso   1.00
C14    C     0.96887   0.75970   0.97938   0.00000  Uiso   1.00
C15    C     0.01282   0.78161   0.06076   0.00000  Uiso   1.00
C16    C     0.01716   0.85534   0.09556   0.00000  Uiso   1.00
C17    C     0.06027   0.86341   0.17039   0.00000  Uiso   1.00
C18    C     0.91030   0.69601   0.00408   0.00000  Uiso   1.00
C19    C     0.82842   0.69776   0.99120   0.00000  Uiso   1.00
C20    C     0.78522   0.63376   0.01831   0.00000  Uiso   1.00
C21    C     0.03068   0.72148   0.92197   0.00000  Uiso   1.00
C22    C     0.05001   0.74463   0.84005   0.00000  Uiso   1.00
C23    C     0.10814   0.70205   0.79801   0.00000  Uiso   1.00
H24    H     0.06686   0.59356   0.08044   0.00000  Uiso   1.00
H25    H     0.12228   0.67706   0.20398   0.00000  Uiso   1.00
H26    H     0.93358   0.51950   0.09963   0.00000  Uiso   1.00
H27    H     0.15513   0.56636   0.94850   0.00000  Uiso   1.00
H28    H     0.16721   0.79759   0.32394   0.00000  Uiso   1.00
H29    H     0.76933   0.46536   0.10390   0.00000  Uiso   1.00
H30    H     0.23651   0.56417   0.78520   0.00000  Uiso   1.00
H31    H     0.93975   0.80908   0.94935   0.00000  Uiso   1.00
H32    H     0.98820   0.90441   0.06569   0.00000  Uiso   1.00
H33    H     0.79950   0.74685   0.96134   0.00000  Uiso   1.00
H34    H     0.02105   0.79371   0.81021   0.00000  Uiso   1.00
H35    H     0.05838   0.98212   0.21170   0.00000  Uiso   1.00
H36    H     0.66050   0.64988   0.99166   0.00000  Uiso   1.00
H37    H     0.12768   0.74869   0.67296   0.00000  Uiso   1.00
O38    O     0.14694   0.94867   0.34674   0.00000  Uiso   1.00
O39    O     0.62494   0.51278   0.05803   0.00000  Uiso   1.00
O40    O     0.23787   0.64243   0.63992   0.00000  Uiso   1.00
N41    N     0.13496   0.82794   0.28155   0.00000  Uiso   1.00
N42    N     0.76296   0.51733   0.07583   0.00000  Uiso   1.00
N43    N     0.19972   0.60970   0.77787   0.00000  Uiso   1.00
N44    N     0.07640   0.92723   0.22116   0.00000  Uiso   1.00
N45    N     0.70440   0.61662   0.01544   0.00000  Uiso   1.00
N46    N     0.14116   0.70899   0.71748   0.00000  Uiso   1.00
C47    C     0.03774   0.14294   0.55041   0.00000  Uiso   1.00
C48    C     0.05024   0.21819   0.59934   0.00000  Uiso   1.00
C49    C     0.09335   0.22616   0.67414   0.00000  Uiso   1.00
C50    C     0.09774   0.29987   0.70904   0.00000  Uiso   1.00
C51    C     0.12280   0.40707   0.79091   0.00000  Uiso   1.00
C52    C     0.94770   0.13259   0.54266   0.00000  Uiso   1.00
C53    C     0.90462   0.06857   0.56978   0.00000  Uiso   1.00
C54    C     0.82270   0.07023   0.55696   0.00000  Uiso   1.00
C55    C     0.68858   0.04450   0.55077   0.00000  Uiso   1.00
C56    C     0.06808   0.15805   0.46055   0.00000  Uiso   1.00
C57    C     0.12620   0.11544   0.41862   0.00000  Uiso   1.00
C58    C     0.14562   0.13852   0.33665   0.00000  Uiso   1.00
C59    C     0.19841   0.15232   0.20298   0.00000  Uiso   1.00
C60    C     0.96887   0.25970   0.47938   0.00000  Uiso   1.00
C61    C     0.01282   0.28161   0.56076   0.00000  Uiso   1.00
C62    C     0.01716   0.35534   0.59556   0.00000  Uiso   1.00
C63    C     0.06027   0.36341   0.67039   0.00000  Uiso   1.00
C64    C     0.91030   0.19601   0.50408   0.00000  Uiso   1.00
C65    C     0.82842   0.19776   0.49120   0.00000  Uiso   1.00
C66    C     0.78522   0.13376   0.51831   0.00000  Uiso   1.00
C67    C     0.03068   0.22148   0.42197   0.00000  Uiso   1.00
C68    C     0.05001   0.24463   0.34005   0.00000  Uiso   1.00
C69    C     0.10814   0.20205   0.29801   0.00000  Uiso   1.00
H70    H     0.06686   0.09356   0.58044   0.00000  Uiso   1.00
H71    H     0.12228   0.17706   0.70398   0.00000  Uiso   1.00
H72    H     0.93358   0.01950   0.59963   0.00000  Uiso   1.00
H73    H     0.15513   0.06636   0.44850   0.00000  Uiso   1.00
H74    H     0.16721   0.29759   0.82394   0.00000  Uiso   1.00
H75    H     0.76933   0.96536   0.60390   0.00000  Uiso   1.00
H76    H     0.23651   0.06417   0.28520   0.00000  Uiso   1.00
H77    H     0.93975   0.30908   0.44935   0.00000  Uiso   1.00
H78    H     0.98820   0.40441   0.56569   0.00000  Uiso   1.00
H79    H     0.79950   0.24685   0.46134   0.00000  Uiso   1.00
H80    H     0.02105   0.29371   0.31021   0.00000  Uiso   1.00
H81    H     0.05838   0.48212   0.71170   0.00000  Uiso   1.00
H82    H     0.66050   0.14988   0.49166   0.00000  Uiso   1.00
H83    H     0.12768   0.24869   0.17296   0.00000  Uiso   1.00
O84    O     0.14694   0.44867   0.84674   0.00000  Uiso   1.00
O85    O     0.62494   0.01278   0.55803   0.00000  Uiso   1.00
O86    O     0.23787   0.14243   0.13992   0.00000  Uiso   1.00
N87    N     0.13496   0.32794   0.78155   0.00000  Uiso   1.00
N88    N     0.76296   0.01733   0.57583   0.00000  Uiso   1.00
N89    N     0.19972   0.10970   0.27787   0.00000  Uiso   1.00
N90    N     0.07640   0.42723   0.72116   0.00000  Uiso   1.00
N91    N     0.70440   0.11662   0.51544   0.00000  Uiso   1.00
N92    N     0.14116   0.20899   0.21748   0.00000  Uiso   1.00
C93    C     0.96226   0.35706   0.05041   0.00000  Uiso   1.00
C94    C     0.94976   0.28181   0.09934   0.00000  Uiso   1.00
C95    C     0.90665   0.27384   0.17414   0.00000  Uiso   1.00
C96    C     0.90226   0.20013   0.20904   0.00000  Uiso   1.00
C97    C     0.87720   0.09293   0.29091   0.00000  Uiso   1.00
C98    C     0.05230   0.36741   0.04266   0.00000  Uiso   1.00
C99    C     0.09538   0.43143   0.06978   0.00000  Uiso   1.00
C100   C     0.17730   0.42977   0.05696   0.00000  Uiso   1.00
C101   C     0.31142   0.45550   0.05077   0.00000  Uiso   1.00
C102   C     0.93192   0.34195   0.96055   0.00000  Uiso   1.00
C103   C     0.87380   0.38456   0.91862   0.00000  Uiso   1.00
C104   C     0.85438   0.36148   0.83665   0.00000  Uiso   1.00
C105   C     0.80159   0.34768   0.70298   0.00000  Uiso   1.00
C106   C     0.03113   0.24030   0.97938   0.00000  Uiso   1.00
C107   C     0.98718   0.21839   0.06076   0.00000  Uiso   1.00
C108   C     0.98284   0.14466   0.09556   0.00000  Uiso   1.00
C109   C     0.93973   0.13659   0.17039   0.00000  Uiso   1.00
C110   C     0.08970   0.30399   0.00408   0.00000  Uiso   1.00
C111   C     0.17158   0.30224   0.99120   0.00000  Uiso   1.00
C112   C     0.21478   0.36624   0.01831   0.00000  Uiso   1.00
C113   C     0.96932   0.27852   0.92197   0.00000  Uiso   1.00
C114   C     0.94999   0.25537   0.84005   0.00000  Uiso   1.00
C115   C     0.89186   0.29795   0.79801   0.00000  Uiso   1.00
H116   H     0.93314   0.40644   0.08044   0.00000  Uiso   1.00
H117   H     0.87772   0.32294   0.20398   0.00000  Uiso   1.00
H118   H     0.06642   0.48050   0.09963   0.00000  Uiso   1.00
H119   H     0.84487   0.43364   0.94850   0.00000  Uiso   1.00
H120   H     0.83279   0.20241   0.32394   0.00000  Uiso   1.00
H121   H     0.23067   0.53464   0.10390   0.00000  Uiso   1.00
H122   H     0.76349   0.43583   0.78520   0.00000  Uiso   1.00
H123   H     0.06025   0.19092   0.94935   0.00000  Uiso   1.00
H124   H     0.01180   0.09559   0.06569   0.00000  Uiso   1.00
H125   H     0.20050   0.25315   0.96134   0.00000  Uiso   1.00
H126   H     0.97895   0.20629   0.81021   0.00000  Uiso   1.00
H127   H     0.94162   0.01788   0.21170   0.00000  Uiso   1.00
H128   H     0.33950   0.35012   0.99166   0.00000  Uiso   1.00
H129   H     0.87232   0.25131   0.67296   0.00000  Uiso   1.00
O130   O     0.85306   0.05133   0.34674   0.00000  Uiso   1.00
O131   O     0.37506   0.48722   0.05803   0.00000  Uiso   1.00
O132   O     0.76213   0.35757   0.63992   0.00000  Uiso   1.00
N133   N     0.86504   0.17206   0.28155   0.00000  Uiso   1.00
N134   N     0.23704   0.48267   0.07583   0.00000  Uiso   1.00
N135   N     0.80028   0.39030   0.77787   0.00000  Uiso   1.00
N136   N     0.92360   0.07277   0.22116   0.00000  Uiso   1.00
N137   N     0.29560   0.38338   0.01544   0.00000  Uiso   1.00
N138   N     0.85884   0.29101   0.71748   0.00000  Uiso   1.00
C139   C     0.96226   0.85706   0.55041   0.00000  Uiso   1.00
C140   C     0.94976   0.78181   0.59934   0.00000  Uiso   1.00
C141   C     0.90665   0.77384   0.67414   0.00000  Uiso   1.00
C142   C     0.90226   0.70013   0.70904   0.00000  Uiso   1.00
C143   C     0.87720   0.59293   0.79091   0.00000  Uiso   1.00
C144   C     0.05230   0.86741   0.54266   0.00000  Uiso   1.00
C145   C     0.09538   0.93143   0.56978   0.00000  Uiso   1.00
C146   C     0.17730   0.92977   0.55696   0.00000  Uiso   1.00
C147   C     0.31142   0.95550   0.55077   0.00000  Uiso   1.00
C148   C     0.93192   0.84195   0.46055   0.00000  Uiso   1.00
C149   C     0.87380   0.88456   0.41862   0.00000  Uiso   1.00
C150   C     0.85438   0.86148   0.33665   0.00000  Uiso   1.00
C151   C     0.80159   0.84768   0.20298   0.00000  Uiso   1.00
C152   C     0.03113   0.74030   0.47938   0.00000  Uiso   1.00
C153   C     0.98718   0.71839   0.56076   0.00000  Uiso   1.00
C154   C     0.98284   0.64466   0.59556   0.00000  Uiso   1.00
C155   C     0.93973   0.63659   0.67039   0.00000  Uiso   1.00
C156   C     0.08970   0.80399   0.50408   0.00000  Uiso   1.00
C157   C     0.17158   0.80224   0.49120   0.00000  Uiso   1.00
C158   C     0.21478   0.86624   0.51831   0.00000  Uiso   1.00
C159   C     0.96932   0.77852   0.42197   0.00000  Uiso   1.00
C160   C     0.94999   0.75537   0.34005   0.00000  Uiso   1.00
C161   C     0.89186   0.79795   0.29801   0.00000  Uiso   1.00
H162   H     0.93314   0.90644   0.58044   0.00000  Uiso   1.00
H163   H     0.87772   0.82294   0.70398   0.00000  Uiso   1.00
H164   H     0.06642   0.98050   0.59963   0.00000  Uiso   1.00
H165   H     0.84487   0.93364   0.44850   0.00000  Uiso   1.00
H166   H     0.83279   0.70241   0.82394   0.00000  Uiso   1.00
H167   H     0.23067   0.03464   0.60390   0.00000  Uiso   1.00
H168   H     0.76349   0.93583   0.28520   0.00000  Uiso   1.00
H169   H     0.06025   0.69092   0.44935   0.00000  Uiso   1.00
H170   H     0.01180   0.59559   0.56569   0.00000  Uiso   1.00
H171   H     0.20050   0.75315   0.46134   0.00000  Uiso   1.00
H172   H     0.97895   0.70629   0.31021   0.00000  Uiso   1.00
H173   H     0.94162   0.51788   0.71170   0.00000  Uiso   1.00
H174   H     0.33950   0.85012   0.49166   0.00000  Uiso   1.00
H175   H     0.87232   0.75131   0.17296   0.00000  Uiso   1.00
O176   O     0.85306   0.55133   0.84674   0.00000  Uiso   1.00
O177   O     0.37506   0.98722   0.55803   0.00000  Uiso   1.00
O178   O     0.76213   0.85757   0.13992   0.00000  Uiso   1.00
N179   N     0.86504   0.67206   0.78155   0.00000  Uiso   1.00
N180   N     0.23704   0.98267   0.57583   0.00000  Uiso   1.00
N181   N     0.80028   0.89030   0.27787   0.00000  Uiso   1.00
N182   N     0.92360   0.57277   0.72116   0.00000  Uiso   1.00
N183   N     0.29560   0.88338   0.51544   0.00000  Uiso   1.00
N184   N     0.85884   0.79101   0.21748   0.00000  Uiso   1.00
C185   C     0.53774   0.85706   0.05041   0.00000  Uiso   1.00
C186   C     0.55024   0.78181   0.09934   0.00000  Uiso   1.00
C187   C     0.59335   0.77384   0.17414   0.00000  Uiso   1.00
C188   C     0.59774   0.70013   0.20904   0.00000  Uiso   1.00
C189   C     0.62280   0.59293   0.29091   0.00000  Uiso   1.00
C190   C     0.44770   0.86741   0.04266   0.00000  Uiso   1.00
C191   C     0.40462   0.93143   0.06978   0.00000  Uiso   1.00
C192   C     0.32270   0.92977   0.05696   0.00000  Uiso   1.00
C193   C     0.18858   0.95550   0.05077   0.00000  Uiso   1.00
C194   C     0.56808   0.84195   0.96055   0.00000  Uiso   1.00
C195   C     0.62620   0.88456   0.91862   0.00000  Uiso   1.00
C196   C     0.64562   0.86148   0.83665   0.00000  Uiso   1.00
C197   C     0.69841   0.84768   0.70298   0.00000  Uiso   1.00
C198   C     0.46887   0.74030   0.97938   0.00000  Uiso   1.00
C199   C     0.51282   0.71839   0.06076   0.00000  Uiso   1.00
C200   C     0.51716   0.64466   0.09556   0.00000  Uiso   1.00
C201   C     0.56027   0.63659   0.17039   0.00000  Uiso   1.00
C202   C     0.41030   0.80399   0.00408   0.00000  Uiso   1.00
C203   C     0.32842   0.80224   0.99120   0.00000  Uiso   1.00
C204   C     0.28522   0.86624   0.01831   0.00000  Uiso   1.00
C205   C     0.53068   0.77852   0.92197   0.00000  Uiso   1.00
C206   C     0.55001   0.75537   0.84005   0.00000  Uiso   1.00
C207   C     0.60814   0.79795   0.79801   0.00000  Uiso   1.00
H208   H     0.56686   0.90644   0.08044   0.00000  Uiso   1.00
H209   H     0.62228   0.82294   0.20398   0.00000  Uiso   1.00
H210   H     0.43358   0.98050   0.09963   0.00000  Uiso   1.00
H211   H     0.65513   0.93364   0.94850   0.00000  Uiso   1.00
H212   H     0.66721   0.70241   0.32394   0.00000  Uiso   1.00
H213   H     0.26933   0.03464   0.10390   0.00000  Uiso   1.00
H214   H     0.73651   0.93583   0.78520   0.00000  Uiso   1.00
H215   H     0.43975   0.69092   0.94935   0.00000  Uiso   1.00
H216   H     0.48820   0.59559   0.06569   0.00000  Uiso   1.00
H217   H     0.29950   0.75315   0.96134   0.00000  Uiso   1.00
H218   H     0.52105   0.70629   0.81021   0.00000  Uiso   1.00
H219   H     0.55838   0.51788   0.21170   0.00000  Uiso   1.00
H220   H     0.16050   0.85012   0.99166   0.00000  Uiso   1.00
H221   H     0.62768   0.75131   0.67296   0.00000  Uiso   1.00
O222   O     0.64694   0.55133   0.34674   0.00000  Uiso   1.00
O223   O     0.12494   0.98722   0.05803   0.00000  Uiso   1.00
O224   O     0.73787   0.85757   0.63992   0.00000  Uiso   1.00
N225   N     0.63496   0.67206   0.28155   0.00000  Uiso   1.00
N226   N     0.26296   0.98267   0.07583   0.00000  Uiso   1.00
N227   N     0.69972   0.89030   0.77787   0.00000  Uiso   1.00
N228   N     0.57640   0.57277   0.22116   0.00000  Uiso   1.00
N229   N     0.20440   0.88338   0.01544   0.00000  Uiso   1.00
N230   N     0.64116   0.79101   0.71748   0.00000  Uiso   1.00
C231   C     0.53774   0.35706   0.55041   0.00000  Uiso   1.00
C232   C     0.55024   0.28181   0.59934   0.00000  Uiso   1.00
C233   C     0.59335   0.27384   0.67414   0.00000  Uiso   1.00
C234   C     0.59774   0.20013   0.70904   0.00000  Uiso   1.00
C235   C     0.62280   0.09293   0.79091   0.00000  Uiso   1.00
C236   C     0.44770   0.36741   0.54266   0.00000  Uiso   1.00
C237   C     0.40462   0.43143   0.56978   0.00000  Uiso   1.00
C238   C     0.32270   0.42977   0.55696   0.00000  Uiso   1.00
C239   C     0.18858   0.45550   0.55077   0.00000  Uiso   1.00
C240   C     0.56808   0.34195   0.46055   0.00000  Uiso   1.00
C241   C     0.62620   0.38456   0.41862   0.00000  Uiso   1.00
C242   C     0.64562   0.36148   0.33665   0.00000  Uiso   1.00
C243   C     0.69841   0.34768   0.20298   0.00000  Uiso   1.00
C244   C     0.46887   0.24030   0.47938   0.00000  Uiso   1.00
C245   C     0.51282   0.21839   0.56076   0.00000  Uiso   1.00
C246   C     0.51716   0.14466   0.59556   0.00000  Uiso   1.00
C247   C     0.56027   0.13659   0.67039   0.00000  Uiso   1.00
C248   C     0.41030   0.30399   0.50408   0.00000  Uiso   1.00
C249   C     0.32842   0.30224   0.49120   0.00000  Uiso   1.00
C250   C     0.28522   0.36624   0.51831   0.00000  Uiso   1.00
C251   C     0.53068   0.27852   0.42197   0.00000  Uiso   1.00
C252   C     0.55001   0.25537   0.34005   0.00000  Uiso   1.00
C253   C     0.60814   0.29795   0.29801   0.00000  Uiso   1.00
H254   H     0.56686   0.40644   0.58044   0.00000  Uiso   1.00
H255   H     0.62228   0.32294   0.70398   0.00000  Uiso   1.00
H256   H     0.43358   0.48050   0.59963   0.00000  Uiso   1.00
H257   H     0.65513   0.43364   0.44850   0.00000  Uiso   1.00
H258   H     0.66721   0.20241   0.82394   0.00000  Uiso   1.00
H259   H     0.26933   0.53464   0.60390   0.00000  Uiso   1.00
H260   H     0.73651   0.43583   0.28520   0.00000  Uiso   1.00
H261   H     0.43975   0.19092   0.44935   0.00000  Uiso   1.00
H262   H     0.48820   0.09559   0.56569   0.00000  Uiso   1.00
H263   H     0.29950   0.25315   0.46134   0.00000  Uiso   1.00
H264   H     0.52105   0.20629   0.31021   0.00000  Uiso   1.00
H265   H     0.55838   0.01788   0.71170   0.00000  Uiso   1.00
H266   H     0.16050   0.35012   0.49166   0.00000  Uiso   1.00
H267   H     0.62768   0.25131   0.17296   0.00000  Uiso   1.00
O268   O     0.64694   0.05133   0.84674   0.00000  Uiso   1.00
O269   O     0.12494   0.48722   0.55803   0.00000  Uiso   1.00
O270   O     0.73787   0.35757   0.13992   0.00000  Uiso   1.00
N271   N     0.63496   0.17206   0.78155   0.00000  Uiso   1.00
N272   N     0.26296   0.48267   0.57583   0.00000  Uiso   1.00
N273   N     0.69972   0.39030   0.27787   0.00000  Uiso   1.00
N274   N     0.57640   0.07277   0.72116   0.00000  Uiso   1.00
N275   N     0.20440   0.38338   0.51544   0.00000  Uiso   1.00
N276   N     0.64116   0.29101   0.21748   0.00000  Uiso   1.00
C277   C     0.46226   0.14294   0.05041   0.00000  Uiso   1.00
C278   C     0.44976   0.21819   0.09934   0.00000  Uiso   1.00
C279   C     0.40665   0.22616   0.17414   0.00000  Uiso   1.00
C280   C     0.40226   0.29987   0.20904   0.00000  Uiso   1.00
C281   C     0.37720   0.40707   0.29091   0.00000  Uiso   1.00
C282   C     0.55230   0.13259   0.04266   0.00000  Uiso   1.00
C283   C     0.59538   0.06857   0.06978   0.00000  Uiso   1.00
C284   C     0.67730   0.07023   0.05696   0.00000  Uiso   1.00
C285   C     0.81142   0.04450   0.05077   0.00000  Uiso   1.00
C286   C     0.43192   0.15805   0.96055   0.00000  Uiso   1.00
C287   C     0.37380   0.11544   0.91862   0.00000  Uiso   1.00
C288   C     0.35438   0.13852   0.83665   0.00000  Uiso   1.00
C289   C     0.30159   0.15232   0.70298   0.00000  Uiso   1.00
C290   C     0.53113   0.25970   0.97938   0.00000  Uiso   1.00
C291   C     0.48718   0.28161   0.06076   0.00000  Uiso   1.00
C292   C     0.48284   0.35534   0.09556   0.00000  Uiso   1.00
C293   C     0.43973   0.36341   0.17039   0.00000  Uiso   1.00
C294   C     0.58970   0.19601   0.00408   0.00000  Uiso   1.00
C295   C     0.67158   0.19776   0.99120   0.00000  Uiso   1.00
C296   C     0.71478   0.13376   0.01831   0.00000  Uiso   1.00
C297   C     0.46932   0.22148   0.92197   0.00000  Uiso   1.00
C298   C     0.44999   0.24463   0.84005   0.00000  Uiso   1.00
C299   C     0.39186   0.20205   0.79801   0.00000  Uiso   1.00
H300   H     0.43314   0.09356   0.08044   0.00000  Uiso   1.00
H301   H     0.37772   0.17706   0.20398   0.00000  Uiso   1.00
H302   H     0.56642   0.01950   0.09963   0.00000  Uiso   1.00
H303   H     0.34487   0.06636   0.94850   0.00000  Uiso   1.00
H304   H     0.33279   0.29759   0.32394   0.00000  Uiso   1.00
H305   H     0.73067   0.96536   0.10390   0.00000  Uiso   1.00
H306   H     0.26349   0.06417   0.78520   0.00000  Uiso   1.00
H307   H     0.56025   0.30908   0.94935   0.00000  Uiso   1.00
H308   H     0.51180   0.40441   0.06569   0.00000  Uiso   1.00
H309   H     0.70050   0.24685   0.96134   0.00000  Uiso   1.00
H310   H     0.47895   0.29371   0.81021   0.00000  Uiso   1.00
H311   H     0.44162   0.48212   0.21170   0.00000  Uiso   1.00
H312   H     0.83950   0.14988   0.99166   0.00000  Uiso   1.00
H313   H     0.37232   0.24869   0.67296   0.00000  Uiso   1.00
O314   O     0.35306   0.44867   0.34674   0.00000  Uiso   1.00
O315   O     0.87506   0.01278   0.05803   0.00000  Uiso   1.00
O316   O     0.26213   0.14243   0.63992   0.00000  Uiso   1.00
N317   N     0.36504   0.32794   0.28155   0.00000  Uiso   1.00
N318   N     0.73704   0.01733   0.07583   0.00000  Uiso   1.00
N319   N     0.30028   0.10970   0.77787   0.00000  Uiso   1.00
N320   N     0.42360   0.42723   0.22116   0.00000  Uiso   1.00
N321   N     0.79560   0.11662   0.01544   0.00000  Uiso   1.00
N322   N     0.35884   0.20899   0.71748   0.00000  Uiso   1.00
C323   C     0.46226   0.64294   0.55041   0.00000  Uiso   1.00
C324   C     0.44976   0.71819   0.59934   0.00000  Uiso   1.00
C325   C     0.40665   0.72616   0.67414   0.00000  Uiso   1.00
C326   C     0.40226   0.79987   0.70904   0.00000  Uiso   1.00
C327   C     0.37720   0.90707   0.79091   0.00000  Uiso   1.00
C328   C     0.55230   0.63259   0.54266   0.00000  Uiso   1.00
C329   C     0.59538   0.56857   0.56978   0.00000  Uiso   1.00
C330   C     0.67730   0.57023   0.55696   0.00000  Uiso   1.00
C331   C     0.81142   0.54450   0.55077   0.00000  Uiso   1.00
C332   C     0.43192   0.65805   0.46055   0.00000  Uiso   1.00
C333   C     0.37380   0.61544   0.41862   0.00000  Uiso   1.00
C334   C     0.35438   0.63852   0.33665   0.00000  Uiso   1.00
C335   C     0.30159   0.65232   0.20298   0.00000  Uiso   1.00
C336   C     0.53113   0.75970   0.47938   0.00000  Uiso   1.00
C337   C     0.48718   0.78161   0.56076   0.00000  Uiso   1.00
C338   C     0.48284   0.85534   0.59556   0.00000  Uiso   1.00
C339   C     0.43973   0.86341   0.67039   0.00000  Uiso   1.00
C340   C     0.58970   0.69601   0.50408   0.00000  Uiso   1.00
C341   C     0.67158   0.69776   0.49120   0.00000  Uiso   1.00
C342   C     0.71478   0.63376   0.51831   0.00000  Uiso   1.00
C343   C     0.46932   0.72148   0.42197   0.00000  Uiso   1.00
C344   C     0.44999   0.74463   0.34005   0.00000  Uiso   1.00
C345   C     0.39186   0.70205   0.29801   0.00000  Uiso   1.00
H346   H     0.43314   0.59356   0.58044   0.00000  Uiso   1.00
H347   H     0.37772   0.67706   0.70398   0.00000  Uiso   1.00
H348   H     0.56642   0.51950   0.59963   0.00000  Uiso   1.00
H349   H     0.34487   0.56636   0.44850   0.00000  Uiso   1.00
H350   H     0.33279   0.79759   0.82394   0.00000  Uiso   1.00
H351   H     0.73067   0.46536   0.60390   0.00000  Uiso   1.00
H352   H     0.26349   0.56417   0.28520   0.00000  Uiso   1.00
H353   H     0.56025   0.80908   0.44935   0.00000  Uiso   1.00
H354   H     0.51180   0.90441   0.56569   0.00000  Uiso   1.00
H355   H     0.70050   0.74685   0.46134   0.00000  Uiso   1.00
H356   H     0.47895   0.79371   0.31021   0.00000  Uiso   1.00
H357   H     0.44162   0.98212   0.71170   0.00000  Uiso   1.00
H358   H     0.83950   0.64988   0.49166   0.00000  Uiso   1.00
H359   H     0.37232   0.74869   0.17296   0.00000  Uiso   1.00
O360   O     0.35306   0.94867   0.84674   0.00000  Uiso   1.00
O361   O     0.87506   0.51278   0.55803   0.00000  Uiso   1.00
O362   O     0.26213   0.64243   0.13992   0.00000  Uiso   1.00
N363   N     0.36504   0.82794   0.78155   0.00000  Uiso   1.00
N364   N     0.73704   0.51733   0.57583   0.00000  Uiso   1.00
N365   N     0.30028   0.60970   0.27787   0.00000  Uiso   1.00
N366   N     0.42360   0.92723   0.72116   0.00000  Uiso   1.00
N367   N     0.79560   0.61662   0.51544   0.00000  Uiso   1.00
N368   N     0.35884   0.70899   0.21748   0.00000  Uiso   1.00
