data_job_02004
_audit_creation_date              2018-12-19
_audit_creation_method            'Materials Studio'
_symmetry_space_group_name_H-M    'P1'
_symmetry_Int_Tables_number       1
_symmetry_cell_setting            triclinic
loop_
_symmetry_equiv_pos_as_xyz
  x,y,z
_cell_length_a                    20.0748
_cell_length_b                    23.1730
_cell_length_c                    10.4591
_cell_angle_alpha                 90.0000
_cell_angle_beta                  90.0000
_cell_angle_gamma                 90.0000
loop_
_atom_site_label
_atom_site_type_symbol
_atom_site_fract_x
_atom_site_fract_y
_atom_site_fract_z
_atom_site_U_iso_or_equiv
_atom_site_adp_type
_atom_site_occupancy
C1     C     0.16057   0.58865   0.00619   0.00000  Uiso   1.00
C2     C     0.09333   0.60734   0.95249   0.00000  Uiso   1.00
C3     C     0.05930   0.58059   0.85336   0.00000  Uiso   1.00
C4     C     0.99847   0.60429   0.81825   0.00000  Uiso   1.00
C5     C     0.89800   0.62593   0.72541   0.00000  Uiso   1.00
C6     C     0.20608   0.64111   0.99526   0.00000  Uiso   1.00
C7     C     0.26685   0.64274   0.93210   0.00000  Uiso   1.00
C8     C     0.30094   0.69488   0.93302   0.00000  Uiso   1.00
C9     C     0.37553   0.76892   0.90665   0.00000  Uiso   1.00
C10    C     0.14976   0.57895   0.14889   0.00000  Uiso   1.00
C11    C     0.16319   0.52832   0.21493   0.00000  Uiso   1.00
C12    C     0.14988   0.52813   0.34520   0.00000  Uiso   1.00
C13    C     0.13703   0.50566   0.55738   0.00000  Uiso   1.00
C14    C     0.11306   0.67832   0.12012   0.00000  Uiso   1.00
C15    C     0.06752   0.65605   0.01437   0.00000  Uiso   1.00
C16    C     0.00673   0.67980   0.97941   0.00000  Uiso   1.00
C17    C     0.97262   0.65308   0.88025   0.00000  Uiso   1.00
C18    C     0.18027   0.68982   0.05714   0.00000  Uiso   1.00
C19    C     0.21428   0.74196   0.05815   0.00000  Uiso   1.00
C20    C     0.27508   0.74367   0.99501   0.00000  Uiso   1.00
C21    C     0.12395   0.62766   0.21078   0.00000  Uiso   1.00
C22    C     0.11062   0.62754   0.34097   0.00000  Uiso   1.00
C23    C     0.12403   0.57692   0.40719   0.00000  Uiso   1.00
H24    H     0.18067   0.55073   0.95802   0.00000  Uiso   1.00
H25    H     0.07929   0.54290   0.80549   0.00000  Uiso   1.00
H26    H     0.28681   0.60504   0.88424   0.00000  Uiso   1.00
H27    H     0.18316   0.49064   0.16701   0.00000  Uiso   1.00
H28    H     0.95553   0.55571   0.66365   0.00000  Uiso   1.00
H29    H     0.39310   0.68674   0.82972   0.00000  Uiso   1.00
H30    H     0.17455   0.44550   0.42601   0.00000  Uiso   1.00
H31    H     0.09297   0.71624   0.16830   0.00000  Uiso   1.00
H32    H     0.98677   0.71749   0.02731   0.00000  Uiso   1.00
H33    H     0.19429   0.77964   0.10605   0.00000  Uiso   1.00
H34    H     0.09065   0.66524   0.38883   0.00000  Uiso   1.00
H35    H     0.88043   0.69742   0.84368   0.00000  Uiso   1.00
H36    H     0.31801   0.82845   0.00976   0.00000  Uiso   1.00
H37    H     0.09946   0.58721   0.60604   0.00000  Uiso   1.00
O38    O     0.84971   0.62441   0.65710   0.00000  Uiso   1.00
O39    O     0.42380   0.79631   0.87500   0.00000  Uiso   1.00
O40    O     0.13706   0.47981   0.65731   0.00000  Uiso   1.00
N41    N     0.95242   0.58888   0.72538   0.00000  Uiso   1.00
N42    N     0.36152   0.71139   0.88063   0.00000  Uiso   1.00
N43    N     0.15721   0.48585   0.43812   0.00000  Uiso   1.00
N44    N     0.91201   0.66513   0.82226   0.00000  Uiso   1.00
N45    N     0.32112   0.78764   0.97751   0.00000  Uiso   1.00
N46    N     0.11681   0.56211   0.53500   0.00000  Uiso   1.00
C47    C     0.33943   0.41135   0.00619   0.00000  Uiso   1.00
C48    C     0.40667   0.39266   0.95249   0.00000  Uiso   1.00
C49    C     0.44070   0.41941   0.85336   0.00000  Uiso   1.00
C50    C     0.50153   0.39571   0.81825   0.00000  Uiso   1.00
C51    C     0.60200   0.37407   0.72541   0.00000  Uiso   1.00
C52    C     0.29392   0.35889   0.99526   0.00000  Uiso   1.00
C53    C     0.23315   0.35726   0.93210   0.00000  Uiso   1.00
C54    C     0.19906   0.30512   0.93302   0.00000  Uiso   1.00
C55    C     0.12447   0.23108   0.90665   0.00000  Uiso   1.00
C56    C     0.35024   0.42105   0.14889   0.00000  Uiso   1.00
C57    C     0.33681   0.47168   0.21493   0.00000  Uiso   1.00
C58    C     0.35012   0.47187   0.34520   0.00000  Uiso   1.00
C59    C     0.36297   0.49434   0.55738   0.00000  Uiso   1.00
C60    C     0.38694   0.32168   0.12012   0.00000  Uiso   1.00
C61    C     0.43248   0.34395   0.01437   0.00000  Uiso   1.00
C62    C     0.49327   0.32020   0.97941   0.00000  Uiso   1.00
C63    C     0.52738   0.34692   0.88025   0.00000  Uiso   1.00
C64    C     0.31973   0.31018   0.05714   0.00000  Uiso   1.00
C65    C     0.28572   0.25804   0.05815   0.00000  Uiso   1.00
C66    C     0.22492   0.25633   0.99501   0.00000  Uiso   1.00
C67    C     0.37605   0.37234   0.21078   0.00000  Uiso   1.00
C68    C     0.38938   0.37246   0.34097   0.00000  Uiso   1.00
C69    C     0.37597   0.42308   0.40719   0.00000  Uiso   1.00
H70    H     0.31933   0.44927   0.95802   0.00000  Uiso   1.00
H71    H     0.42071   0.45710   0.80549   0.00000  Uiso   1.00
H72    H     0.21319   0.39496   0.88424   0.00000  Uiso   1.00
H73    H     0.31684   0.50936   0.16701   0.00000  Uiso   1.00
H74    H     0.54447   0.44429   0.66365   0.00000  Uiso   1.00
H75    H     0.10690   0.31326   0.82972   0.00000  Uiso   1.00
H76    H     0.32545   0.55450   0.42601   0.00000  Uiso   1.00
H77    H     0.40703   0.28376   0.16830   0.00000  Uiso   1.00
H78    H     0.51323   0.28251   0.02731   0.00000  Uiso   1.00
H79    H     0.30571   0.22036   0.10605   0.00000  Uiso   1.00
H80    H     0.40935   0.33476   0.38883   0.00000  Uiso   1.00
H81    H     0.61957   0.30258   0.84368   0.00000  Uiso   1.00
H82    H     0.18199   0.17155   0.00976   0.00000  Uiso   1.00
H83    H     0.40054   0.41279   0.60604   0.00000  Uiso   1.00
O84    O     0.65029   0.37559   0.65710   0.00000  Uiso   1.00
O85    O     0.07620   0.20369   0.87500   0.00000  Uiso   1.00
O86    O     0.36294   0.52019   0.65731   0.00000  Uiso   1.00
N87    N     0.54758   0.41112   0.72538   0.00000  Uiso   1.00
N88    N     0.13848   0.28861   0.88063   0.00000  Uiso   1.00
N89    N     0.34279   0.51415   0.43812   0.00000  Uiso   1.00
N90    N     0.58799   0.33487   0.82226   0.00000  Uiso   1.00
N91    N     0.17888   0.21236   0.97751   0.00000  Uiso   1.00
N92    N     0.38319   0.43789   0.53500   0.00000  Uiso   1.00
C93    C     0.33943   0.08865   0.49381   0.00000  Uiso   1.00
C94    C     0.40667   0.10734   0.54751   0.00000  Uiso   1.00
C95    C     0.44070   0.08059   0.64664   0.00000  Uiso   1.00
C96    C     0.50153   0.10429   0.68175   0.00000  Uiso   1.00
C97    C     0.60200   0.12593   0.77459   0.00000  Uiso   1.00
C98    C     0.29392   0.14111   0.50474   0.00000  Uiso   1.00
C99    C     0.23315   0.14274   0.56790   0.00000  Uiso   1.00
C100   C     0.19906   0.19488   0.56698   0.00000  Uiso   1.00
C101   C     0.12447   0.26892   0.59335   0.00000  Uiso   1.00
C102   C     0.35024   0.07895   0.35111   0.00000  Uiso   1.00
C103   C     0.33681   0.02832   0.28507   0.00000  Uiso   1.00
C104   C     0.35012   0.02813   0.15480   0.00000  Uiso   1.00
C105   C     0.36297   0.00566   0.94262   0.00000  Uiso   1.00
C106   C     0.38694   0.17832   0.37988   0.00000  Uiso   1.00
C107   C     0.43248   0.15605   0.48563   0.00000  Uiso   1.00
C108   C     0.49327   0.17980   0.52059   0.00000  Uiso   1.00
C109   C     0.52738   0.15308   0.61975   0.00000  Uiso   1.00
C110   C     0.31973   0.18982   0.44286   0.00000  Uiso   1.00
C111   C     0.28572   0.24196   0.44185   0.00000  Uiso   1.00
C112   C     0.22492   0.24367   0.50499   0.00000  Uiso   1.00
C113   C     0.37605   0.12766   0.28922   0.00000  Uiso   1.00
C114   C     0.38938   0.12754   0.15903   0.00000  Uiso   1.00
C115   C     0.37597   0.07692   0.09281   0.00000  Uiso   1.00
H116   H     0.31933   0.05073   0.54198   0.00000  Uiso   1.00
H117   H     0.42071   0.04290   0.69451   0.00000  Uiso   1.00
H118   H     0.21319   0.10504   0.61576   0.00000  Uiso   1.00
H119   H     0.31684   0.99064   0.33299   0.00000  Uiso   1.00
H120   H     0.54447   0.05571   0.83635   0.00000  Uiso   1.00
H121   H     0.10690   0.18674   0.67028   0.00000  Uiso   1.00
H122   H     0.32545   0.94550   0.07399   0.00000  Uiso   1.00
H123   H     0.40703   0.21624   0.33170   0.00000  Uiso   1.00
H124   H     0.51323   0.21749   0.47269   0.00000  Uiso   1.00
H125   H     0.30571   0.27964   0.39395   0.00000  Uiso   1.00
H126   H     0.40935   0.16524   0.11117   0.00000  Uiso   1.00
H127   H     0.61957   0.19742   0.65632   0.00000  Uiso   1.00
H128   H     0.18199   0.32845   0.49024   0.00000  Uiso   1.00
H129   H     0.40054   0.08721   0.89396   0.00000  Uiso   1.00
O130   O     0.65029   0.12441   0.84290   0.00000  Uiso   1.00
O131   O     0.07620   0.29631   0.62500   0.00000  Uiso   1.00
O132   O     0.36294   0.97981   0.84269   0.00000  Uiso   1.00
N133   N     0.54758   0.08888   0.77462   0.00000  Uiso   1.00
N134   N     0.13848   0.21139   0.61937   0.00000  Uiso   1.00
N135   N     0.34279   0.98585   0.06188   0.00000  Uiso   1.00
N136   N     0.58799   0.16513   0.67774   0.00000  Uiso   1.00
N137   N     0.17888   0.28764   0.52249   0.00000  Uiso   1.00
N138   N     0.38319   0.06211   0.96500   0.00000  Uiso   1.00
C139   C     0.16057   0.91135   0.49381   0.00000  Uiso   1.00
C140   C     0.09333   0.89266   0.54751   0.00000  Uiso   1.00
C141   C     0.05930   0.91941   0.64664   0.00000  Uiso   1.00
C142   C     0.99847   0.89571   0.68175   0.00000  Uiso   1.00
C143   C     0.89800   0.87407   0.77459   0.00000  Uiso   1.00
C144   C     0.20608   0.85889   0.50474   0.00000  Uiso   1.00
C145   C     0.26685   0.85726   0.56790   0.00000  Uiso   1.00
C146   C     0.30094   0.80512   0.56698   0.00000  Uiso   1.00
C147   C     0.37553   0.73108   0.59335   0.00000  Uiso   1.00
C148   C     0.14976   0.92105   0.35111   0.00000  Uiso   1.00
C149   C     0.16319   0.97168   0.28507   0.00000  Uiso   1.00
C150   C     0.14988   0.97187   0.15480   0.00000  Uiso   1.00
C151   C     0.13703   0.99434   0.94262   0.00000  Uiso   1.00
C152   C     0.11306   0.82168   0.37988   0.00000  Uiso   1.00
C153   C     0.06752   0.84395   0.48563   0.00000  Uiso   1.00
C154   C     0.00673   0.82020   0.52059   0.00000  Uiso   1.00
C155   C     0.97262   0.84692   0.61975   0.00000  Uiso   1.00
C156   C     0.18027   0.81018   0.44286   0.00000  Uiso   1.00
C157   C     0.21428   0.75804   0.44185   0.00000  Uiso   1.00
C158   C     0.27508   0.75633   0.50499   0.00000  Uiso   1.00
C159   C     0.12395   0.87234   0.28922   0.00000  Uiso   1.00
C160   C     0.11062   0.87246   0.15903   0.00000  Uiso   1.00
C161   C     0.12403   0.92308   0.09281   0.00000  Uiso   1.00
H162   H     0.18067   0.94927   0.54198   0.00000  Uiso   1.00
H163   H     0.07929   0.95710   0.69451   0.00000  Uiso   1.00
H164   H     0.28681   0.89496   0.61576   0.00000  Uiso   1.00
H165   H     0.18316   0.00936   0.33299   0.00000  Uiso   1.00
H166   H     0.95553   0.94429   0.83635   0.00000  Uiso   1.00
H167   H     0.39310   0.81326   0.67028   0.00000  Uiso   1.00
H168   H     0.17455   0.05450   0.07399   0.00000  Uiso   1.00
H169   H     0.09297   0.78376   0.33170   0.00000  Uiso   1.00
H170   H     0.98677   0.78251   0.47269   0.00000  Uiso   1.00
H171   H     0.19429   0.72036   0.39395   0.00000  Uiso   1.00
H172   H     0.09065   0.83476   0.11117   0.00000  Uiso   1.00
H173   H     0.88043   0.80258   0.65632   0.00000  Uiso   1.00
H174   H     0.31801   0.67155   0.49024   0.00000  Uiso   1.00
H175   H     0.09946   0.91279   0.89396   0.00000  Uiso   1.00
O176   O     0.84971   0.87559   0.84290   0.00000  Uiso   1.00
O177   O     0.42380   0.70369   0.62500   0.00000  Uiso   1.00
O178   O     0.13706   0.02019   0.84269   0.00000  Uiso   1.00
N179   N     0.95242   0.91112   0.77462   0.00000  Uiso   1.00
N180   N     0.36152   0.78861   0.61937   0.00000  Uiso   1.00
N181   N     0.15721   0.01415   0.06188   0.00000  Uiso   1.00
N182   N     0.91201   0.83487   0.67774   0.00000  Uiso   1.00
N183   N     0.32112   0.71236   0.52249   0.00000  Uiso   1.00
N184   N     0.11681   0.93789   0.96500   0.00000  Uiso   1.00
C185   C     0.83943   0.41135   0.99381   0.00000  Uiso   1.00
C186   C     0.90667   0.39266   0.04751   0.00000  Uiso   1.00
C187   C     0.94070   0.41941   0.14664   0.00000  Uiso   1.00
C188   C     0.00153   0.39571   0.18175   0.00000  Uiso   1.00
C189   C     0.10200   0.37407   0.27459   0.00000  Uiso   1.00
C190   C     0.79392   0.35889   0.00474   0.00000  Uiso   1.00
C191   C     0.73315   0.35726   0.06790   0.00000  Uiso   1.00
C192   C     0.69906   0.30512   0.06698   0.00000  Uiso   1.00
C193   C     0.62447   0.23108   0.09335   0.00000  Uiso   1.00
C194   C     0.85024   0.42105   0.85111   0.00000  Uiso   1.00
C195   C     0.83681   0.47168   0.78507   0.00000  Uiso   1.00
C196   C     0.85012   0.47187   0.65480   0.00000  Uiso   1.00
C197   C     0.86297   0.49434   0.44262   0.00000  Uiso   1.00
C198   C     0.88694   0.32168   0.87988   0.00000  Uiso   1.00
C199   C     0.93248   0.34395   0.98563   0.00000  Uiso   1.00
C200   C     0.99327   0.32020   0.02059   0.00000  Uiso   1.00
C201   C     0.02738   0.34692   0.11975   0.00000  Uiso   1.00
C202   C     0.81973   0.31018   0.94286   0.00000  Uiso   1.00
C203   C     0.78572   0.25804   0.94185   0.00000  Uiso   1.00
C204   C     0.72492   0.25633   0.00499   0.00000  Uiso   1.00
C205   C     0.87605   0.37234   0.78922   0.00000  Uiso   1.00
C206   C     0.88938   0.37246   0.65903   0.00000  Uiso   1.00
C207   C     0.87597   0.42308   0.59281   0.00000  Uiso   1.00
H208   H     0.81933   0.44927   0.04198   0.00000  Uiso   1.00
H209   H     0.92071   0.45710   0.19451   0.00000  Uiso   1.00
H210   H     0.71319   0.39496   0.11576   0.00000  Uiso   1.00
H211   H     0.81684   0.50936   0.83299   0.00000  Uiso   1.00
H212   H     0.04447   0.44429   0.33635   0.00000  Uiso   1.00
H213   H     0.60690   0.31326   0.17028   0.00000  Uiso   1.00
H214   H     0.82545   0.55450   0.57399   0.00000  Uiso   1.00
H215   H     0.90703   0.28376   0.83170   0.00000  Uiso   1.00
H216   H     0.01323   0.28251   0.97269   0.00000  Uiso   1.00
H217   H     0.80571   0.22036   0.89395   0.00000  Uiso   1.00
H218   H     0.90935   0.33476   0.61117   0.00000  Uiso   1.00
H219   H     0.11957   0.30258   0.15632   0.00000  Uiso   1.00
H220   H     0.68199   0.17155   0.99024   0.00000  Uiso   1.00
H221   H     0.90054   0.41279   0.39396   0.00000  Uiso   1.00
O222   O     0.15029   0.37559   0.34290   0.00000  Uiso   1.00
O223   O     0.57620   0.20369   0.12500   0.00000  Uiso   1.00
O224   O     0.86294   0.52019   0.34269   0.00000  Uiso   1.00
N225   N     0.04758   0.41112   0.27462   0.00000  Uiso   1.00
N226   N     0.63848   0.28861   0.11937   0.00000  Uiso   1.00
N227   N     0.84279   0.51415   0.56188   0.00000  Uiso   1.00
N228   N     0.08799   0.33487   0.17774   0.00000  Uiso   1.00
N229   N     0.67888   0.21236   0.02249   0.00000  Uiso   1.00
N230   N     0.88319   0.43789   0.46500   0.00000  Uiso   1.00
C231   C     0.66057   0.58865   0.99381   0.00000  Uiso   1.00
C232   C     0.59333   0.60734   0.04751   0.00000  Uiso   1.00
C233   C     0.55930   0.58059   0.14664   0.00000  Uiso   1.00
C234   C     0.49847   0.60429   0.18175   0.00000  Uiso   1.00
C235   C     0.39800   0.62593   0.27459   0.00000  Uiso   1.00
C236   C     0.70608   0.64111   0.00474   0.00000  Uiso   1.00
C237   C     0.76685   0.64274   0.06790   0.00000  Uiso   1.00
C238   C     0.80094   0.69488   0.06698   0.00000  Uiso   1.00
C239   C     0.87553   0.76892   0.09335   0.00000  Uiso   1.00
C240   C     0.64976   0.57895   0.85111   0.00000  Uiso   1.00
C241   C     0.66319   0.52832   0.78507   0.00000  Uiso   1.00
C242   C     0.64988   0.52813   0.65480   0.00000  Uiso   1.00
C243   C     0.63703   0.50566   0.44262   0.00000  Uiso   1.00
C244   C     0.61306   0.67832   0.87988   0.00000  Uiso   1.00
C245   C     0.56752   0.65605   0.98563   0.00000  Uiso   1.00
C246   C     0.50673   0.67980   0.02059   0.00000  Uiso   1.00
C247   C     0.47262   0.65308   0.11975   0.00000  Uiso   1.00
C248   C     0.68027   0.68982   0.94286   0.00000  Uiso   1.00
C249   C     0.71428   0.74196   0.94185   0.00000  Uiso   1.00
C250   C     0.77508   0.74367   0.00499   0.00000  Uiso   1.00
C251   C     0.62395   0.62766   0.78922   0.00000  Uiso   1.00
C252   C     0.61062   0.62754   0.65903   0.00000  Uiso   1.00
C253   C     0.62403   0.57692   0.59281   0.00000  Uiso   1.00
H254   H     0.68067   0.55073   0.04198   0.00000  Uiso   1.00
H255   H     0.57929   0.54290   0.19451   0.00000  Uiso   1.00
H256   H     0.78681   0.60504   0.11576   0.00000  Uiso   1.00
H257   H     0.68316   0.49064   0.83299   0.00000  Uiso   1.00
H258   H     0.45553   0.55571   0.33635   0.00000  Uiso   1.00
H259   H     0.89310   0.68674   0.17028   0.00000  Uiso   1.00
H260   H     0.67455   0.44550   0.57399   0.00000  Uiso   1.00
H261   H     0.59297   0.71624   0.83170   0.00000  Uiso   1.00
H262   H     0.48677   0.71749   0.97269   0.00000  Uiso   1.00
H263   H     0.69429   0.77964   0.89395   0.00000  Uiso   1.00
H264   H     0.59065   0.66524   0.61117   0.00000  Uiso   1.00
H265   H     0.38043   0.69742   0.15632   0.00000  Uiso   1.00
H266   H     0.81801   0.82845   0.99024   0.00000  Uiso   1.00
H267   H     0.59946   0.58721   0.39396   0.00000  Uiso   1.00
O268   O     0.34971   0.62441   0.34290   0.00000  Uiso   1.00
O269   O     0.92380   0.79631   0.12500   0.00000  Uiso   1.00
O270   O     0.63706   0.47981   0.34269   0.00000  Uiso   1.00
N271   N     0.45242   0.58888   0.27462   0.00000  Uiso   1.00
N272   N     0.86152   0.71139   0.11937   0.00000  Uiso   1.00
N273   N     0.65721   0.48585   0.56188   0.00000  Uiso   1.00
N274   N     0.41201   0.66513   0.17774   0.00000  Uiso   1.00
N275   N     0.82112   0.78764   0.02249   0.00000  Uiso   1.00
N276   N     0.61681   0.56211   0.46500   0.00000  Uiso   1.00
C277   C     0.66057   0.91135   0.50619   0.00000  Uiso   1.00
C278   C     0.59333   0.89266   0.45249   0.00000  Uiso   1.00
C279   C     0.55930   0.91941   0.35336   0.00000  Uiso   1.00
C280   C     0.49847   0.89571   0.31825   0.00000  Uiso   1.00
C281   C     0.39800   0.87407   0.22541   0.00000  Uiso   1.00
C282   C     0.70608   0.85889   0.49526   0.00000  Uiso   1.00
C283   C     0.76685   0.85726   0.43210   0.00000  Uiso   1.00
C284   C     0.80094   0.80512   0.43302   0.00000  Uiso   1.00
C285   C     0.87553   0.73108   0.40665   0.00000  Uiso   1.00
C286   C     0.64976   0.92105   0.64889   0.00000  Uiso   1.00
C287   C     0.66319   0.97168   0.71493   0.00000  Uiso   1.00
C288   C     0.64988   0.97187   0.84520   0.00000  Uiso   1.00
C289   C     0.63703   0.99434   0.05738   0.00000  Uiso   1.00
C290   C     0.61306   0.82168   0.62012   0.00000  Uiso   1.00
C291   C     0.56752   0.84395   0.51437   0.00000  Uiso   1.00
C292   C     0.50673   0.82020   0.47941   0.00000  Uiso   1.00
C293   C     0.47262   0.84692   0.38025   0.00000  Uiso   1.00
C294   C     0.68027   0.81018   0.55714   0.00000  Uiso   1.00
C295   C     0.71428   0.75804   0.55815   0.00000  Uiso   1.00
C296   C     0.77508   0.75633   0.49501   0.00000  Uiso   1.00
C297   C     0.62395   0.87234   0.71078   0.00000  Uiso   1.00
C298   C     0.61062   0.87246   0.84097   0.00000  Uiso   1.00
C299   C     0.62403   0.92308   0.90719   0.00000  Uiso   1.00
H300   H     0.68067   0.94927   0.45802   0.00000  Uiso   1.00
H301   H     0.57929   0.95710   0.30549   0.00000  Uiso   1.00
H302   H     0.78681   0.89496   0.38424   0.00000  Uiso   1.00
H303   H     0.68316   0.00936   0.66701   0.00000  Uiso   1.00
H304   H     0.45553   0.94429   0.16365   0.00000  Uiso   1.00
H305   H     0.89310   0.81326   0.32972   0.00000  Uiso   1.00
H306   H     0.67455   0.05450   0.92601   0.00000  Uiso   1.00
H307   H     0.59297   0.78376   0.66830   0.00000  Uiso   1.00
H308   H     0.48677   0.78251   0.52731   0.00000  Uiso   1.00
H309   H     0.69429   0.72036   0.60605   0.00000  Uiso   1.00
H310   H     0.59065   0.83476   0.88883   0.00000  Uiso   1.00
H311   H     0.38043   0.80258   0.34368   0.00000  Uiso   1.00
H312   H     0.81801   0.67155   0.50976   0.00000  Uiso   1.00
H313   H     0.59946   0.91279   0.10604   0.00000  Uiso   1.00
O314   O     0.34971   0.87559   0.15710   0.00000  Uiso   1.00
O315   O     0.92380   0.70369   0.37500   0.00000  Uiso   1.00
O316   O     0.63706   0.02019   0.15731   0.00000  Uiso   1.00
N317   N     0.45242   0.91112   0.22538   0.00000  Uiso   1.00
N318   N     0.86152   0.78861   0.38063   0.00000  Uiso   1.00
N319   N     0.65721   0.01415   0.93812   0.00000  Uiso   1.00
N320   N     0.41201   0.83487   0.32226   0.00000  Uiso   1.00
N321   N     0.82112   0.71236   0.47751   0.00000  Uiso   1.00
N322   N     0.61681   0.93789   0.03500   0.00000  Uiso   1.00
C323   C     0.83943   0.08865   0.50619   0.00000  Uiso   1.00
C324   C     0.90667   0.10734   0.45249   0.00000  Uiso   1.00
C325   C     0.94070   0.08059   0.35336   0.00000  Uiso   1.00
C326   C     0.00153   0.10429   0.31825   0.00000  Uiso   1.00
C327   C     0.10200   0.12593   0.22541   0.00000  Uiso   1.00
C328   C     0.79392   0.14111   0.49526   0.00000  Uiso   1.00
C329   C     0.73315   0.14274   0.43210   0.00000  Uiso   1.00
C330   C     0.69906   0.19488   0.43302   0.00000  Uiso   1.00
C331   C     0.62447   0.26892   0.40665   0.00000  Uiso   1.00
C332   C     0.85024   0.07895   0.64889   0.00000  Uiso   1.00
C333   C     0.83681   0.02832   0.71493   0.00000  Uiso   1.00
C334   C     0.85012   0.02813   0.84520   0.00000  Uiso   1.00
C335   C     0.86297   0.00566   0.05738   0.00000  Uiso   1.00
C336   C     0.88694   0.17832   0.62012   0.00000  Uiso   1.00
C337   C     0.93248   0.15605   0.51437   0.00000  Uiso   1.00
C338   C     0.99327   0.17980   0.47941   0.00000  Uiso   1.00
C339   C     0.02738   0.15308   0.38025   0.00000  Uiso   1.00
C340   C     0.81973   0.18982   0.55714   0.00000  Uiso   1.00
C341   C     0.78572   0.24196   0.55815   0.00000  Uiso   1.00
C342   C     0.72492   0.24367   0.49501   0.00000  Uiso   1.00
C343   C     0.87605   0.12766   0.71078   0.00000  Uiso   1.00
C344   C     0.88938   0.12754   0.84097   0.00000  Uiso   1.00
C345   C     0.87597   0.07692   0.90719   0.00000  Uiso   1.00
H346   H     0.81933   0.05073   0.45802   0.00000  Uiso   1.00
H347   H     0.92071   0.04290   0.30549   0.00000  Uiso   1.00
H348   H     0.71319   0.10504   0.38424   0.00000  Uiso   1.00
H349   H     0.81684   0.99064   0.66701   0.00000  Uiso   1.00
H350   H     0.04447   0.05571   0.16365   0.00000  Uiso   1.00
H351   H     0.60690   0.18674   0.32972   0.00000  Uiso   1.00
H352   H     0.82545   0.94550   0.92601   0.00000  Uiso   1.00
H353   H     0.90703   0.21624   0.66830   0.00000  Uiso   1.00
H354   H     0.01323   0.21749   0.52731   0.00000  Uiso   1.00
H355   H     0.80571   0.27964   0.60605   0.00000  Uiso   1.00
H356   H     0.90935   0.16524   0.88883   0.00000  Uiso   1.00
H357   H     0.11957   0.19742   0.34368   0.00000  Uiso   1.00
H358   H     0.68199   0.32845   0.50976   0.00000  Uiso   1.00
H359   H     0.90054   0.08721   0.10604   0.00000  Uiso   1.00
O360   O     0.15029   0.12441   0.15710   0.00000  Uiso   1.00
O361   O     0.57620   0.29631   0.37500   0.00000  Uiso   1.00
O362   O     0.86294   0.97981   0.15731   0.00000  Uiso   1.00
N363   N     0.04758   0.08888   0.22538   0.00000  Uiso   1.00
N364   N     0.63848   0.21139   0.38063   0.00000  Uiso   1.00
N365   N     0.84279   0.98585   0.93812   0.00000  Uiso   1.00
N366   N     0.08799   0.16513   0.32226   0.00000  Uiso   1.00
N367   N     0.67888   0.28764   0.47751   0.00000  Uiso   1.00
N368   N     0.88319   0.06211   0.03500   0.00000  Uiso   1.00
