data_job_05986
_audit_creation_date              2018-12-19
_audit_creation_method            'Materials Studio'
_symmetry_space_group_name_H-M    'P1'
_symmetry_Int_Tables_number       1
_symmetry_cell_setting            triclinic
loop_
_symmetry_equiv_pos_as_xyz
  x,y,z
_cell_length_a                    12.5032
_cell_length_b                    18.9747
_cell_length_c                    19.0504
_cell_angle_alpha                 63.4150
_cell_angle_beta                  80.0687
_cell_angle_gamma                 99.8953
loop_
_atom_site_label
_atom_site_type_symbol
_atom_site_fract_x
_atom_site_fract_y
_atom_site_fract_z
_atom_site_U_iso_or_equiv
_atom_site_adp_type
_atom_site_occupancy
C1     C     0.21939   0.90767   0.47895   0.00000  Uiso   1.00
C2     C     0.34514   0.92762   0.43852   0.00000  Uiso   1.00
C3     C     0.43048   0.99056   0.43027   0.00000  Uiso   1.00
C4     C     0.54016   0.99871   0.39139   0.00000  Uiso   1.00
C5     C     0.73186   0.03775   0.33307   0.00000  Uiso   1.00
C6     C     0.15937   0.91061   0.41488   0.00000  Uiso   1.00
C7     C     0.08850   0.95925   0.38677   0.00000  Uiso   1.00
C8     C     0.04179   0.95307   0.32800   0.00000  Uiso   1.00
C9     C     0.94500   0.96567   0.23303   0.00000  Uiso   1.00
C10    C     0.18316   0.81800   0.54618   0.00000  Uiso   1.00
C11    C     0.13226   0.78877   0.62847   0.00000  Uiso   1.00
C12    C     0.10555   0.70461   0.68024   0.00000  Uiso   1.00
C13    C     0.04570   0.57341   0.78913   0.00000  Uiso   1.00
C14    C     0.26242   0.81020   0.42459   0.00000  Uiso   1.00
C15    C     0.36851   0.87467   0.40899   0.00000  Uiso   1.00
C16    C     0.47809   0.88272   0.37012   0.00000  Uiso   1.00
C17    C     0.56358   0.94566   0.36181   0.00000  Uiso   1.00
C18    C     0.18274   0.85767   0.38535   0.00000  Uiso   1.00
C19    C     0.13611   0.85140   0.32662   0.00000  Uiso   1.00
C20    C     0.06520   0.90003   0.29842   0.00000  Uiso   1.00
C21    C     0.20653   0.76505   0.51666   0.00000  Uiso   1.00
C22    C     0.17988   0.68092   0.56832   0.00000  Uiso   1.00
C23    C     0.12897   0.65156   0.65066   0.00000  Uiso   1.00
H24    H     0.20119   0.94890   0.50194   0.00000  Uiso   1.00
H25    H     0.41236   0.03153   0.45312   0.00000  Uiso   1.00
H26    H     0.07042   0.00021   0.40964   0.00000  Uiso   1.00
H27    H     0.11419   0.82976   0.65129   0.00000  Uiso   1.00
H28    H     0.65678   0.09981   0.38595   0.00000  Uiso   1.00
H29    H     0.93576   0.03376   0.29428   0.00000  Uiso   1.00
H30    H     0.02804   0.67432   0.80386   0.00000  Uiso   1.00
H31    H     0.28062   0.76897   0.40160   0.00000  Uiso   1.00
H32    H     0.49615   0.84173   0.34727   0.00000  Uiso   1.00
H33    H     0.15422   0.81042   0.30379   0.00000  Uiso   1.00
H34    H     0.19798   0.63997   0.54545   0.00000  Uiso   1.00
H35    H     0.72479   0.94577   0.30003   0.00000  Uiso   1.00
H36    H     0.00376   0.87972   0.20837   0.00000  Uiso   1.00
H37    H     0.09605   0.52028   0.71795   0.00000  Uiso   1.00
O38    O     0.83113   0.07392   0.30904   0.00000  Uiso   1.00
O39    O     0.88517   0.98725   0.18880   0.00000  Uiso   1.00
O40    O     0.00625   0.51568   0.85735   0.00000  Uiso   1.00
N41    N     0.64321   0.05356   0.37320   0.00000  Uiso   1.00
N42    N     0.96911   0.99182   0.28749   0.00000  Uiso   1.00
N43    N     0.05536   0.65577   0.76390   0.00000  Uiso   1.00
N44    N     0.67981   0.97067   0.32697   0.00000  Uiso   1.00
N45    N     0.00571   0.90893   0.24126   0.00000  Uiso   1.00
N46    N     0.09196   0.57288   0.71767   0.00000  Uiso   1.00
C47    C     0.29827   0.61538   0.90109   0.00000  Uiso   1.00
C48    C     0.40508   0.63385   0.92562   0.00000  Uiso   1.00
C49    C     0.43597   0.57855   0.99065   0.00000  Uiso   1.00
C50    C     0.53692   0.60738   0.00298   0.00000  Uiso   1.00
C51    C     0.69246   0.62371   0.04884   0.00000  Uiso   1.00
C52    C     0.23677   0.67801   0.90158   0.00000  Uiso   1.00
C53    C     0.12615   0.65985   0.94640   0.00000  Uiso   1.00
C54    C     0.08542   0.72586   0.93849   0.00000  Uiso   1.00
C55    C     0.97964   0.81076   0.94698   0.00000  Uiso   1.00
C56    C     0.33817   0.63675   0.81183   0.00000  Uiso   1.00
C57    C     0.31279   0.58390   0.78118   0.00000  Uiso   1.00
C58    C     0.35740   0.61518   0.69770   0.00000  Uiso   1.00
C59    C     0.40906   0.63602   0.56685   0.00000  Uiso   1.00
C60    C     0.42262   0.76491   0.80734   0.00000  Uiso   1.00
C61    C     0.47261   0.71507   0.87470   0.00000  Uiso   1.00
C62    C     0.57355   0.74399   0.88693   0.00000  Uiso   1.00
C63    C     0.60458   0.68874   0.95197   0.00000  Uiso   1.00
C64    C     0.30431   0.75923   0.85067   0.00000  Uiso   1.00
C65    C     0.26373   0.82529   0.84268   0.00000  Uiso   1.00
C66    C     0.15308   0.80723   0.88748   0.00000  Uiso   1.00
C67    C     0.40571   0.71797   0.76091   0.00000  Uiso   1.00
C68    C     0.45037   0.74934   0.67747   0.00000  Uiso   1.00
C69    C     0.42506   0.69655   0.64669   0.00000  Uiso   1.00
H70    H     0.24568   0.55215   0.94073   0.00000  Uiso   1.00
H71    H     0.38367   0.51570   0.03005   0.00000  Uiso   1.00
H72    H     0.07391   0.59699   0.98579   0.00000  Uiso   1.00
H73    H     0.26052   0.52105   0.82060   0.00000  Uiso   1.00
H74    H     0.56642   0.51112   0.10663   0.00000  Uiso   1.00
H75    H     0.91325   0.68252   0.01329   0.00000  Uiso   1.00
H76    H     0.30675   0.52239   0.66496   0.00000  Uiso   1.00
H77    H     0.47520   0.82815   0.76770   0.00000  Uiso   1.00
H78    H     0.62579   0.80684   0.84752   0.00000  Uiso   1.00
H79    H     0.31602   0.88813   0.80327   0.00000  Uiso   1.00
H80    H     0.50263   0.81220   0.63808   0.00000  Uiso   1.00
H81    H     0.76294   0.74742   0.95849   0.00000  Uiso   1.00
H82    H     0.10976   0.91882   0.86515   0.00000  Uiso   1.00
H83    H     0.50326   0.75870   0.51682   0.00000  Uiso   1.00
O84    O     0.75958   0.61029   0.08821   0.00000  Uiso   1.00
O85    O     0.90264   0.83515   0.96574   0.00000  Uiso   1.00
O86    O     0.41890   0.62507   0.50874   0.00000  Uiso   1.00
N87    N     0.59202   0.56965   0.06080   0.00000  Uiso   1.00
N88    N     0.98135   0.72990   0.97355   0.00000  Uiso   1.00
N89    N     0.34921   0.58020   0.64788   0.00000  Uiso   1.00
N90    N     0.69776   0.69681   0.98109   0.00000  Uiso   1.00
N91    N     0.08709   0.85705   0.89383   0.00000  Uiso   1.00
N92    N     0.45495   0.70736   0.56817   0.00000  Uiso   1.00
C93    C     0.67703   0.48560   0.61141   0.00000  Uiso   1.00
C94    C     0.76648   0.44069   0.63374   0.00000  Uiso   1.00
C95    C     0.84342   0.42913   0.58082   0.00000  Uiso   1.00
C96    C     0.91838   0.38639   0.61306   0.00000  Uiso   1.00
C97    C     0.05754   0.32118   0.63523   0.00000  Uiso   1.00
C98    C     0.56385   0.42478   0.67030   0.00000  Uiso   1.00
C99    C     0.47042   0.39986   0.64811   0.00000  Uiso   1.00
C100   C     0.37481   0.34373   0.71114   0.00000  Uiso   1.00
C101   C     0.19935   0.25387   0.79007   0.00000  Uiso   1.00
C102   C     0.69822   0.55340   0.63393   0.00000  Uiso   1.00
C103   C     0.71775   0.63664   0.58117   0.00000  Uiso   1.00
C104   C     0.73525   0.68880   0.61358   0.00000  Uiso   1.00
C105   C     0.76843   0.79865   0.63604   0.00000  Uiso   1.00
C106   C     0.67334   0.43024   0.76279   0.00000  Uiso   1.00
C107   C     0.76446   0.41062   0.71596   0.00000  Uiso   1.00
C108   C     0.83934   0.36788   0.74829   0.00000  Uiso   1.00
C109   C     0.91638   0.35627   0.69543   0.00000  Uiso   1.00
C110   C     0.56184   0.39471   0.75252   0.00000  Uiso   1.00
C111   C     0.46634   0.33861   0.81559   0.00000  Uiso   1.00
C112   C     0.37279   0.31361   0.79351   0.00000  Uiso   1.00
C113   C     0.69622   0.52334   0.71615   0.00000  Uiso   1.00
C114   C     0.71368   0.57538   0.74865   0.00000  Uiso   1.00
C115   C     0.73324   0.65868   0.69594   0.00000  Uiso   1.00
H116   H     0.67858   0.50901   0.54740   0.00000  Uiso   1.00
H117   H     0.84494   0.45241   0.51719   0.00000  Uiso   1.00
H118   H     0.47199   0.42314   0.58448   0.00000  Uiso   1.00
H119   H     0.71930   0.65988   0.51755   0.00000  Uiso   1.00
H120   H     0.02846   0.37636   0.51997   0.00000  Uiso   1.00
H121   H     0.24208   0.31468   0.66185   0.00000  Uiso   1.00
H122   H     0.76356   0.81389   0.52070   0.00000  Uiso   1.00
H123   H     0.67177   0.40683   0.82680   0.00000  Uiso   1.00
H124   H     0.83776   0.34462   0.81192   0.00000  Uiso   1.00
H125   H     0.46482   0.31536   0.87921   0.00000  Uiso   1.00
H126   H     0.71212   0.55209   0.81228   0.00000  Uiso   1.00
H127   H     0.02264   0.28887   0.75918   0.00000  Uiso   1.00
H128   H     0.23625   0.22720   0.90106   0.00000  Uiso   1.00
H129   H     0.75773   0.72640   0.75992   0.00000  Uiso   1.00
O130   O     0.13484   0.29351   0.62475   0.00000  Uiso   1.00
O131   O     0.10313   0.21260   0.81090   0.00000  Uiso   1.00
O132   O     0.78731   0.86755   0.62571   0.00000  Uiso   1.00
N133   N     0.00433   0.36432   0.57830   0.00000  Uiso   1.00
N134   N     0.26911   0.30664   0.71096   0.00000  Uiso   1.00
N135   N     0.75662   0.77336   0.57900   0.00000  Uiso   1.00
N136   N     0.00119   0.31725   0.70702   0.00000  Uiso   1.00
N137   N     0.26597   0.25957   0.83967   0.00000  Uiso   1.00
N138   N     0.75349   0.72629   0.70772   0.00000  Uiso   1.00
C139   C     0.78061   0.09233   0.52105   0.00000  Uiso   1.00
C140   C     0.65486   0.07238   0.56148   0.00000  Uiso   1.00
C141   C     0.56952   0.00944   0.56973   0.00000  Uiso   1.00
C142   C     0.45984   0.00129   0.60861   0.00000  Uiso   1.00
C143   C     0.26814   0.96225   0.66693   0.00000  Uiso   1.00
C144   C     0.84063   0.08939   0.58512   0.00000  Uiso   1.00
C145   C     0.91150   0.04075   0.61323   0.00000  Uiso   1.00
C146   C     0.95821   0.04693   0.67200   0.00000  Uiso   1.00
C147   C     0.05500   0.03433   0.76697   0.00000  Uiso   1.00
C148   C     0.81684   0.18200   0.45382   0.00000  Uiso   1.00
C149   C     0.86774   0.21123   0.37153   0.00000  Uiso   1.00
C150   C     0.89445   0.29539   0.31976   0.00000  Uiso   1.00
C151   C     0.95430   0.42659   0.21087   0.00000  Uiso   1.00
C152   C     0.73758   0.18980   0.57541   0.00000  Uiso   1.00
C153   C     0.63149   0.12533   0.59101   0.00000  Uiso   1.00
C154   C     0.52191   0.11729   0.62988   0.00000  Uiso   1.00
C155   C     0.43642   0.05434   0.63819   0.00000  Uiso   1.00
C156   C     0.81726   0.14233   0.61465   0.00000  Uiso   1.00
C157   C     0.86389   0.14860   0.67338   0.00000  Uiso   1.00
C158   C     0.93480   0.09997   0.70158   0.00000  Uiso   1.00
C159   C     0.79347   0.23495   0.48334   0.00000  Uiso   1.00
C160   C     0.82012   0.31908   0.43168   0.00000  Uiso   1.00
C161   C     0.87103   0.34844   0.34934   0.00000  Uiso   1.00
H162   H     0.79881   0.05110   0.49806   0.00000  Uiso   1.00
H163   H     0.58764   0.96847   0.54688   0.00000  Uiso   1.00
H164   H     0.92958   0.99979   0.59036   0.00000  Uiso   1.00
H165   H     0.88581   0.17024   0.34871   0.00000  Uiso   1.00
H166   H     0.34322   0.90019   0.61405   0.00000  Uiso   1.00
H167   H     0.06424   0.96624   0.70572   0.00000  Uiso   1.00
H168   H     0.97196   0.32568   0.19614   0.00000  Uiso   1.00
H169   H     0.71938   0.23103   0.59841   0.00000  Uiso   1.00
H170   H     0.50385   0.15827   0.65273   0.00000  Uiso   1.00
H171   H     0.84578   0.18958   0.69621   0.00000  Uiso   1.00
H172   H     0.80202   0.36004   0.45455   0.00000  Uiso   1.00
H173   H     0.27521   0.05423   0.69997   0.00000  Uiso   1.00
H174   H     0.99624   0.12028   0.79163   0.00000  Uiso   1.00
H175   H     0.90395   0.47972   0.28205   0.00000  Uiso   1.00
O176   O     0.16887   0.92608   0.69096   0.00000  Uiso   1.00
O177   O     0.11483   0.01275   0.81120   0.00000  Uiso   1.00
O178   O     0.99375   0.48432   0.14265   0.00000  Uiso   1.00
N179   N     0.35679   0.94644   0.62680   0.00000  Uiso   1.00
N180   N     0.03089   0.00818   0.71251   0.00000  Uiso   1.00
N181   N     0.94464   0.34423   0.23610   0.00000  Uiso   1.00
N182   N     0.32019   0.02933   0.67303   0.00000  Uiso   1.00
N183   N     0.99429   0.09107   0.75874   0.00000  Uiso   1.00
N184   N     0.90804   0.42712   0.28233   0.00000  Uiso   1.00
C185   C     0.70173   0.38462   0.09891   0.00000  Uiso   1.00
C186   C     0.59492   0.36615   0.07438   0.00000  Uiso   1.00
C187   C     0.56403   0.42145   0.00935   0.00000  Uiso   1.00
C188   C     0.46308   0.39262   0.99702   0.00000  Uiso   1.00
C189   C     0.30754   0.37629   0.95116   0.00000  Uiso   1.00
C190   C     0.76323   0.32199   0.09842   0.00000  Uiso   1.00
C191   C     0.87385   0.34015   0.05360   0.00000  Uiso   1.00
C192   C     0.91458   0.27414   0.06152   0.00000  Uiso   1.00
C193   C     0.02036   0.18924   0.05302   0.00000  Uiso   1.00
C194   C     0.66183   0.36325   0.18817   0.00000  Uiso   1.00
C195   C     0.68722   0.41610   0.21882   0.00000  Uiso   1.00
C196   C     0.64260   0.38482   0.30230   0.00000  Uiso   1.00
C197   C     0.59094   0.36398   0.43315   0.00000  Uiso   1.00
C198   C     0.57738   0.23509   0.19266   0.00000  Uiso   1.00
C199   C     0.52739   0.28493   0.12530   0.00000  Uiso   1.00
C200   C     0.42645   0.25601   0.11307   0.00000  Uiso   1.00
C201   C     0.39542   0.31126   0.04803   0.00000  Uiso   1.00
C202   C     0.69569   0.24077   0.14934   0.00000  Uiso   1.00
C203   C     0.73627   0.17471   0.15732   0.00000  Uiso   1.00
C204   C     0.84692   0.19277   0.11253   0.00000  Uiso   1.00
C205   C     0.59429   0.28203   0.23909   0.00000  Uiso   1.00
C206   C     0.54963   0.25066   0.32253   0.00000  Uiso   1.00
C207   C     0.57494   0.30345   0.35331   0.00000  Uiso   1.00
H208   H     0.75432   0.44785   0.05927   0.00000  Uiso   1.00
H209   H     0.61633   0.48430   0.96995   0.00000  Uiso   1.00
H210   H     0.92609   0.40301   0.01421   0.00000  Uiso   1.00
H211   H     0.73948   0.47895   0.17940   0.00000  Uiso   1.00
H212   H     0.43358   0.48888   0.89337   0.00000  Uiso   1.00
H213   H     0.08675   0.31748   0.98671   0.00000  Uiso   1.00
H214   H     0.69325   0.47761   0.33504   0.00000  Uiso   1.00
H215   H     0.52480   0.17185   0.23230   0.00000  Uiso   1.00
H216   H     0.37421   0.19316   0.15248   0.00000  Uiso   1.00
H217   H     0.68398   0.11187   0.19673   0.00000  Uiso   1.00
H218   H     0.49737   0.18781   0.36192   0.00000  Uiso   1.00
H219   H     0.23707   0.25258   0.04151   0.00000  Uiso   1.00
H220   H     0.89024   0.08118   0.13485   0.00000  Uiso   1.00
H221   H     0.49674   0.24130   0.48318   0.00000  Uiso   1.00
O222   O     0.24042   0.38971   0.91179   0.00000  Uiso   1.00
O223   O     0.09736   0.16485   0.03426   0.00000  Uiso   1.00
O224   O     0.58110   0.37493   0.49126   0.00000  Uiso   1.00
N225   N     0.40798   0.43035   0.93920   0.00000  Uiso   1.00
N226   N     0.01865   0.27010   0.02645   0.00000  Uiso   1.00
N227   N     0.65079   0.41980   0.35212   0.00000  Uiso   1.00
N228   N     0.30224   0.30319   0.01891   0.00000  Uiso   1.00
N229   N     0.91291   0.14295   0.10617   0.00000  Uiso   1.00
N230   N     0.54505   0.29265   0.43183   0.00000  Uiso   1.00
C231   C     0.32297   0.51440   0.38859   0.00000  Uiso   1.00
C232   C     0.23352   0.55931   0.36626   0.00000  Uiso   1.00
C233   C     0.15658   0.57087   0.41918   0.00000  Uiso   1.00
C234   C     0.08162   0.61361   0.38694   0.00000  Uiso   1.00
C235   C     0.94246   0.67882   0.36477   0.00000  Uiso   1.00
C236   C     0.43615   0.57522   0.32970   0.00000  Uiso   1.00
C237   C     0.52958   0.60014   0.35189   0.00000  Uiso   1.00
C238   C     0.62519   0.65627   0.28886   0.00000  Uiso   1.00
C239   C     0.80065   0.74613   0.20993   0.00000  Uiso   1.00
C240   C     0.30178   0.44660   0.36607   0.00000  Uiso   1.00
C241   C     0.28225   0.36336   0.41883   0.00000  Uiso   1.00
C242   C     0.26475   0.31120   0.38642   0.00000  Uiso   1.00
C243   C     0.23157   0.20135   0.36396   0.00000  Uiso   1.00
C244   C     0.32666   0.56976   0.23721   0.00000  Uiso   1.00
C245   C     0.23554   0.58939   0.28404   0.00000  Uiso   1.00
C246   C     0.16066   0.63212   0.25171   0.00000  Uiso   1.00
C247   C     0.08362   0.64373   0.30457   0.00000  Uiso   1.00
C248   C     0.43816   0.60529   0.24748   0.00000  Uiso   1.00
C249   C     0.53366   0.66139   0.18441   0.00000  Uiso   1.00
C250   C     0.62721   0.68640   0.20649   0.00000  Uiso   1.00
C251   C     0.30378   0.47666   0.28385   0.00000  Uiso   1.00
C252   C     0.28632   0.42462   0.25135   0.00000  Uiso   1.00
C253   C     0.26676   0.34132   0.30406   0.00000  Uiso   1.00
H254   H     0.32142   0.49099   0.45260   0.00000  Uiso   1.00
H255   H     0.15506   0.54759   0.48281   0.00000  Uiso   1.00
H256   H     0.52801   0.57686   0.41552   0.00000  Uiso   1.00
H257   H     0.28070   0.34012   0.48245   0.00000  Uiso   1.00
H258   H     0.97154   0.62364   0.48003   0.00000  Uiso   1.00
H259   H     0.75792   0.68532   0.33815   0.00000  Uiso   1.00
H260   H     0.23644   0.18611   0.47930   0.00000  Uiso   1.00
H261   H     0.32823   0.59317   0.17320   0.00000  Uiso   1.00
H262   H     0.16224   0.65538   0.18808   0.00000  Uiso   1.00
H263   H     0.53518   0.68464   0.12079   0.00000  Uiso   1.00
H264   H     0.28788   0.44791   0.18772   0.00000  Uiso   1.00
H265   H     0.97736   0.71113   0.24082   0.00000  Uiso   1.00
H266   H     0.76375   0.77280   0.09894   0.00000  Uiso   1.00
H267   H     0.24227   0.27360   0.24008   0.00000  Uiso   1.00
O268   O     0.86516   0.70649   0.37525   0.00000  Uiso   1.00
O269   O     0.89687   0.78740   0.18910   0.00000  Uiso   1.00
O270   O     0.21269   0.13245   0.37429   0.00000  Uiso   1.00
N271   N     0.99567   0.63568   0.42170   0.00000  Uiso   1.00
N272   N     0.73089   0.69336   0.28904   0.00000  Uiso   1.00
N273   N     0.24338   0.22664   0.42100   0.00000  Uiso   1.00
N274   N     0.99881   0.68275   0.29298   0.00000  Uiso   1.00
N275   N     0.73403   0.74043   0.16033   0.00000  Uiso   1.00
N276   N     0.24651   0.27371   0.29228   0.00000  Uiso   1.00
