data_job_00574
_audit_creation_date              2018-12-19
_audit_creation_method            'Materials Studio'
_symmetry_space_group_name_H-M    'P1'
_symmetry_Int_Tables_number       1
_symmetry_cell_setting            triclinic
loop_
_symmetry_equiv_pos_as_xyz
  x,y,z
_cell_length_a                    14.5714
_cell_length_b                    27.4204
_cell_length_c                    12.2563
_cell_angle_alpha                 90.0000
_cell_angle_beta                  99.5898
_cell_angle_gamma                 90.0000
loop_
_atom_site_label
_atom_site_type_symbol
_atom_site_fract_x
_atom_site_fract_y
_atom_site_fract_z
_atom_site_U_iso_or_equiv
_atom_site_adp_type
_atom_site_occupancy
C1     C     0.47812   0.90482   0.86007   0.00000  Uiso   1.00
C2     C     0.42973   0.90214   0.96106   0.00000  Uiso   1.00
C3     C     0.40568   0.94171   0.02102   0.00000  Uiso   1.00
C4     C     0.36184   0.93162   0.11073   0.00000  Uiso   1.00
C5     C     0.28964   0.93477   0.26322   0.00000  Uiso   1.00
C6     C     0.56573   0.87376   0.88768   0.00000  Uiso   1.00
C7     C     0.65602   0.88946   0.88594   0.00000  Uiso   1.00
C8     C     0.72666   0.85547   0.91387   0.00000  Uiso   1.00
C9     C     0.86560   0.81454   0.95237   0.00000  Uiso   1.00
C10    C     0.41487   0.87805   0.76757   0.00000  Uiso   1.00
C11    C     0.37833   0.89735   0.66482   0.00000  Uiso   1.00
C12    C     0.32197   0.86697   0.59162   0.00000  Uiso   1.00
C13    C     0.22668   0.83270   0.44363   0.00000  Uiso   1.00
C14    C     0.44303   0.81654   0.91275   0.00000  Uiso   1.00
C15    C     0.41067   0.85419   0.98967   0.00000  Uiso   1.00
C16    C     0.36685   0.84404   0.07931   0.00000  Uiso   1.00
C17    C     0.34274   0.88359   0.13940   0.00000  Uiso   1.00
C18    C     0.54667   0.82581   0.91630   0.00000  Uiso   1.00
C19    C     0.61720   0.79179   0.94423   0.00000  Uiso   1.00
C20    C     0.70757   0.80744   0.94254   0.00000  Uiso   1.00
C21    C     0.39581   0.83010   0.79619   0.00000  Uiso   1.00
C22    C     0.33950   0.79968   0.72312   0.00000  Uiso   1.00
C23    C     0.30288   0.81894   0.62029   0.00000  Uiso   1.00
H24    H     0.49297   0.94214   0.83779   0.00000  Uiso   1.00
H25    H     0.42045   0.97881   0.99885   0.00000  Uiso   1.00
H26    H     0.67075   0.92657   0.86378   0.00000  Uiso   1.00
H27    H     0.39310   0.93446   0.64271   0.00000  Uiso   1.00
H28    H     0.33167   0.99832   0.19007   0.00000  Uiso   1.00
H29    H     0.85944   0.88815   0.90523   0.00000  Uiso   1.00
H30    H     0.27396   0.90479   0.43905   0.00000  Uiso   1.00
H31    H     0.42819   0.77921   0.93503   0.00000  Uiso   1.00
H32    H     0.35211   0.80693   0.10144   0.00000  Uiso   1.00
H33    H     0.60242   0.75469   0.96637   0.00000  Uiso   1.00
H34    H     0.32477   0.76258   0.74529   0.00000  Uiso   1.00
H35    H     0.27621   0.85882   0.27333   0.00000  Uiso   1.00
H36    H     0.80399   0.74865   0.98849   0.00000  Uiso   1.00
H37    H     0.21850   0.76529   0.52231   0.00000  Uiso   1.00
O38    O     0.25509   0.94975   0.33943   0.00000  Uiso   1.00
O39    O     0.94750   0.80521   0.96572   0.00000  Uiso   1.00
O40    O     0.17937   0.82704   0.35410   0.00000  Uiso   1.00
N41    N     0.32904   0.96168   0.18681   0.00000  Uiso   1.00
N42    N     0.82248   0.85869   0.92053   0.00000  Uiso   1.00
N43    N     0.27513   0.87424   0.48467   0.00000  Uiso   1.00
N44    N     0.29920   0.88662   0.23162   0.00000  Uiso   1.00
N45    N     0.79264   0.78362   0.96533   0.00000  Uiso   1.00
N46    N     0.24528   0.79917   0.52947   0.00000  Uiso   1.00
C47    C     0.05257   0.43037   0.01156   0.00000  Uiso   1.00
C48    C     0.02308   0.41880   0.12240   0.00000  Uiso   1.00
C49    C     0.97619   0.45017   0.18291   0.00000  Uiso   1.00
C50    C     0.95551   0.43272   0.28236   0.00000  Uiso   1.00
C51    C     0.90590   0.42193   0.44879   0.00000  Uiso   1.00
C52    C     0.15743   0.42197   0.02794   0.00000  Uiso   1.00
C53    C     0.22349   0.45602   0.00902   0.00000  Uiso   1.00
C54    C     0.31591   0.44124   0.02893   0.00000  Uiso   1.00
C55    C     0.47486   0.43536   0.04863   0.00000  Uiso   1.00
C56    C     0.00921   0.39088   0.93164   0.00000  Uiso   1.00
C57    C     0.95067   0.39878   0.83172   0.00000  Uiso   1.00
C58    C     0.91831   0.35782   0.77055   0.00000  Uiso   1.00
C59    C     0.84714   0.30368   0.64072   0.00000  Uiso   1.00
C60    C     0.09924   0.34360   0.08056   0.00000  Uiso   1.00
C61    C     0.04843   0.37166   0.15987   0.00000  Uiso   1.00
C62    C     0.02781   0.35416   0.25925   0.00000  Uiso   1.00
C63    C     0.98090   0.38550   0.31991   0.00000  Uiso   1.00
C64    C     0.18277   0.37484   0.06541   0.00000  Uiso   1.00
C65    C     0.27512   0.36001   0.08536   0.00000  Uiso   1.00
C66    C     0.34130   0.39402   0.06648   0.00000  Uiso   1.00
C67    C     0.03455   0.34375   0.96911   0.00000  Uiso   1.00
C68    C     0.00229   0.30277   0.90807   0.00000  Uiso   1.00
C69    C     0.94370   0.31061   0.80809   0.00000  Uiso   1.00
H70    H     0.03285   0.46707   0.98238   0.00000  Uiso   1.00
H71    H     0.95659   0.48665   0.15389   0.00000  Uiso   1.00
H72    H     0.20385   0.49249   0.98001   0.00000  Uiso   1.00
H73    H     0.93107   0.43526   0.80275   0.00000  Uiso   1.00
H74    H     0.88325   0.48757   0.36058   0.00000  Uiso   1.00
H75    H     0.40461   0.49988   0.99391   0.00000  Uiso   1.00
H76    H     0.82940   0.37921   0.62012   0.00000  Uiso   1.00
H77    H     0.11897   0.30690   0.10974   0.00000  Uiso   1.00
H78    H     0.04744   0.31769   0.28823   0.00000  Uiso   1.00
H79    H     0.29470   0.32353   0.11435   0.00000  Uiso   1.00
H80    H     0.02192   0.26630   0.93710   0.00000  Uiso   1.00
H81    H     0.95699   0.35044   0.46962   0.00000  Uiso   1.00
H82    H     0.47836   0.36275   0.10294   0.00000  Uiso   1.00
H83    H     0.90314   0.24208   0.72916   0.00000  Uiso   1.00
O84    O     0.87154   0.42900   0.53024   0.00000  Uiso   1.00
O85    O     0.55554   0.44515   0.04916   0.00000  Uiso   1.00
O86    O     0.80087   0.28683   0.55877   0.00000  Uiso   1.00
N87    N     0.91041   0.45381   0.36174   0.00000  Uiso   1.00
N88    N     0.39785   0.46533   0.01893   0.00000  Uiso   1.00
N89    N     0.86009   0.35251   0.66946   0.00000  Uiso   1.00
N90    N     0.95009   0.38002   0.42041   0.00000  Uiso   1.00
N91    N     0.43753   0.39154   0.07761   0.00000  Uiso   1.00
N92    N     0.89977   0.27872   0.72814   0.00000  Uiso   1.00
C93    C     0.52188   0.40482   0.63993   0.00000  Uiso   1.00
C94    C     0.57027   0.40214   0.53894   0.00000  Uiso   1.00
C95    C     0.59432   0.44171   0.47898   0.00000  Uiso   1.00
C96    C     0.63816   0.43162   0.38927   0.00000  Uiso   1.00
C97    C     0.71036   0.43477   0.23678   0.00000  Uiso   1.00
C98    C     0.43427   0.37376   0.61232   0.00000  Uiso   1.00
C99    C     0.34398   0.38946   0.61406   0.00000  Uiso   1.00
C100   C     0.27334   0.35547   0.58613   0.00000  Uiso   1.00
C101   C     0.13440   0.31454   0.54763   0.00000  Uiso   1.00
C102   C     0.58513   0.37805   0.73243   0.00000  Uiso   1.00
C103   C     0.62167   0.39735   0.83518   0.00000  Uiso   1.00
C104   C     0.67803   0.36697   0.90838   0.00000  Uiso   1.00
C105   C     0.77332   0.33270   0.05637   0.00000  Uiso   1.00
C106   C     0.55697   0.31654   0.58725   0.00000  Uiso   1.00
C107   C     0.58933   0.35419   0.51033   0.00000  Uiso   1.00
C108   C     0.63315   0.34404   0.42069   0.00000  Uiso   1.00
C109   C     0.65726   0.38359   0.36060   0.00000  Uiso   1.00
C110   C     0.45333   0.32581   0.58370   0.00000  Uiso   1.00
C111   C     0.38280   0.29179   0.55577   0.00000  Uiso   1.00
C112   C     0.29243   0.30744   0.55746   0.00000  Uiso   1.00
C113   C     0.60419   0.33010   0.70381   0.00000  Uiso   1.00
C114   C     0.66050   0.29968   0.77688   0.00000  Uiso   1.00
C115   C     0.69712   0.31894   0.87971   0.00000  Uiso   1.00
H116   H     0.50703   0.44214   0.66221   0.00000  Uiso   1.00
H117   H     0.57955   0.47881   0.50115   0.00000  Uiso   1.00
H118   H     0.32925   0.42657   0.63622   0.00000  Uiso   1.00
H119   H     0.60690   0.43446   0.85729   0.00000  Uiso   1.00
H120   H     0.66833   0.49832   0.30993   0.00000  Uiso   1.00
H121   H     0.14056   0.38815   0.59477   0.00000  Uiso   1.00
H122   H     0.72604   0.40479   0.06095   0.00000  Uiso   1.00
H123   H     0.57181   0.27921   0.56497   0.00000  Uiso   1.00
H124   H     0.64789   0.30693   0.39856   0.00000  Uiso   1.00
H125   H     0.39758   0.25469   0.53363   0.00000  Uiso   1.00
H126   H     0.67523   0.26258   0.75471   0.00000  Uiso   1.00
H127   H     0.72379   0.35882   0.22667   0.00000  Uiso   1.00
H128   H     0.19601   0.24865   0.51151   0.00000  Uiso   1.00
H129   H     0.78150   0.26529   0.97769   0.00000  Uiso   1.00
O130   O     0.74491   0.44975   0.16057   0.00000  Uiso   1.00
O131   O     0.05250   0.30521   0.53428   0.00000  Uiso   1.00
O132   O     0.82063   0.32704   0.14590   0.00000  Uiso   1.00
N133   N     0.67096   0.46168   0.31319   0.00000  Uiso   1.00
N134   N     0.17752   0.35869   0.57947   0.00000  Uiso   1.00
N135   N     0.72487   0.37424   0.01533   0.00000  Uiso   1.00
N136   N     0.70080   0.38662   0.26838   0.00000  Uiso   1.00
N137   N     0.20736   0.28362   0.53467   0.00000  Uiso   1.00
N138   N     0.75472   0.29917   0.97053   0.00000  Uiso   1.00
C139   C     0.94743   0.93037   0.48844   0.00000  Uiso   1.00
C140   C     0.97692   0.91880   0.37760   0.00000  Uiso   1.00
C141   C     0.02381   0.95017   0.31709   0.00000  Uiso   1.00
C142   C     0.04449   0.93272   0.21764   0.00000  Uiso   1.00
C143   C     0.09410   0.92193   0.05121   0.00000  Uiso   1.00
C144   C     0.84257   0.92197   0.47206   0.00000  Uiso   1.00
C145   C     0.77651   0.95602   0.49098   0.00000  Uiso   1.00
C146   C     0.68409   0.94124   0.47107   0.00000  Uiso   1.00
C147   C     0.52514   0.93536   0.45137   0.00000  Uiso   1.00
C148   C     0.99079   0.89088   0.56836   0.00000  Uiso   1.00
C149   C     0.04933   0.89878   0.66828   0.00000  Uiso   1.00
C150   C     0.08169   0.85782   0.72945   0.00000  Uiso   1.00
C151   C     0.15286   0.80368   0.85928   0.00000  Uiso   1.00
C152   C     0.90076   0.84360   0.41944   0.00000  Uiso   1.00
C153   C     0.95157   0.87166   0.34013   0.00000  Uiso   1.00
C154   C     0.97219   0.85416   0.24075   0.00000  Uiso   1.00
C155   C     0.01910   0.88550   0.18009   0.00000  Uiso   1.00
C156   C     0.81723   0.87484   0.43459   0.00000  Uiso   1.00
C157   C     0.72488   0.86001   0.41464   0.00000  Uiso   1.00
C158   C     0.65870   0.89402   0.43352   0.00000  Uiso   1.00
C159   C     0.96545   0.84375   0.53089   0.00000  Uiso   1.00
C160   C     0.99771   0.80277   0.59193   0.00000  Uiso   1.00
C161   C     0.05630   0.81061   0.69191   0.00000  Uiso   1.00
H162   H     0.96715   0.96707   0.51762   0.00000  Uiso   1.00
H163   H     0.04341   0.98665   0.34611   0.00000  Uiso   1.00
H164   H     0.79615   0.99249   0.51999   0.00000  Uiso   1.00
H165   H     0.06893   0.93526   0.69725   0.00000  Uiso   1.00
H166   H     0.11675   0.98757   0.13942   0.00000  Uiso   1.00
H167   H     0.59539   0.99988   0.50609   0.00000  Uiso   1.00
H168   H     0.17060   0.87921   0.87988   0.00000  Uiso   1.00
H169   H     0.88103   0.80690   0.39026   0.00000  Uiso   1.00
H170   H     0.95256   0.81769   0.21177   0.00000  Uiso   1.00
H171   H     0.70530   0.82353   0.38565   0.00000  Uiso   1.00
H172   H     0.97808   0.76630   0.56290   0.00000  Uiso   1.00
H173   H     0.04301   0.85044   0.03038   0.00000  Uiso   1.00
H174   H     0.52164   0.86275   0.39706   0.00000  Uiso   1.00
H175   H     0.09686   0.74208   0.77084   0.00000  Uiso   1.00
O176   O     0.12846   0.92900   0.96976   0.00000  Uiso   1.00
O177   O     0.44446   0.94515   0.45084   0.00000  Uiso   1.00
O178   O     0.19913   0.78683   0.94123   0.00000  Uiso   1.00
N179   N     0.08959   0.95381   0.13826   0.00000  Uiso   1.00
N180   N     0.60215   0.96533   0.48107   0.00000  Uiso   1.00
N181   N     0.13991   0.85251   0.83054   0.00000  Uiso   1.00
N182   N     0.04991   0.88002   0.07959   0.00000  Uiso   1.00
N183   N     0.56247   0.89154   0.42239   0.00000  Uiso   1.00
N184   N     0.10023   0.77872   0.77186   0.00000  Uiso   1.00
C185   C     0.52188   0.09518   0.13993   0.00000  Uiso   1.00
C186   C     0.57027   0.09786   0.03894   0.00000  Uiso   1.00
C187   C     0.59432   0.05829   0.97898   0.00000  Uiso   1.00
C188   C     0.63816   0.06838   0.88927   0.00000  Uiso   1.00
C189   C     0.71036   0.06523   0.73678   0.00000  Uiso   1.00
C190   C     0.43427   0.12624   0.11232   0.00000  Uiso   1.00
C191   C     0.34398   0.11054   0.11406   0.00000  Uiso   1.00
C192   C     0.27334   0.14453   0.08613   0.00000  Uiso   1.00
C193   C     0.13440   0.18546   0.04763   0.00000  Uiso   1.00
C194   C     0.58513   0.12195   0.23243   0.00000  Uiso   1.00
C195   C     0.62167   0.10265   0.33518   0.00000  Uiso   1.00
C196   C     0.67803   0.13303   0.40838   0.00000  Uiso   1.00
C197   C     0.77332   0.16730   0.55637   0.00000  Uiso   1.00
C198   C     0.55697   0.18346   0.08725   0.00000  Uiso   1.00
C199   C     0.58933   0.14581   0.01033   0.00000  Uiso   1.00
C200   C     0.63315   0.15596   0.92069   0.00000  Uiso   1.00
C201   C     0.65726   0.11641   0.86060   0.00000  Uiso   1.00
C202   C     0.45333   0.17419   0.08370   0.00000  Uiso   1.00
C203   C     0.38280   0.20821   0.05577   0.00000  Uiso   1.00
C204   C     0.29243   0.19256   0.05746   0.00000  Uiso   1.00
C205   C     0.60419   0.16990   0.20381   0.00000  Uiso   1.00
C206   C     0.66050   0.20032   0.27688   0.00000  Uiso   1.00
C207   C     0.69712   0.18106   0.37971   0.00000  Uiso   1.00
H208   H     0.50703   0.05786   0.16221   0.00000  Uiso   1.00
H209   H     0.57955   0.02119   0.00115   0.00000  Uiso   1.00
H210   H     0.32925   0.07343   0.13622   0.00000  Uiso   1.00
H211   H     0.60690   0.06554   0.35729   0.00000  Uiso   1.00
H212   H     0.66833   0.00168   0.80993   0.00000  Uiso   1.00
H213   H     0.14056   0.11185   0.09477   0.00000  Uiso   1.00
H214   H     0.72604   0.09521   0.56095   0.00000  Uiso   1.00
H215   H     0.57181   0.22079   0.06497   0.00000  Uiso   1.00
H216   H     0.64789   0.19307   0.89856   0.00000  Uiso   1.00
H217   H     0.39758   0.24531   0.03363   0.00000  Uiso   1.00
H218   H     0.67523   0.23742   0.25471   0.00000  Uiso   1.00
H219   H     0.72379   0.14118   0.72667   0.00000  Uiso   1.00
H220   H     0.19601   0.25135   0.01151   0.00000  Uiso   1.00
H221   H     0.78150   0.23471   0.47769   0.00000  Uiso   1.00
O222   O     0.74491   0.05025   0.66057   0.00000  Uiso   1.00
O223   O     0.05250   0.19479   0.03428   0.00000  Uiso   1.00
O224   O     0.82063   0.17296   0.64590   0.00000  Uiso   1.00
N225   N     0.67096   0.03832   0.81319   0.00000  Uiso   1.00
N226   N     0.17752   0.14131   0.07947   0.00000  Uiso   1.00
N227   N     0.72487   0.12576   0.51533   0.00000  Uiso   1.00
N228   N     0.70080   0.11338   0.76838   0.00000  Uiso   1.00
N229   N     0.20736   0.21638   0.03467   0.00000  Uiso   1.00
N230   N     0.75472   0.20083   0.47053   0.00000  Uiso   1.00
C231   C     0.94743   0.56963   0.98844   0.00000  Uiso   1.00
C232   C     0.97692   0.58120   0.87760   0.00000  Uiso   1.00
C233   C     0.02381   0.54983   0.81709   0.00000  Uiso   1.00
C234   C     0.04449   0.56728   0.71764   0.00000  Uiso   1.00
C235   C     0.09410   0.57807   0.55121   0.00000  Uiso   1.00
C236   C     0.84257   0.57803   0.97206   0.00000  Uiso   1.00
C237   C     0.77651   0.54398   0.99098   0.00000  Uiso   1.00
C238   C     0.68409   0.55876   0.97107   0.00000  Uiso   1.00
C239   C     0.52514   0.56464   0.95137   0.00000  Uiso   1.00
C240   C     0.99079   0.60912   0.06836   0.00000  Uiso   1.00
C241   C     0.04933   0.60122   0.16828   0.00000  Uiso   1.00
C242   C     0.08169   0.64218   0.22945   0.00000  Uiso   1.00
C243   C     0.15286   0.69632   0.35928   0.00000  Uiso   1.00
C244   C     0.90076   0.65640   0.91944   0.00000  Uiso   1.00
C245   C     0.95157   0.62834   0.84013   0.00000  Uiso   1.00
C246   C     0.97219   0.64584   0.74075   0.00000  Uiso   1.00
C247   C     0.01910   0.61450   0.68009   0.00000  Uiso   1.00
C248   C     0.81723   0.62516   0.93459   0.00000  Uiso   1.00
C249   C     0.72488   0.63999   0.91464   0.00000  Uiso   1.00
C250   C     0.65870   0.60598   0.93352   0.00000  Uiso   1.00
C251   C     0.96545   0.65625   0.03089   0.00000  Uiso   1.00
C252   C     0.99771   0.69723   0.09193   0.00000  Uiso   1.00
C253   C     0.05630   0.68939   0.19191   0.00000  Uiso   1.00
H254   H     0.96715   0.53293   0.01762   0.00000  Uiso   1.00
H255   H     0.04341   0.51335   0.84611   0.00000  Uiso   1.00
H256   H     0.79615   0.50751   0.01999   0.00000  Uiso   1.00
H257   H     0.06893   0.56474   0.19725   0.00000  Uiso   1.00
H258   H     0.11675   0.51243   0.63942   0.00000  Uiso   1.00
H259   H     0.59539   0.50012   0.00609   0.00000  Uiso   1.00
H260   H     0.17060   0.62079   0.37988   0.00000  Uiso   1.00
H261   H     0.88103   0.69310   0.89026   0.00000  Uiso   1.00
H262   H     0.95256   0.68231   0.71177   0.00000  Uiso   1.00
H263   H     0.70530   0.67647   0.88565   0.00000  Uiso   1.00
H264   H     0.97808   0.73370   0.06290   0.00000  Uiso   1.00
H265   H     0.04301   0.64956   0.53038   0.00000  Uiso   1.00
H266   H     0.52164   0.63725   0.89706   0.00000  Uiso   1.00
H267   H     0.09686   0.75792   0.27084   0.00000  Uiso   1.00
O268   O     0.12846   0.57100   0.46976   0.00000  Uiso   1.00
O269   O     0.44446   0.55485   0.95084   0.00000  Uiso   1.00
O270   O     0.19913   0.71317   0.44123   0.00000  Uiso   1.00
N271   N     0.08959   0.54619   0.63826   0.00000  Uiso   1.00
N272   N     0.60215   0.53467   0.98107   0.00000  Uiso   1.00
N273   N     0.13991   0.64749   0.33054   0.00000  Uiso   1.00
N274   N     0.04991   0.61998   0.57959   0.00000  Uiso   1.00
N275   N     0.56247   0.60846   0.92239   0.00000  Uiso   1.00
N276   N     0.10023   0.72128   0.27186   0.00000  Uiso   1.00
C277   C     0.47812   0.59518   0.36007   0.00000  Uiso   1.00
C278   C     0.42973   0.59786   0.46106   0.00000  Uiso   1.00
C279   C     0.40568   0.55829   0.52102   0.00000  Uiso   1.00
C280   C     0.36184   0.56838   0.61073   0.00000  Uiso   1.00
C281   C     0.28964   0.56523   0.76322   0.00000  Uiso   1.00
C282   C     0.56573   0.62624   0.38768   0.00000  Uiso   1.00
C283   C     0.65602   0.61054   0.38594   0.00000  Uiso   1.00
C284   C     0.72666   0.64453   0.41387   0.00000  Uiso   1.00
C285   C     0.86560   0.68546   0.45237   0.00000  Uiso   1.00
C286   C     0.41487   0.62195   0.26757   0.00000  Uiso   1.00
C287   C     0.37833   0.60265   0.16482   0.00000  Uiso   1.00
C288   C     0.32197   0.63303   0.09162   0.00000  Uiso   1.00
C289   C     0.22668   0.66730   0.94363   0.00000  Uiso   1.00
C290   C     0.44303   0.68346   0.41275   0.00000  Uiso   1.00
C291   C     0.41067   0.64581   0.48967   0.00000  Uiso   1.00
C292   C     0.36685   0.65596   0.57931   0.00000  Uiso   1.00
C293   C     0.34274   0.61641   0.63940   0.00000  Uiso   1.00
C294   C     0.54667   0.67419   0.41630   0.00000  Uiso   1.00
C295   C     0.61720   0.70821   0.44423   0.00000  Uiso   1.00
C296   C     0.70757   0.69256   0.44254   0.00000  Uiso   1.00
C297   C     0.39581   0.66990   0.29619   0.00000  Uiso   1.00
C298   C     0.33950   0.70032   0.22312   0.00000  Uiso   1.00
C299   C     0.30288   0.68106   0.12029   0.00000  Uiso   1.00
H300   H     0.49297   0.55786   0.33779   0.00000  Uiso   1.00
H301   H     0.42045   0.52119   0.49885   0.00000  Uiso   1.00
H302   H     0.67075   0.57343   0.36378   0.00000  Uiso   1.00
H303   H     0.39310   0.56554   0.14271   0.00000  Uiso   1.00
H304   H     0.33167   0.50168   0.69007   0.00000  Uiso   1.00
H305   H     0.85944   0.61185   0.40523   0.00000  Uiso   1.00
H306   H     0.27396   0.59521   0.93905   0.00000  Uiso   1.00
H307   H     0.42819   0.72079   0.43503   0.00000  Uiso   1.00
H308   H     0.35211   0.69307   0.60144   0.00000  Uiso   1.00
H309   H     0.60242   0.74531   0.46637   0.00000  Uiso   1.00
H310   H     0.32477   0.73742   0.24529   0.00000  Uiso   1.00
H311   H     0.27621   0.64118   0.77333   0.00000  Uiso   1.00
H312   H     0.80399   0.75135   0.48849   0.00000  Uiso   1.00
H313   H     0.21850   0.73471   0.02231   0.00000  Uiso   1.00
O314   O     0.25509   0.55025   0.83943   0.00000  Uiso   1.00
O315   O     0.94750   0.69479   0.46572   0.00000  Uiso   1.00
O316   O     0.17937   0.67296   0.85410   0.00000  Uiso   1.00
N317   N     0.32904   0.53832   0.68681   0.00000  Uiso   1.00
N318   N     0.82248   0.64131   0.42053   0.00000  Uiso   1.00
N319   N     0.27513   0.62576   0.98467   0.00000  Uiso   1.00
N320   N     0.29920   0.61338   0.73162   0.00000  Uiso   1.00
N321   N     0.79264   0.71638   0.46533   0.00000  Uiso   1.00
N322   N     0.24528   0.70083   0.02947   0.00000  Uiso   1.00
C323   C     0.05257   0.06963   0.51156   0.00000  Uiso   1.00
C324   C     0.02308   0.08120   0.62240   0.00000  Uiso   1.00
C325   C     0.97619   0.04983   0.68291   0.00000  Uiso   1.00
C326   C     0.95551   0.06728   0.78236   0.00000  Uiso   1.00
C327   C     0.90590   0.07807   0.94879   0.00000  Uiso   1.00
C328   C     0.15743   0.07803   0.52794   0.00000  Uiso   1.00
C329   C     0.22349   0.04398   0.50902   0.00000  Uiso   1.00
C330   C     0.31591   0.05876   0.52893   0.00000  Uiso   1.00
C331   C     0.47486   0.06464   0.54863   0.00000  Uiso   1.00
C332   C     0.00921   0.10912   0.43164   0.00000  Uiso   1.00
C333   C     0.95067   0.10122   0.33172   0.00000  Uiso   1.00
C334   C     0.91831   0.14218   0.27055   0.00000  Uiso   1.00
C335   C     0.84714   0.19632   0.14072   0.00000  Uiso   1.00
C336   C     0.09924   0.15640   0.58056   0.00000  Uiso   1.00
C337   C     0.04843   0.12834   0.65987   0.00000  Uiso   1.00
C338   C     0.02781   0.14584   0.75925   0.00000  Uiso   1.00
C339   C     0.98090   0.11450   0.81991   0.00000  Uiso   1.00
C340   C     0.18277   0.12516   0.56541   0.00000  Uiso   1.00
C341   C     0.27512   0.13999   0.58536   0.00000  Uiso   1.00
C342   C     0.34130   0.10598   0.56648   0.00000  Uiso   1.00
C343   C     0.03455   0.15625   0.46911   0.00000  Uiso   1.00
C344   C     0.00229   0.19723   0.40807   0.00000  Uiso   1.00
C345   C     0.94370   0.18939   0.30809   0.00000  Uiso   1.00
H346   H     0.03285   0.03293   0.48238   0.00000  Uiso   1.00
H347   H     0.95659   0.01335   0.65389   0.00000  Uiso   1.00
H348   H     0.20385   0.00751   0.48001   0.00000  Uiso   1.00
H349   H     0.93107   0.06474   0.30275   0.00000  Uiso   1.00
H350   H     0.88325   0.01243   0.86058   0.00000  Uiso   1.00
H351   H     0.40461   0.00012   0.49391   0.00000  Uiso   1.00
H352   H     0.82940   0.12079   0.12012   0.00000  Uiso   1.00
H353   H     0.11897   0.19310   0.60974   0.00000  Uiso   1.00
H354   H     0.04744   0.18231   0.78823   0.00000  Uiso   1.00
H355   H     0.29470   0.17647   0.61435   0.00000  Uiso   1.00
H356   H     0.02192   0.23370   0.43710   0.00000  Uiso   1.00
H357   H     0.95699   0.14956   0.96962   0.00000  Uiso   1.00
H358   H     0.47836   0.13725   0.60294   0.00000  Uiso   1.00
H359   H     0.90314   0.25792   0.22916   0.00000  Uiso   1.00
O360   O     0.87154   0.07100   0.03024   0.00000  Uiso   1.00
O361   O     0.55554   0.05485   0.54916   0.00000  Uiso   1.00
O362   O     0.80087   0.21317   0.05877   0.00000  Uiso   1.00
N363   N     0.91041   0.04619   0.86174   0.00000  Uiso   1.00
N364   N     0.39785   0.03467   0.51893   0.00000  Uiso   1.00
N365   N     0.86009   0.14749   0.16946   0.00000  Uiso   1.00
N366   N     0.95009   0.11998   0.92041   0.00000  Uiso   1.00
N367   N     0.43753   0.10846   0.57761   0.00000  Uiso   1.00
N368   N     0.89977   0.22128   0.22814   0.00000  Uiso   1.00
