data_job_06234
_audit_creation_date              2018-12-19
_audit_creation_method            'Materials Studio'
_symmetry_space_group_name_H-M    'P1'
_symmetry_Int_Tables_number       1
_symmetry_cell_setting            triclinic
loop_
_symmetry_equiv_pos_as_xyz
  x,y,z
_cell_length_a                    16.1130
_cell_length_b                    16.4839
_cell_length_c                    16.7617
_cell_angle_alpha                 69.9461
_cell_angle_beta                  71.9106
_cell_angle_gamma                 109.1000
loop_
_atom_site_label
_atom_site_type_symbol
_atom_site_fract_x
_atom_site_fract_y
_atom_site_fract_z
_atom_site_U_iso_or_equiv
_atom_site_adp_type
_atom_site_occupancy
C1     C     0.52896   0.74697   0.90417   0.00000  Uiso   1.00
C2     C     0.50387   0.83051   0.89228   0.00000  Uiso   1.00
C3     C     0.51485   0.89820   0.80741   0.00000  Uiso   1.00
C4     C     0.48774   0.96902   0.81142   0.00000  Uiso   1.00
C5     C     0.45442   0.09832   0.77989   0.00000  Uiso   1.00
C6     C     0.60308   0.76195   0.94339   0.00000  Uiso   1.00
C7     C     0.69747   0.77198   0.90149   0.00000  Uiso   1.00
C8     C     0.75386   0.78507   0.94855   0.00000  Uiso   1.00
C9     C     0.87455   0.80785   0.99640   0.00000  Uiso   1.00
C10    C     0.43355   0.65217   0.98516   0.00000  Uiso   1.00
C11    C     0.38541   0.56988   0.97840   0.00000  Uiso   1.00
C12    C     0.29908   0.49053   0.06063   0.00000  Uiso   1.00
C13    C     0.15654   0.34286   0.17334   0.00000  Uiso   1.00
C14    C     0.46128   0.75238   0.06223   0.00000  Uiso   1.00
C15    C     0.46711   0.83345   0.97813   0.00000  Uiso   1.00
C16    C     0.43997   0.90418   0.98228   0.00000  Uiso   1.00
C17    C     0.45090   0.97196   0.89743   0.00000  Uiso   1.00
C18    C     0.56632   0.76489   0.02923   0.00000  Uiso   1.00
C19    C     0.62259   0.77796   0.07637   0.00000  Uiso   1.00
C20    C     0.71704   0.78801   0.03456   0.00000  Uiso   1.00
C21    C     0.39679   0.65510   0.07101   0.00000  Uiso   1.00
C22    C     0.31052   0.57586   0.15327   0.00000  Uiso   1.00
C23    C     0.26225   0.49347   0.14664   0.00000  Uiso   1.00
H24    H     0.55759   0.74469   0.83733   0.00000  Uiso   1.00
H25    H     0.54332   0.89591   0.74098   0.00000  Uiso   1.00
H26    H     0.72590   0.76969   0.83506   0.00000  Uiso   1.00
H27    H     0.41388   0.56763   0.91195   0.00000  Uiso   1.00
H28    H     0.51131   0.06488   0.67200   0.00000  Uiso   1.00
H29    H     0.89628   0.79872   0.87040   0.00000  Uiso   1.00
H30    H     0.23834   0.37262   0.03254   0.00000  Uiso   1.00
H31    H     0.43266   0.75466   0.12907   0.00000  Uiso   1.00
H32    H     0.41152   0.90643   0.04873   0.00000  Uiso   1.00
H33    H     0.59411   0.78022   0.14281   0.00000  Uiso   1.00
H34    H     0.28209   0.57816   0.21970   0.00000  Uiso   1.00
H35    H     0.40435   0.07343   0.92178   0.00000  Uiso   1.00
H36    H     0.78932   0.80726   0.12018   0.00000  Uiso   1.00
H37    H     0.13138   0.38117   0.28232   0.00000  Uiso   1.00
O38    O     0.44622   0.16883   0.73877   0.00000  Uiso   1.00
O39    O     0.95127   0.81962   0.99907   0.00000  Uiso   1.00
O40    O     0.08807   0.26060   0.21179   0.00000  Uiso   1.00
N41    N     0.48902   0.04605   0.74182   0.00000  Uiso   1.00
N42    N     0.84895   0.79722   0.92730   0.00000  Uiso   1.00
N43    N     0.23384   0.39885   0.07890   0.00000  Uiso   1.00
N44    N     0.43146   0.05065   0.87623   0.00000  Uiso   1.00
N45    N     0.79140   0.80182   0.06170   0.00000  Uiso   1.00
N46    N     0.17629   0.40345   0.21330   0.00000  Uiso   1.00
C47    C     0.21403   0.46811   0.43470   0.00000  Uiso   1.00
C48    C     0.32273   0.49152   0.39977   0.00000  Uiso   1.00
C49    C     0.37638   0.47656   0.32878   0.00000  Uiso   1.00
C50    C     0.47497   0.50274   0.30718   0.00000  Uiso   1.00
C51    C     0.63715   0.53299   0.24571   0.00000  Uiso   1.00
C52    C     0.16018   0.39855   0.54350   0.00000  Uiso   1.00
C53    C     0.07716   0.30543   0.59336   0.00000  Uiso   1.00
C54    C     0.03890   0.25336   0.69276   0.00000  Uiso   1.00
C55    C     0.94868   0.13931   0.85443   0.00000  Uiso   1.00
C56    C     0.21376   0.56435   0.42107   0.00000  Uiso   1.00
C57    C     0.17577   0.61063   0.36802   0.00000  Uiso   1.00
C58    C     0.18260   0.69814   0.36436   0.00000  Uiso   1.00
C59    C     0.17558   0.84152   0.33595   0.00000  Uiso   1.00
C60    C     0.29369   0.54121   0.52257   0.00000  Uiso   1.00
C61    C     0.36599   0.53121   0.44750   0.00000  Uiso   1.00
C62    C     0.46452   0.55743   0.42600   0.00000  Uiso   1.00
C63    C     0.51832   0.54252   0.35499   0.00000  Uiso   1.00
C64    C     0.20344   0.43825   0.59123   0.00000  Uiso   1.00
C65    C     0.16529   0.38630   0.69058   0.00000  Uiso   1.00
C66    C     0.08224   0.29313   0.74057   0.00000  Uiso   1.00
C67    C     0.25703   0.60405   0.46880   0.00000  Uiso   1.00
C68    C     0.26391   0.69150   0.46523   0.00000  Uiso   1.00
C69    C     0.22595   0.73791   0.41217   0.00000  Uiso   1.00
H70    H     0.18033   0.43720   0.39755   0.00000  Uiso   1.00
H71    H     0.34287   0.44583   0.29187   0.00000  Uiso   1.00
H72    H     0.04368   0.27473   0.55641   0.00000  Uiso   1.00
H73    H     0.14229   0.57989   0.33109   0.00000  Uiso   1.00
H74    H     0.54214   0.47287   0.19577   0.00000  Uiso   1.00
H75    H     0.91127   0.11212   0.75356   0.00000  Uiso   1.00
H76    H     0.11919   0.75559   0.27845   0.00000  Uiso   1.00
H77    H     0.32737   0.57211   0.55974   0.00000  Uiso   1.00
H78    H     0.49799   0.58815   0.46295   0.00000  Uiso   1.00
H79    H     0.19879   0.41705   0.72749   0.00000  Uiso   1.00
H80    H     0.29740   0.72220   0.50217   0.00000  Uiso   1.00
H81    H     0.66804   0.58837   0.33462   0.00000  Uiso   1.00
H82    H     0.03716   0.22763   0.89242   0.00000  Uiso   1.00
H83    H     0.24509   0.87110   0.41731   0.00000  Uiso   1.00
O84    O     0.71466   0.53870   0.19862   0.00000  Uiso   1.00
O85    O     0.88697   0.06543   0.93043   0.00000  Uiso   1.00
O86    O     0.15977   0.90965   0.30709   0.00000  Uiso   1.00
N87    N     0.54836   0.49787   0.24172   0.00000  Uiso   1.00
N88    N     0.95854   0.16059   0.76322   0.00000  Uiso   1.00
N89    N     0.15291   0.76216   0.31905   0.00000  Uiso   1.00
N90    N     0.61611   0.56003   0.31643   0.00000  Uiso   1.00
N91    N     0.02629   0.22274   0.83794   0.00000  Uiso   1.00
N92    N     0.22066   0.82432   0.39377   0.00000  Uiso   1.00
C93    C     0.24896   0.78173   0.65249   0.00000  Uiso   1.00
C94    C     0.16620   0.67512   0.72282   0.00000  Uiso   1.00
C95    C     0.09525   0.61990   0.70552   0.00000  Uiso   1.00
C96    C     0.02582   0.52371   0.77907   0.00000  Uiso   1.00
C97    C     0.89705   0.36420   0.87496   0.00000  Uiso   1.00
C98    C     0.23602   0.83921   0.70557   0.00000  Uiso   1.00
C99    C     0.22378   0.92196   0.67375   0.00000  Uiso   1.00
C100   C     0.21314   0.96390   0.73278   0.00000  Uiso   1.00
C101   C     0.19283   0.05918   0.80185   0.00000  Uiso   1.00
C102   C     0.34662   0.78108   0.63968   0.00000  Uiso   1.00
C103   C     0.42739   0.81498   0.55245   0.00000  Uiso   1.00
C104   C     0.50988   0.80800   0.55600   0.00000  Uiso   1.00
C105   C     0.66131   0.81303   0.52277   0.00000  Uiso   1.00
C106   C     0.25183   0.70910   0.81389   0.00000  Uiso   1.00
C107   C     0.16776   0.63568   0.81049   0.00000  Uiso   1.00
C108   C     0.09843   0.53955   0.88409   0.00000  Uiso   1.00
C109   C     0.02739   0.48418   0.86689   0.00000  Uiso   1.00
C110   C     0.23758   0.79977   0.79324   0.00000  Uiso   1.00
C111   C     0.22696   0.84160   0.85232   0.00000  Uiso   1.00
C112   C     0.21470   0.92438   0.82060   0.00000  Uiso   1.00
C113   C     0.34818   0.74163   0.72735   0.00000  Uiso   1.00
C114   C     0.43057   0.73461   0.73103   0.00000  Uiso   1.00
C115   C     0.51145   0.76848   0.64382   0.00000  Uiso   1.00
H116   H     0.24774   0.81245   0.58424   0.00000  Uiso   1.00
H117   H     0.09406   0.65046   0.63766   0.00000  Uiso   1.00
H118   H     0.22258   0.95247   0.60590   0.00000  Uiso   1.00
H119   H     0.42616   0.84550   0.48462   0.00000  Uiso   1.00
H120   H     0.92434   0.45348   0.73557   0.00000  Uiso   1.00
H121   H     0.19537   0.09031   0.66858   0.00000  Uiso   1.00
H122   H     0.62466   0.86474   0.41284   0.00000  Uiso   1.00
H123   H     0.25305   0.67839   0.88215   0.00000  Uiso   1.00
H124   H     0.09966   0.50904   0.95193   0.00000  Uiso   1.00
H125   H     0.22818   0.81106   0.92016   0.00000  Uiso   1.00
H126   H     0.43175   0.70408   0.79888   0.00000  Uiso   1.00
H127   H     0.92888   0.33870   0.99064   0.00000  Uiso   1.00
H128   H     0.19992   0.97554   0.92364   0.00000  Uiso   1.00
H129   H     0.62919   0.74997   0.66791   0.00000  Uiso   1.00
O130   O     0.82559   0.28711   0.90365   0.00000  Uiso   1.00
O131   O     0.18119   0.12263   0.81574   0.00000  Uiso   1.00
O132   O     0.74439   0.82668   0.48022   0.00000  Uiso   1.00
N133   N     0.94647   0.44970   0.78602   0.00000  Uiso   1.00
N134   N     0.19986   0.04510   0.72339   0.00000  Uiso   1.00
N135   N     0.60121   0.83423   0.48429   0.00000  Uiso   1.00
N136   N     0.94891   0.38794   0.92327   0.00000  Uiso   1.00
N137   N     0.20230   0.98333   0.86064   0.00000  Uiso   1.00
N138   N     0.60365   0.77247   0.62154   0.00000  Uiso   1.00
C139   C     0.47104   0.25302   0.09583   0.00000  Uiso   1.00
C140   C     0.49613   0.16949   0.10772   0.00000  Uiso   1.00
C141   C     0.48515   0.10180   0.19259   0.00000  Uiso   1.00
C142   C     0.51226   0.03098   0.18858   0.00000  Uiso   1.00
C143   C     0.54558   0.90168   0.22012   0.00000  Uiso   1.00
C144   C     0.39692   0.23805   0.05661   0.00000  Uiso   1.00
C145   C     0.30253   0.22802   0.09851   0.00000  Uiso   1.00
C146   C     0.24613   0.21493   0.05145   0.00000  Uiso   1.00
C147   C     0.12545   0.19215   0.00360   0.00000  Uiso   1.00
C148   C     0.56645   0.34783   0.01484   0.00000  Uiso   1.00
C149   C     0.61459   0.43012   0.02160   0.00000  Uiso   1.00
C150   C     0.70092   0.50947   0.93937   0.00000  Uiso   1.00
C151   C     0.84346   0.65714   0.82666   0.00000  Uiso   1.00
C152   C     0.53872   0.24762   0.93777   0.00000  Uiso   1.00
C153   C     0.53289   0.16655   0.02187   0.00000  Uiso   1.00
C154   C     0.56003   0.09582   0.01772   0.00000  Uiso   1.00
C155   C     0.54909   0.02804   0.10257   0.00000  Uiso   1.00
C156   C     0.43368   0.23511   0.97076   0.00000  Uiso   1.00
C157   C     0.37741   0.22204   0.92363   0.00000  Uiso   1.00
C158   C     0.28296   0.21199   0.96544   0.00000  Uiso   1.00
C159   C     0.60321   0.34490   0.92899   0.00000  Uiso   1.00
C160   C     0.68948   0.42414   0.84673   0.00000  Uiso   1.00
C161   C     0.73775   0.50653   0.85336   0.00000  Uiso   1.00
H162   H     0.44241   0.25531   0.16267   0.00000  Uiso   1.00
H163   H     0.45668   0.10409   0.25902   0.00000  Uiso   1.00
H164   H     0.27410   0.23031   0.16494   0.00000  Uiso   1.00
H165   H     0.58612   0.43237   0.08805   0.00000  Uiso   1.00
H166   H     0.48869   0.93512   0.32800   0.00000  Uiso   1.00
H167   H     0.10372   0.20128   0.12960   0.00000  Uiso   1.00
H168   H     0.76166   0.62738   0.96746   0.00000  Uiso   1.00
H169   H     0.56734   0.24534   0.87093   0.00000  Uiso   1.00
H170   H     0.58848   0.09357   0.95127   0.00000  Uiso   1.00
H171   H     0.40589   0.21978   0.85719   0.00000  Uiso   1.00
H172   H     0.71791   0.42184   0.78030   0.00000  Uiso   1.00
H173   H     0.59565   0.92657   0.07822   0.00000  Uiso   1.00
H174   H     0.21068   0.19274   0.87982   0.00000  Uiso   1.00
H175   H     0.86862   0.61883   0.71768   0.00000  Uiso   1.00
O176   O     0.55378   0.83117   0.26123   0.00000  Uiso   1.00
O177   O     0.04873   0.18038   0.00094   0.00000  Uiso   1.00
O178   O     0.91193   0.73940   0.78821   0.00000  Uiso   1.00
N179   N     0.51098   0.95395   0.25818   0.00000  Uiso   1.00
N180   N     0.15105   0.20278   0.07270   0.00000  Uiso   1.00
N181   N     0.76616   0.60115   0.92110   0.00000  Uiso   1.00
N182   N     0.56854   0.94935   0.12377   0.00000  Uiso   1.00
N183   N     0.20860   0.19818   0.93830   0.00000  Uiso   1.00
N184   N     0.82371   0.59655   0.78670   0.00000  Uiso   1.00
C185   C     0.78597   0.53189   0.56530   0.00000  Uiso   1.00
C186   C     0.67727   0.50848   0.60023   0.00000  Uiso   1.00
C187   C     0.62362   0.52344   0.67122   0.00000  Uiso   1.00
C188   C     0.52503   0.49726   0.69282   0.00000  Uiso   1.00
C189   C     0.36285   0.46700   0.75430   0.00000  Uiso   1.00
C190   C     0.83982   0.60145   0.45650   0.00000  Uiso   1.00
C191   C     0.92284   0.69457   0.40664   0.00000  Uiso   1.00
C192   C     0.96110   0.74664   0.30724   0.00000  Uiso   1.00
C193   C     0.05132   0.86069   0.14557   0.00000  Uiso   1.00
C194   C     0.78624   0.43565   0.57893   0.00000  Uiso   1.00
C195   C     0.82423   0.38937   0.63198   0.00000  Uiso   1.00
C196   C     0.81740   0.30186   0.63564   0.00000  Uiso   1.00
C197   C     0.82442   0.15848   0.66405   0.00000  Uiso   1.00
C198   C     0.70631   0.45879   0.47743   0.00000  Uiso   1.00
C199   C     0.63401   0.46878   0.55250   0.00000  Uiso   1.00
C200   C     0.53548   0.44257   0.57400   0.00000  Uiso   1.00
C201   C     0.48168   0.45748   0.64501   0.00000  Uiso   1.00
C202   C     0.79656   0.56175   0.40877   0.00000  Uiso   1.00
C203   C     0.83471   0.61370   0.30942   0.00000  Uiso   1.00
C204   C     0.91776   0.70687   0.25943   0.00000  Uiso   1.00
C205   C     0.74297   0.39595   0.53120   0.00000  Uiso   1.00
C206   C     0.73609   0.30850   0.53477   0.00000  Uiso   1.00
C207   C     0.77405   0.26209   0.58783   0.00000  Uiso   1.00
H208   H     0.81967   0.56280   0.60245   0.00000  Uiso   1.00
H209   H     0.65713   0.55417   0.70813   0.00000  Uiso   1.00
H210   H     0.95632   0.72526   0.44360   0.00000  Uiso   1.00
H211   H     0.85771   0.42011   0.66891   0.00000  Uiso   1.00
H212   H     0.45786   0.52713   0.80423   0.00000  Uiso   1.00
H213   H     0.08873   0.88788   0.24644   0.00000  Uiso   1.00
H214   H     0.88081   0.24441   0.72155   0.00000  Uiso   1.00
H215   H     0.67263   0.42789   0.44026   0.00000  Uiso   1.00
H216   H     0.50201   0.41185   0.53706   0.00000  Uiso   1.00
H217   H     0.80120   0.58295   0.27251   0.00000  Uiso   1.00
H218   H     0.70260   0.27780   0.49783   0.00000  Uiso   1.00
H219   H     0.33196   0.41162   0.66538   0.00000  Uiso   1.00
H220   H     0.96284   0.77237   0.10758   0.00000  Uiso   1.00
H221   H     0.75491   0.12890   0.58269   0.00000  Uiso   1.00
O222   O     0.28534   0.46130   0.80138   0.00000  Uiso   1.00
O223   O     0.11303   0.93457   0.06957   0.00000  Uiso   1.00
O224   O     0.84023   0.09035   0.69291   0.00000  Uiso   1.00
N225   N     0.45164   0.50213   0.75828   0.00000  Uiso   1.00
N226   N     0.04146   0.83941   0.23678   0.00000  Uiso   1.00
N227   N     0.84709   0.23784   0.68095   0.00000  Uiso   1.00
N228   N     0.38389   0.43997   0.68357   0.00000  Uiso   1.00
N229   N     0.97371   0.77726   0.16206   0.00000  Uiso   1.00
N230   N     0.77934   0.17568   0.60623   0.00000  Uiso   1.00
C231   C     0.75104   0.21827   0.34751   0.00000  Uiso   1.00
C232   C     0.83380   0.32487   0.27718   0.00000  Uiso   1.00
C233   C     0.90475   0.38010   0.29449   0.00000  Uiso   1.00
C234   C     0.97418   0.47629   0.22093   0.00000  Uiso   1.00
C235   C     0.10295   0.63580   0.12504   0.00000  Uiso   1.00
C236   C     0.76398   0.16079   0.29443   0.00000  Uiso   1.00
C237   C     0.77622   0.07804   0.32625   0.00000  Uiso   1.00
C238   C     0.78686   0.03610   0.26722   0.00000  Uiso   1.00
C239   C     0.80716   0.94082   0.19815   0.00000  Uiso   1.00
C240   C     0.65338   0.21892   0.36032   0.00000  Uiso   1.00
C241   C     0.57261   0.18502   0.44755   0.00000  Uiso   1.00
C242   C     0.49011   0.19200   0.44400   0.00000  Uiso   1.00
C243   C     0.33869   0.18697   0.47724   0.00000  Uiso   1.00
C244   C     0.74817   0.29090   0.18611   0.00000  Uiso   1.00
C245   C     0.83224   0.36432   0.18951   0.00000  Uiso   1.00
C246   C     0.90157   0.46045   0.11591   0.00000  Uiso   1.00
C247   C     0.97261   0.51581   0.13311   0.00000  Uiso   1.00
C248   C     0.76242   0.20023   0.20676   0.00000  Uiso   1.00
C249   C     0.77304   0.15840   0.14768   0.00000  Uiso   1.00
C250   C     0.78530   0.07561   0.17940   0.00000  Uiso   1.00
C251   C     0.65182   0.25837   0.27265   0.00000  Uiso   1.00
C252   C     0.56943   0.26538   0.26897   0.00000  Uiso   1.00
C253   C     0.48855   0.23152   0.35618   0.00000  Uiso   1.00
H254   H     0.75226   0.18755   0.41576   0.00000  Uiso   1.00
H255   H     0.90594   0.34954   0.36234   0.00000  Uiso   1.00
H256   H     0.77742   0.04753   0.39410   0.00000  Uiso   1.00
H257   H     0.57384   0.15450   0.51538   0.00000  Uiso   1.00
H258   H     0.07566   0.54652   0.26443   0.00000  Uiso   1.00
H259   H     0.80463   0.90968   0.33142   0.00000  Uiso   1.00
H260   H     0.37534   0.13525   0.58716   0.00000  Uiso   1.00
H261   H     0.74695   0.32161   0.11785   0.00000  Uiso   1.00
H262   H     0.90034   0.49096   0.04808   0.00000  Uiso   1.00
H263   H     0.77182   0.18894   0.07984   0.00000  Uiso   1.00
H264   H     0.56825   0.29592   0.20112   0.00000  Uiso   1.00
H265   H     0.07112   0.66130   0.00936   0.00000  Uiso   1.00
H266   H     0.80008   0.02446   0.07636   0.00000  Uiso   1.00
H267   H     0.37080   0.25003   0.33209   0.00000  Uiso   1.00
O268   O     0.17441   0.71289   0.09635   0.00000  Uiso   1.00
O269   O     0.81881   0.87737   0.18426   0.00000  Uiso   1.00
O270   O     0.25561   0.17332   0.51978   0.00000  Uiso   1.00
N271   N     0.05353   0.55030   0.21398   0.00000  Uiso   1.00
N272   N     0.80014   0.95490   0.27661   0.00000  Uiso   1.00
N273   N     0.39879   0.16577   0.51571   0.00000  Uiso   1.00
N274   N     0.05108   0.61206   0.07673   0.00000  Uiso   1.00
N275   N     0.79770   0.01667   0.13936   0.00000  Uiso   1.00
N276   N     0.39635   0.22753   0.37846   0.00000  Uiso   1.00
