data_job_02306
_audit_creation_date              2018-12-19
_audit_creation_method            'Materials Studio'
_symmetry_space_group_name_H-M    'P1'
_symmetry_Int_Tables_number       1
_symmetry_cell_setting            triclinic
loop_
_symmetry_equiv_pos_as_xyz
  x,y,z
_cell_length_a                    12.3732
_cell_length_b                    10.9629
_cell_length_c                    23.7153
_cell_angle_alpha                 90.0000
_cell_angle_beta                  79.0813
_cell_angle_gamma                 90.0000
loop_
_atom_site_label
_atom_site_type_symbol
_atom_site_fract_x
_atom_site_fract_y
_atom_site_fract_z
_atom_site_U_iso_or_equiv
_atom_site_adp_type
_atom_site_occupancy
C1     C     0.23970   0.66244   0.90594   0.00000  Uiso   1.00
C2     C     0.28394   0.65607   0.84146   0.00000  Uiso   1.00
C3     C     0.28609   0.55277   0.80744   0.00000  Uiso   1.00
C4     C     0.32993   0.56576   0.74938   0.00000  Uiso   1.00
C5     C     0.39256   0.53876   0.65279   0.00000  Uiso   1.00
C6     C     0.33389   0.71099   0.93272   0.00000  Uiso   1.00
C7     C     0.37802   0.65388   0.97544   0.00000  Uiso   1.00
C8     C     0.46388   0.71311   0.99421   0.00000  Uiso   1.00
C9     C     0.60400   0.77143   0.03934   0.00000  Uiso   1.00
C10    C     0.15201   0.76196   0.91442   0.00000  Uiso   1.00
C11    C     0.04322   0.74771   0.94176   0.00000  Uiso   1.00
C12    C     0.97596   0.84986   0.94512   0.00000  Uiso   1.00
C13    C     0.83369   0.98731   0.96182   0.00000  Uiso   1.00
C14    C     0.31372   0.86920   0.86331   0.00000  Uiso   1.00
C15    C     0.32415   0.76838   0.81831   0.00000  Uiso   1.00
C16    C     0.36798   0.78153   0.76028   0.00000  Uiso   1.00
C17    C     0.37020   0.67826   0.72618   0.00000  Uiso   1.00
C18    C     0.37409   0.82329   0.90958   0.00000  Uiso   1.00
C19    C     0.45991   0.88263   0.92829   0.00000  Uiso   1.00
C20    C     0.50416   0.82562   0.97102   0.00000  Uiso   1.00
C21    C     0.19221   0.87426   0.89126   0.00000  Uiso   1.00
C22    C     0.12511   0.97646   0.89459   0.00000  Uiso   1.00
C23    C     0.01624   0.96237   0.92193   0.00000  Uiso   1.00
H24    H     0.20840   0.57501   0.92396   0.00000  Uiso   1.00
H25    H     0.25498   0.46587   0.82538   0.00000  Uiso   1.00
H26    H     0.34688   0.56698   0.99335   0.00000  Uiso   1.00
H27    H     0.01214   0.66079   0.95967   0.00000  Uiso   1.00
H28    H     0.32439   0.39439   0.70587   0.00000  Uiso   1.00
H29    H     0.51814   0.60758   0.06007   0.00000  Uiso   1.00
H30    H     0.81226   0.80541   0.98904   0.00000  Uiso   1.00
H31    H     0.34502   0.95664   0.84529   0.00000  Uiso   1.00
H32    H     0.39909   0.86845   0.74238   0.00000  Uiso   1.00
H33    H     0.49099   0.96954   0.91036   0.00000  Uiso   1.00
H34    H     0.15625   0.06335   0.87667   0.00000  Uiso   1.00
H35    H     0.44136   0.72113   0.63851   0.00000  Uiso   1.00
H36    H     0.63511   0.93432   0.99272   0.00000  Uiso   1.00
H37    H     0.92924   0.13215   0.92168   0.00000  Uiso   1.00
O38    O     0.41601   0.49285   0.60591   0.00000  Uiso   1.00
O39    O     0.67019   0.77256   0.07063   0.00000  Uiso   1.00
O40    O     0.74410   0.03209   0.97743   0.00000  Uiso   1.00
N41    N     0.34447   0.48340   0.70413   0.00000  Uiso   1.00
N42    N     0.52563   0.68271   0.03529   0.00000  Uiso   1.00
N43    N     0.86571   0.86767   0.96889   0.00000  Uiso   1.00
N44    N     0.40741   0.65921   0.66789   0.00000  Uiso   1.00
N45    N     0.58857   0.85853   0.99904   0.00000  Uiso   1.00
N46    N     0.92865   0.04349   0.93265   0.00000  Uiso   1.00
C47    C     0.76030   0.66244   0.59406   0.00000  Uiso   1.00
C48    C     0.71606   0.65607   0.65854   0.00000  Uiso   1.00
C49    C     0.71391   0.55277   0.69256   0.00000  Uiso   1.00
C50    C     0.67007   0.56576   0.75062   0.00000  Uiso   1.00
C51    C     0.60744   0.53876   0.84721   0.00000  Uiso   1.00
C52    C     0.66611   0.71099   0.56728   0.00000  Uiso   1.00
C53    C     0.62198   0.65388   0.52456   0.00000  Uiso   1.00
C54    C     0.53612   0.71311   0.50579   0.00000  Uiso   1.00
C55    C     0.39600   0.77143   0.46066   0.00000  Uiso   1.00
C56    C     0.84799   0.76196   0.58558   0.00000  Uiso   1.00
C57    C     0.95678   0.74771   0.55824   0.00000  Uiso   1.00
C58    C     0.02404   0.84986   0.55488   0.00000  Uiso   1.00
C59    C     0.16631   0.98731   0.53818   0.00000  Uiso   1.00
C60    C     0.68628   0.86920   0.63669   0.00000  Uiso   1.00
C61    C     0.67585   0.76838   0.68169   0.00000  Uiso   1.00
C62    C     0.63202   0.78153   0.73972   0.00000  Uiso   1.00
C63    C     0.62980   0.67826   0.77382   0.00000  Uiso   1.00
C64    C     0.62591   0.82329   0.59042   0.00000  Uiso   1.00
C65    C     0.54009   0.88263   0.57171   0.00000  Uiso   1.00
C66    C     0.49584   0.82562   0.52898   0.00000  Uiso   1.00
C67    C     0.80779   0.87426   0.60874   0.00000  Uiso   1.00
C68    C     0.87489   0.97646   0.60541   0.00000  Uiso   1.00
C69    C     0.98376   0.96237   0.57807   0.00000  Uiso   1.00
H70    H     0.79160   0.57501   0.57604   0.00000  Uiso   1.00
H71    H     0.74502   0.46587   0.67462   0.00000  Uiso   1.00
H72    H     0.65312   0.56698   0.50665   0.00000  Uiso   1.00
H73    H     0.98786   0.66079   0.54033   0.00000  Uiso   1.00
H74    H     0.67561   0.39439   0.79413   0.00000  Uiso   1.00
H75    H     0.48186   0.60758   0.43993   0.00000  Uiso   1.00
H76    H     0.18774   0.80541   0.51096   0.00000  Uiso   1.00
H77    H     0.65498   0.95664   0.65471   0.00000  Uiso   1.00
H78    H     0.60091   0.86845   0.75762   0.00000  Uiso   1.00
H79    H     0.50901   0.96954   0.58964   0.00000  Uiso   1.00
H80    H     0.84375   0.06335   0.62333   0.00000  Uiso   1.00
H81    H     0.55864   0.72113   0.86149   0.00000  Uiso   1.00
H82    H     0.36489   0.93432   0.50728   0.00000  Uiso   1.00
H83    H     0.07076   0.13215   0.57832   0.00000  Uiso   1.00
O84    O     0.58399   0.49285   0.89409   0.00000  Uiso   1.00
O85    O     0.32981   0.77256   0.42937   0.00000  Uiso   1.00
O86    O     0.25590   0.03209   0.52257   0.00000  Uiso   1.00
N87    N     0.65553   0.48340   0.79587   0.00000  Uiso   1.00
N88    N     0.47437   0.68271   0.46471   0.00000  Uiso   1.00
N89    N     0.13429   0.86767   0.53111   0.00000  Uiso   1.00
N90    N     0.59259   0.65921   0.83211   0.00000  Uiso   1.00
N91    N     0.41143   0.85853   0.50096   0.00000  Uiso   1.00
N92    N     0.07135   0.04349   0.56735   0.00000  Uiso   1.00
C93    C     0.76030   0.33756   0.09406   0.00000  Uiso   1.00
C94    C     0.71606   0.34393   0.15854   0.00000  Uiso   1.00
C95    C     0.71391   0.44723   0.19256   0.00000  Uiso   1.00
C96    C     0.67007   0.43424   0.25062   0.00000  Uiso   1.00
C97    C     0.60744   0.46124   0.34721   0.00000  Uiso   1.00
C98    C     0.66611   0.28901   0.06728   0.00000  Uiso   1.00
C99    C     0.62198   0.34612   0.02456   0.00000  Uiso   1.00
C100   C     0.53612   0.28689   0.00579   0.00000  Uiso   1.00
C101   C     0.39600   0.22857   0.96066   0.00000  Uiso   1.00
C102   C     0.84799   0.23804   0.08558   0.00000  Uiso   1.00
C103   C     0.95678   0.25229   0.05824   0.00000  Uiso   1.00
C104   C     0.02404   0.15014   0.05488   0.00000  Uiso   1.00
C105   C     0.16631   0.01269   0.03818   0.00000  Uiso   1.00
C106   C     0.68628   0.13080   0.13669   0.00000  Uiso   1.00
C107   C     0.67585   0.23162   0.18169   0.00000  Uiso   1.00
C108   C     0.63202   0.21847   0.23972   0.00000  Uiso   1.00
C109   C     0.62980   0.32174   0.27382   0.00000  Uiso   1.00
C110   C     0.62591   0.17671   0.09042   0.00000  Uiso   1.00
C111   C     0.54009   0.11737   0.07171   0.00000  Uiso   1.00
C112   C     0.49584   0.17438   0.02898   0.00000  Uiso   1.00
C113   C     0.80779   0.12574   0.10874   0.00000  Uiso   1.00
C114   C     0.87489   0.02354   0.10541   0.00000  Uiso   1.00
C115   C     0.98376   0.03763   0.07807   0.00000  Uiso   1.00
H116   H     0.79160   0.42499   0.07604   0.00000  Uiso   1.00
H117   H     0.74502   0.53413   0.17462   0.00000  Uiso   1.00
H118   H     0.65312   0.43302   0.00665   0.00000  Uiso   1.00
H119   H     0.98786   0.33921   0.04033   0.00000  Uiso   1.00
H120   H     0.67561   0.60561   0.29413   0.00000  Uiso   1.00
H121   H     0.48186   0.39242   0.93993   0.00000  Uiso   1.00
H122   H     0.18774   0.19459   0.01096   0.00000  Uiso   1.00
H123   H     0.65498   0.04336   0.15471   0.00000  Uiso   1.00
H124   H     0.60091   0.13155   0.25762   0.00000  Uiso   1.00
H125   H     0.50901   0.03046   0.08964   0.00000  Uiso   1.00
H126   H     0.84375   0.93665   0.12333   0.00000  Uiso   1.00
H127   H     0.55864   0.27887   0.36149   0.00000  Uiso   1.00
H128   H     0.36489   0.06568   0.00728   0.00000  Uiso   1.00
H129   H     0.07076   0.86785   0.07832   0.00000  Uiso   1.00
O130   O     0.58399   0.50715   0.39409   0.00000  Uiso   1.00
O131   O     0.32981   0.22744   0.92937   0.00000  Uiso   1.00
O132   O     0.25590   0.96791   0.02257   0.00000  Uiso   1.00
N133   N     0.65553   0.51660   0.29587   0.00000  Uiso   1.00
N134   N     0.47437   0.31729   0.96471   0.00000  Uiso   1.00
N135   N     0.13429   0.13233   0.03111   0.00000  Uiso   1.00
N136   N     0.59259   0.34079   0.33211   0.00000  Uiso   1.00
N137   N     0.41143   0.14147   0.00096   0.00000  Uiso   1.00
N138   N     0.07135   0.95651   0.06735   0.00000  Uiso   1.00
C139   C     0.23970   0.33756   0.40594   0.00000  Uiso   1.00
C140   C     0.28394   0.34393   0.34146   0.00000  Uiso   1.00
C141   C     0.28609   0.44723   0.30744   0.00000  Uiso   1.00
C142   C     0.32993   0.43424   0.24938   0.00000  Uiso   1.00
C143   C     0.39256   0.46124   0.15279   0.00000  Uiso   1.00
C144   C     0.33389   0.28901   0.43272   0.00000  Uiso   1.00
C145   C     0.37802   0.34612   0.47544   0.00000  Uiso   1.00
C146   C     0.46388   0.28689   0.49421   0.00000  Uiso   1.00
C147   C     0.60400   0.22857   0.53934   0.00000  Uiso   1.00
C148   C     0.15201   0.23804   0.41442   0.00000  Uiso   1.00
C149   C     0.04322   0.25229   0.44176   0.00000  Uiso   1.00
C150   C     0.97596   0.15014   0.44512   0.00000  Uiso   1.00
C151   C     0.83369   0.01269   0.46182   0.00000  Uiso   1.00
C152   C     0.31372   0.13080   0.36331   0.00000  Uiso   1.00
C153   C     0.32415   0.23162   0.31831   0.00000  Uiso   1.00
C154   C     0.36798   0.21847   0.26028   0.00000  Uiso   1.00
C155   C     0.37020   0.32174   0.22618   0.00000  Uiso   1.00
C156   C     0.37409   0.17671   0.40958   0.00000  Uiso   1.00
C157   C     0.45991   0.11737   0.42829   0.00000  Uiso   1.00
C158   C     0.50416   0.17438   0.47102   0.00000  Uiso   1.00
C159   C     0.19221   0.12574   0.39126   0.00000  Uiso   1.00
C160   C     0.12511   0.02354   0.39459   0.00000  Uiso   1.00
C161   C     0.01624   0.03763   0.42193   0.00000  Uiso   1.00
H162   H     0.20840   0.42499   0.42396   0.00000  Uiso   1.00
H163   H     0.25498   0.53413   0.32538   0.00000  Uiso   1.00
H164   H     0.34688   0.43302   0.49335   0.00000  Uiso   1.00
H165   H     0.01214   0.33921   0.45967   0.00000  Uiso   1.00
H166   H     0.32439   0.60561   0.20587   0.00000  Uiso   1.00
H167   H     0.51814   0.39242   0.56007   0.00000  Uiso   1.00
H168   H     0.81226   0.19459   0.48904   0.00000  Uiso   1.00
H169   H     0.34502   0.04336   0.34529   0.00000  Uiso   1.00
H170   H     0.39909   0.13155   0.24238   0.00000  Uiso   1.00
H171   H     0.49099   0.03046   0.41036   0.00000  Uiso   1.00
H172   H     0.15625   0.93665   0.37667   0.00000  Uiso   1.00
H173   H     0.44136   0.27887   0.13851   0.00000  Uiso   1.00
H174   H     0.63511   0.06568   0.49272   0.00000  Uiso   1.00
H175   H     0.92924   0.86785   0.42168   0.00000  Uiso   1.00
O176   O     0.41601   0.50715   0.10591   0.00000  Uiso   1.00
O177   O     0.67019   0.22744   0.57063   0.00000  Uiso   1.00
O178   O     0.74410   0.96791   0.47743   0.00000  Uiso   1.00
N179   N     0.34447   0.51660   0.20413   0.00000  Uiso   1.00
N180   N     0.52563   0.31729   0.53529   0.00000  Uiso   1.00
N181   N     0.86571   0.13233   0.46889   0.00000  Uiso   1.00
N182   N     0.40741   0.34079   0.16789   0.00000  Uiso   1.00
N183   N     0.58857   0.14147   0.49904   0.00000  Uiso   1.00
N184   N     0.92865   0.95651   0.43265   0.00000  Uiso   1.00
