data_job_04674
_audit_creation_date              2018-12-19
_audit_creation_method            'Materials Studio'
_symmetry_space_group_name_H-M    'P1'
_symmetry_Int_Tables_number       1
_symmetry_cell_setting            triclinic
loop_
_symmetry_equiv_pos_as_xyz
  x,y,z
_cell_length_a                    12.4501
_cell_length_b                    14.2172
_cell_length_c                    25.4757
_cell_angle_alpha                 90.0000
_cell_angle_beta                  90.0000
_cell_angle_gamma                 90.0000
loop_
_atom_site_label
_atom_site_type_symbol
_atom_site_fract_x
_atom_site_fract_y
_atom_site_fract_z
_atom_site_U_iso_or_equiv
_atom_site_adp_type
_atom_site_occupancy
C1     C     0.38187   0.46493   0.56701   0.00000  Uiso   1.00
C2     C     0.39162   0.37413   0.59852   0.00000  Uiso   1.00
C3     C     0.37310   0.28410   0.57952   0.00000  Uiso   1.00
C4     C     0.38629   0.21023   0.61458   0.00000  Uiso   1.00
C5     C     0.39672   0.06685   0.65557   0.00000  Uiso   1.00
C6     C     0.30221   0.52653   0.59677   0.00000  Uiso   1.00
C7     C     0.20851   0.56463   0.57630   0.00000  Uiso   1.00
C8     C     0.14645   0.61905   0.60989   0.00000  Uiso   1.00
C9     C     0.01811   0.71233   0.64816   0.00000  Uiso   1.00
C10    C     0.49041   0.51394   0.57155   0.00000  Uiso   1.00
C11    C     0.55496   0.54150   0.52988   0.00000  Uiso   1.00
C12    C     0.65134   0.58535   0.54224   0.00000  Uiso   1.00
C13    C     0.81521   0.65910   0.54136   0.00000  Uiso   1.00
C14    C     0.43826   0.49384   0.66305   0.00000  Uiso   1.00
C15    C     0.42225   0.38984   0.65068   0.00000  Uiso   1.00
C16    C     0.43549   0.31608   0.68577   0.00000  Uiso   1.00
C17    C     0.41698   0.22595   0.66683   0.00000  Uiso   1.00
C18    C     0.33283   0.54223   0.64893   0.00000  Uiso   1.00
C19    C     0.27090   0.59662   0.68255   0.00000  Uiso   1.00
C20    C     0.17714   0.63479   0.66215   0.00000  Uiso   1.00
C21    C     0.52105   0.52965   0.62372   0.00000  Uiso   1.00
C22    C     0.61735   0.57348   0.63614   0.00000  Uiso   1.00
C23    C     0.68203   0.60108   0.59450   0.00000  Uiso   1.00
H24    H     0.35802   0.45271   0.52640   0.00000  Uiso   1.00
H25    H     0.34938   0.27198   0.53915   0.00000  Uiso   1.00
H26    H     0.18484   0.55247   0.53593   0.00000  Uiso   1.00
H27    H     0.53123   0.52933   0.48952   0.00000  Uiso   1.00
H28    H     0.35328   0.07853   0.57630   0.00000  Uiso   1.00
H29    H     0.00634   0.67000   0.56951   0.00000  Uiso   1.00
H30    H     0.73677   0.62121   0.47164   0.00000  Uiso   1.00
H31    H     0.46211   0.50607   0.70366   0.00000  Uiso   1.00
H32    H     0.45919   0.32826   0.72614   0.00000  Uiso   1.00
H33    H     0.29464   0.60876   0.72292   0.00000  Uiso   1.00
H34    H     0.64102   0.58562   0.67651   0.00000  Uiso   1.00
H35    H     0.44239   0.12421   0.72806   0.00000  Uiso   1.00
H36    H     0.09546   0.71568   0.72127   0.00000  Uiso   1.00
H37    H     0.82588   0.66689   0.62341   0.00000  Uiso   1.00
O38    O     0.39400   0.98344   0.66377   0.00000  Uiso   1.00
O39    O     0.93885   0.75944   0.65486   0.00000  Uiso   1.00
O40    O     0.89715   0.69542   0.52647   0.00000  Uiso   1.00
N41    N     0.37467   0.11368   0.60893   0.00000  Uiso   1.00
N42    N     0.05030   0.66666   0.60258   0.00000  Uiso   1.00
N43    N     0.73317   0.62107   0.51109   0.00000  Uiso   1.00
N44    N     0.42263   0.13826   0.69059   0.00000  Uiso   1.00
N45    N     0.09825   0.69124   0.68425   0.00000  Uiso   1.00
N46    N     0.78113   0.64565   0.59275   0.00000  Uiso   1.00
C47    C     0.43162   0.98515   0.40472   0.00000  Uiso   1.00
C48    C     0.41705   0.88890   0.37928   0.00000  Uiso   1.00
C49    C     0.43524   0.80281   0.40337   0.00000  Uiso   1.00
C50    C     0.41730   0.72275   0.37341   0.00000  Uiso   1.00
C51    C     0.40004   0.57241   0.34183   0.00000  Uiso   1.00
C52    C     0.50992   0.03877   0.36975   0.00000  Uiso   1.00
C53    C     0.60617   0.07869   0.38583   0.00000  Uiso   1.00
C54    C     0.66639   0.12480   0.34785   0.00000  Uiso   1.00
C55    C     0.79327   0.20719   0.30148   0.00000  Uiso   1.00
C56    C     0.32389   0.03525   0.39934   0.00000  Uiso   1.00
C57    C     0.26373   0.07224   0.44029   0.00000  Uiso   1.00
C58    C     0.16733   0.11541   0.42723   0.00000  Uiso   1.00
C59    C     0.00537   0.19233   0.42680   0.00000  Uiso   1.00
C60    C     0.36740   0.99606   0.30870   0.00000  Uiso   1.00
C61    C     0.38218   0.89483   0.32712   0.00000  Uiso   1.00
C62    C     0.36420   0.81488   0.29713   0.00000  Uiso   1.00
C63    C     0.38235   0.72869   0.32116   0.00000  Uiso   1.00
C64    C     0.47504   0.04469   0.31759   0.00000  Uiso   1.00
C65    C     0.53513   0.09076   0.27959   0.00000  Uiso   1.00
C66    C     0.63145   0.13074   0.29560   0.00000  Uiso   1.00
C67    C     0.28900   0.04117   0.34718   0.00000  Uiso   1.00
C68    C     0.19269   0.08431   0.33405   0.00000  Uiso   1.00
C69    C     0.13240   0.12135   0.37498   0.00000  Uiso   1.00
H70    H     0.45878   0.98054   0.44533   0.00000  Uiso   1.00
H71    H     0.46224   0.79825   0.44373   0.00000  Uiso   1.00
H72    H     0.63314   0.07410   0.42619   0.00000  Uiso   1.00
H73    H     0.29075   0.06764   0.48065   0.00000  Uiso   1.00
H74    H     0.45074   0.59878   0.41895   0.00000  Uiso   1.00
H75    H     0.81107   0.18044   0.38198   0.00000  Uiso   1.00
H76    H     0.08907   0.16683   0.49681   0.00000  Uiso   1.00
H77    H     0.34025   0.00067   0.26809   0.00000  Uiso   1.00
H78    H     0.33721   0.81949   0.25676   0.00000  Uiso   1.00
H79    H     0.50811   0.09534   0.23923   0.00000  Uiso   1.00
H80    H     0.16572   0.08888   0.29368   0.00000  Uiso   1.00
H81    H     0.34926   0.61601   0.26720   0.00000  Uiso   1.00
H82    H     0.70959   0.19768   0.23023   0.00000  Uiso   1.00
H83    H     0.98760   0.18406   0.34506   0.00000  Uiso   1.00
O84    O     0.40017   0.48785   0.33882   0.00000  Uiso   1.00
O85    O     0.87290   0.25098   0.29031   0.00000  Uiso   1.00
O86    O     0.92566   0.23311   0.44097   0.00000  Uiso   1.00
N87    N     0.42725   0.62770   0.38479   0.00000  Uiso   1.00
N88    N     0.76415   0.17151   0.35022   0.00000  Uiso   1.00
N89    N     0.08916   0.15880   0.45758   0.00000  Uiso   1.00
N90    N     0.37265   0.63697   0.30314   0.00000  Uiso   1.00
N91    N     0.70954   0.18078   0.26857   0.00000  Uiso   1.00
N92    N     0.03455   0.16807   0.37593   0.00000  Uiso   1.00
C93    C     0.61813   0.53507   0.06701   0.00000  Uiso   1.00
C94    C     0.60838   0.62587   0.09852   0.00000  Uiso   1.00
C95    C     0.62690   0.71590   0.07952   0.00000  Uiso   1.00
C96    C     0.61371   0.78977   0.11458   0.00000  Uiso   1.00
C97    C     0.60328   0.93315   0.15557   0.00000  Uiso   1.00
C98    C     0.69779   0.47347   0.09677   0.00000  Uiso   1.00
C99    C     0.79149   0.43537   0.07630   0.00000  Uiso   1.00
C100   C     0.85355   0.38095   0.10989   0.00000  Uiso   1.00
C101   C     0.98189   0.28767   0.14816   0.00000  Uiso   1.00
C102   C     0.50959   0.48606   0.07155   0.00000  Uiso   1.00
C103   C     0.44504   0.45850   0.02988   0.00000  Uiso   1.00
C104   C     0.34866   0.41465   0.04224   0.00000  Uiso   1.00
C105   C     0.18479   0.34090   0.04136   0.00000  Uiso   1.00
C106   C     0.56174   0.50616   0.16305   0.00000  Uiso   1.00
C107   C     0.57775   0.61016   0.15068   0.00000  Uiso   1.00
C108   C     0.56451   0.68392   0.18577   0.00000  Uiso   1.00
C109   C     0.58302   0.77405   0.16683   0.00000  Uiso   1.00
C110   C     0.66717   0.45777   0.14893   0.00000  Uiso   1.00
C111   C     0.72910   0.40338   0.18255   0.00000  Uiso   1.00
C112   C     0.82286   0.36521   0.16215   0.00000  Uiso   1.00
C113   C     0.47895   0.47035   0.12372   0.00000  Uiso   1.00
C114   C     0.38265   0.42652   0.13614   0.00000  Uiso   1.00
C115   C     0.31797   0.39892   0.09450   0.00000  Uiso   1.00
H116   H     0.64198   0.54729   0.02640   0.00000  Uiso   1.00
H117   H     0.65062   0.72802   0.03915   0.00000  Uiso   1.00
H118   H     0.81516   0.44753   0.03593   0.00000  Uiso   1.00
H119   H     0.46877   0.47067   0.98952   0.00000  Uiso   1.00
H120   H     0.64672   0.92147   0.07630   0.00000  Uiso   1.00
H121   H     0.99366   0.33000   0.06951   0.00000  Uiso   1.00
H122   H     0.26323   0.37879   0.97164   0.00000  Uiso   1.00
H123   H     0.53789   0.49393   0.20366   0.00000  Uiso   1.00
H124   H     0.54081   0.67174   0.22614   0.00000  Uiso   1.00
H125   H     0.70536   0.39124   0.22292   0.00000  Uiso   1.00
H126   H     0.35898   0.41438   0.17651   0.00000  Uiso   1.00
H127   H     0.55761   0.87579   0.22806   0.00000  Uiso   1.00
H128   H     0.90454   0.28432   0.22127   0.00000  Uiso   1.00
H129   H     0.17412   0.33311   0.12341   0.00000  Uiso   1.00
O130   O     0.60600   0.01656   0.16377   0.00000  Uiso   1.00
O131   O     0.06115   0.24056   0.15486   0.00000  Uiso   1.00
O132   O     0.10285   0.30458   0.02647   0.00000  Uiso   1.00
N133   N     0.62533   0.88632   0.10893   0.00000  Uiso   1.00
N134   N     0.94970   0.33334   0.10258   0.00000  Uiso   1.00
N135   N     0.26683   0.37893   0.01109   0.00000  Uiso   1.00
N136   N     0.57737   0.86174   0.19059   0.00000  Uiso   1.00
N137   N     0.90175   0.30876   0.18425   0.00000  Uiso   1.00
N138   N     0.21887   0.35435   0.09275   0.00000  Uiso   1.00
C139   C     0.56838   0.01485   0.90472   0.00000  Uiso   1.00
C140   C     0.58295   0.11110   0.87928   0.00000  Uiso   1.00
C141   C     0.56476   0.19719   0.90337   0.00000  Uiso   1.00
C142   C     0.58270   0.27725   0.87341   0.00000  Uiso   1.00
C143   C     0.59996   0.42759   0.84183   0.00000  Uiso   1.00
C144   C     0.49008   0.96123   0.86975   0.00000  Uiso   1.00
C145   C     0.39383   0.92131   0.88583   0.00000  Uiso   1.00
C146   C     0.33361   0.87520   0.84785   0.00000  Uiso   1.00
C147   C     0.20673   0.79281   0.80148   0.00000  Uiso   1.00
C148   C     0.67611   0.96475   0.89934   0.00000  Uiso   1.00
C149   C     0.73627   0.92776   0.94029   0.00000  Uiso   1.00
C150   C     0.83267   0.88459   0.92723   0.00000  Uiso   1.00
C151   C     0.99463   0.80767   0.92680   0.00000  Uiso   1.00
C152   C     0.63260   0.00394   0.80870   0.00000  Uiso   1.00
C153   C     0.61782   0.10517   0.82712   0.00000  Uiso   1.00
C154   C     0.63580   0.18512   0.79713   0.00000  Uiso   1.00
C155   C     0.61765   0.27131   0.82116   0.00000  Uiso   1.00
C156   C     0.52496   0.95531   0.81759   0.00000  Uiso   1.00
C157   C     0.46487   0.90924   0.77959   0.00000  Uiso   1.00
C158   C     0.36855   0.86926   0.79560   0.00000  Uiso   1.00
C159   C     0.71100   0.95883   0.84718   0.00000  Uiso   1.00
C160   C     0.80731   0.91569   0.83405   0.00000  Uiso   1.00
C161   C     0.86760   0.87865   0.87498   0.00000  Uiso   1.00
H162   H     0.54122   0.01946   0.94533   0.00000  Uiso   1.00
H163   H     0.53776   0.20175   0.94373   0.00000  Uiso   1.00
H164   H     0.36686   0.92590   0.92619   0.00000  Uiso   1.00
H165   H     0.70925   0.93236   0.98065   0.00000  Uiso   1.00
H166   H     0.54926   0.40122   0.91895   0.00000  Uiso   1.00
H167   H     0.18893   0.81956   0.88198   0.00000  Uiso   1.00
H168   H     0.91093   0.83317   0.99681   0.00000  Uiso   1.00
H169   H     0.65975   0.99933   0.76809   0.00000  Uiso   1.00
H170   H     0.66279   0.18051   0.75676   0.00000  Uiso   1.00
H171   H     0.49189   0.90466   0.73923   0.00000  Uiso   1.00
H172   H     0.83428   0.91112   0.79368   0.00000  Uiso   1.00
H173   H     0.65074   0.38399   0.76720   0.00000  Uiso   1.00
H174   H     0.29041   0.80232   0.73023   0.00000  Uiso   1.00
H175   H     0.01240   0.81594   0.84506   0.00000  Uiso   1.00
O176   O     0.59983   0.51215   0.83882   0.00000  Uiso   1.00
O177   O     0.12710   0.74902   0.79031   0.00000  Uiso   1.00
O178   O     0.07434   0.76689   0.94097   0.00000  Uiso   1.00
N179   N     0.57275   0.37230   0.88479   0.00000  Uiso   1.00
N180   N     0.23585   0.82849   0.85022   0.00000  Uiso   1.00
N181   N     0.91084   0.84120   0.95758   0.00000  Uiso   1.00
N182   N     0.62735   0.36303   0.80314   0.00000  Uiso   1.00
N183   N     0.29046   0.81922   0.76857   0.00000  Uiso   1.00
N184   N     0.96545   0.83193   0.87593   0.00000  Uiso   1.00
C185   C     0.88187   0.03507   0.56701   0.00000  Uiso   1.00
C186   C     0.89162   0.12587   0.59852   0.00000  Uiso   1.00
C187   C     0.87310   0.21590   0.57952   0.00000  Uiso   1.00
C188   C     0.88629   0.28977   0.61458   0.00000  Uiso   1.00
C189   C     0.89672   0.43315   0.65557   0.00000  Uiso   1.00
C190   C     0.80221   0.97347   0.59677   0.00000  Uiso   1.00
C191   C     0.70851   0.93537   0.57630   0.00000  Uiso   1.00
C192   C     0.64645   0.88095   0.60989   0.00000  Uiso   1.00
C193   C     0.51811   0.78767   0.64816   0.00000  Uiso   1.00
C194   C     0.99041   0.98606   0.57155   0.00000  Uiso   1.00
C195   C     0.05496   0.95850   0.52988   0.00000  Uiso   1.00
C196   C     0.15134   0.91465   0.54224   0.00000  Uiso   1.00
C197   C     0.31521   0.84090   0.54136   0.00000  Uiso   1.00
C198   C     0.93826   0.00616   0.66305   0.00000  Uiso   1.00
C199   C     0.92225   0.11016   0.65068   0.00000  Uiso   1.00
C200   C     0.93549   0.18392   0.68577   0.00000  Uiso   1.00
C201   C     0.91698   0.27405   0.66683   0.00000  Uiso   1.00
C202   C     0.83283   0.95777   0.64893   0.00000  Uiso   1.00
C203   C     0.77090   0.90338   0.68255   0.00000  Uiso   1.00
C204   C     0.67714   0.86521   0.66215   0.00000  Uiso   1.00
C205   C     0.02105   0.97035   0.62372   0.00000  Uiso   1.00
C206   C     0.11735   0.92652   0.63614   0.00000  Uiso   1.00
C207   C     0.18203   0.89892   0.59450   0.00000  Uiso   1.00
H208   H     0.85802   0.04729   0.52640   0.00000  Uiso   1.00
H209   H     0.84938   0.22802   0.53915   0.00000  Uiso   1.00
H210   H     0.68484   0.94753   0.53593   0.00000  Uiso   1.00
H211   H     0.03123   0.97067   0.48952   0.00000  Uiso   1.00
H212   H     0.85328   0.42147   0.57630   0.00000  Uiso   1.00
H213   H     0.50634   0.83000   0.56951   0.00000  Uiso   1.00
H214   H     0.23677   0.87879   0.47164   0.00000  Uiso   1.00
H215   H     0.96211   0.99393   0.70366   0.00000  Uiso   1.00
H216   H     0.95919   0.17174   0.72614   0.00000  Uiso   1.00
H217   H     0.79464   0.89124   0.72292   0.00000  Uiso   1.00
H218   H     0.14102   0.91438   0.67651   0.00000  Uiso   1.00
H219   H     0.94239   0.37579   0.72806   0.00000  Uiso   1.00
H220   H     0.59546   0.78432   0.72127   0.00000  Uiso   1.00
H221   H     0.32588   0.83311   0.62341   0.00000  Uiso   1.00
O222   O     0.89400   0.51656   0.66377   0.00000  Uiso   1.00
O223   O     0.43885   0.74056   0.65486   0.00000  Uiso   1.00
O224   O     0.39715   0.80458   0.52647   0.00000  Uiso   1.00
N225   N     0.87467   0.38632   0.60893   0.00000  Uiso   1.00
N226   N     0.55030   0.83334   0.60258   0.00000  Uiso   1.00
N227   N     0.23317   0.87893   0.51109   0.00000  Uiso   1.00
N228   N     0.92263   0.36174   0.69059   0.00000  Uiso   1.00
N229   N     0.59825   0.80876   0.68425   0.00000  Uiso   1.00
N230   N     0.28113   0.85435   0.59275   0.00000  Uiso   1.00
C231   C     0.93162   0.51485   0.40472   0.00000  Uiso   1.00
C232   C     0.91705   0.61110   0.37928   0.00000  Uiso   1.00
C233   C     0.93524   0.69719   0.40337   0.00000  Uiso   1.00
C234   C     0.91730   0.77725   0.37341   0.00000  Uiso   1.00
C235   C     0.90004   0.92759   0.34183   0.00000  Uiso   1.00
C236   C     0.00992   0.46123   0.36975   0.00000  Uiso   1.00
C237   C     0.10617   0.42131   0.38583   0.00000  Uiso   1.00
C238   C     0.16639   0.37520   0.34785   0.00000  Uiso   1.00
C239   C     0.29327   0.29281   0.30148   0.00000  Uiso   1.00
C240   C     0.82389   0.46475   0.39934   0.00000  Uiso   1.00
C241   C     0.76373   0.42776   0.44029   0.00000  Uiso   1.00
C242   C     0.66733   0.38459   0.42723   0.00000  Uiso   1.00
C243   C     0.50537   0.30767   0.42680   0.00000  Uiso   1.00
C244   C     0.86740   0.50394   0.30870   0.00000  Uiso   1.00
C245   C     0.88218   0.60517   0.32712   0.00000  Uiso   1.00
C246   C     0.86420   0.68512   0.29713   0.00000  Uiso   1.00
C247   C     0.88235   0.77131   0.32116   0.00000  Uiso   1.00
C248   C     0.97504   0.45531   0.31759   0.00000  Uiso   1.00
C249   C     0.03513   0.40924   0.27959   0.00000  Uiso   1.00
C250   C     0.13145   0.36926   0.29560   0.00000  Uiso   1.00
C251   C     0.78900   0.45883   0.34718   0.00000  Uiso   1.00
C252   C     0.69269   0.41569   0.33405   0.00000  Uiso   1.00
C253   C     0.63240   0.37865   0.37498   0.00000  Uiso   1.00
H254   H     0.95878   0.51946   0.44533   0.00000  Uiso   1.00
H255   H     0.96224   0.70175   0.44373   0.00000  Uiso   1.00
H256   H     0.13314   0.42590   0.42619   0.00000  Uiso   1.00
H257   H     0.79075   0.43236   0.48065   0.00000  Uiso   1.00
H258   H     0.95074   0.90122   0.41895   0.00000  Uiso   1.00
H259   H     0.31107   0.31956   0.38198   0.00000  Uiso   1.00
H260   H     0.58907   0.33317   0.49681   0.00000  Uiso   1.00
H261   H     0.84025   0.49933   0.26809   0.00000  Uiso   1.00
H262   H     0.83721   0.68051   0.25676   0.00000  Uiso   1.00
H263   H     0.00811   0.40466   0.23923   0.00000  Uiso   1.00
H264   H     0.66572   0.41112   0.29368   0.00000  Uiso   1.00
H265   H     0.84926   0.88399   0.26720   0.00000  Uiso   1.00
H266   H     0.20959   0.30232   0.23023   0.00000  Uiso   1.00
H267   H     0.48760   0.31594   0.34506   0.00000  Uiso   1.00
O268   O     0.90017   0.01215   0.33882   0.00000  Uiso   1.00
O269   O     0.37290   0.24902   0.29031   0.00000  Uiso   1.00
O270   O     0.42566   0.26689   0.44097   0.00000  Uiso   1.00
N271   N     0.92725   0.87230   0.38479   0.00000  Uiso   1.00
N272   N     0.26415   0.32849   0.35022   0.00000  Uiso   1.00
N273   N     0.58916   0.34120   0.45758   0.00000  Uiso   1.00
N274   N     0.87265   0.86303   0.30314   0.00000  Uiso   1.00
N275   N     0.20954   0.31922   0.26857   0.00000  Uiso   1.00
N276   N     0.53455   0.33193   0.37593   0.00000  Uiso   1.00
C277   C     0.11813   0.96493   0.06701   0.00000  Uiso   1.00
C278   C     0.10838   0.87413   0.09852   0.00000  Uiso   1.00
C279   C     0.12690   0.78410   0.07952   0.00000  Uiso   1.00
C280   C     0.11371   0.71023   0.11458   0.00000  Uiso   1.00
C281   C     0.10328   0.56685   0.15557   0.00000  Uiso   1.00
C282   C     0.19779   0.02653   0.09677   0.00000  Uiso   1.00
C283   C     0.29149   0.06463   0.07630   0.00000  Uiso   1.00
C284   C     0.35355   0.11905   0.10989   0.00000  Uiso   1.00
C285   C     0.48189   0.21233   0.14816   0.00000  Uiso   1.00
C286   C     0.00959   0.01394   0.07155   0.00000  Uiso   1.00
C287   C     0.94504   0.04150   0.02988   0.00000  Uiso   1.00
C288   C     0.84866   0.08535   0.04224   0.00000  Uiso   1.00
C289   C     0.68479   0.15910   0.04136   0.00000  Uiso   1.00
C290   C     0.06174   0.99384   0.16305   0.00000  Uiso   1.00
C291   C     0.07775   0.88984   0.15068   0.00000  Uiso   1.00
C292   C     0.06451   0.81608   0.18577   0.00000  Uiso   1.00
C293   C     0.08302   0.72595   0.16683   0.00000  Uiso   1.00
C294   C     0.16717   0.04223   0.14893   0.00000  Uiso   1.00
C295   C     0.22910   0.09662   0.18255   0.00000  Uiso   1.00
C296   C     0.32286   0.13479   0.16215   0.00000  Uiso   1.00
C297   C     0.97895   0.02965   0.12372   0.00000  Uiso   1.00
C298   C     0.88265   0.07348   0.13614   0.00000  Uiso   1.00
C299   C     0.81797   0.10108   0.09450   0.00000  Uiso   1.00
H300   H     0.14198   0.95271   0.02640   0.00000  Uiso   1.00
H301   H     0.15062   0.77198   0.03915   0.00000  Uiso   1.00
H302   H     0.31516   0.05247   0.03593   0.00000  Uiso   1.00
H303   H     0.96877   0.02933   0.98952   0.00000  Uiso   1.00
H304   H     0.14672   0.57853   0.07630   0.00000  Uiso   1.00
H305   H     0.49366   0.17000   0.06951   0.00000  Uiso   1.00
H306   H     0.76323   0.12121   0.97164   0.00000  Uiso   1.00
H307   H     0.03789   0.00607   0.20366   0.00000  Uiso   1.00
H308   H     0.04081   0.82826   0.22614   0.00000  Uiso   1.00
H309   H     0.20536   0.10876   0.22292   0.00000  Uiso   1.00
H310   H     0.85898   0.08562   0.17651   0.00000  Uiso   1.00
H311   H     0.05761   0.62421   0.22806   0.00000  Uiso   1.00
H312   H     0.40454   0.21568   0.22127   0.00000  Uiso   1.00
H313   H     0.67412   0.16689   0.12341   0.00000  Uiso   1.00
O314   O     0.10600   0.48344   0.16377   0.00000  Uiso   1.00
O315   O     0.56115   0.25944   0.15486   0.00000  Uiso   1.00
O316   O     0.60285   0.19542   0.02647   0.00000  Uiso   1.00
N317   N     0.12533   0.61368   0.10893   0.00000  Uiso   1.00
N318   N     0.44970   0.16666   0.10258   0.00000  Uiso   1.00
N319   N     0.76683   0.12107   0.01109   0.00000  Uiso   1.00
N320   N     0.07737   0.63826   0.19059   0.00000  Uiso   1.00
N321   N     0.40175   0.19124   0.18425   0.00000  Uiso   1.00
N322   N     0.71887   0.14565   0.09275   0.00000  Uiso   1.00
C323   C     0.06838   0.48515   0.90472   0.00000  Uiso   1.00
C324   C     0.08295   0.38890   0.87928   0.00000  Uiso   1.00
C325   C     0.06476   0.30281   0.90337   0.00000  Uiso   1.00
C326   C     0.08270   0.22275   0.87341   0.00000  Uiso   1.00
C327   C     0.09996   0.07241   0.84183   0.00000  Uiso   1.00
C328   C     0.99008   0.53877   0.86975   0.00000  Uiso   1.00
C329   C     0.89383   0.57869   0.88583   0.00000  Uiso   1.00
C330   C     0.83361   0.62480   0.84785   0.00000  Uiso   1.00
C331   C     0.70673   0.70719   0.80148   0.00000  Uiso   1.00
C332   C     0.17611   0.53525   0.89934   0.00000  Uiso   1.00
C333   C     0.23627   0.57224   0.94029   0.00000  Uiso   1.00
C334   C     0.33267   0.61541   0.92723   0.00000  Uiso   1.00
C335   C     0.49463   0.69233   0.92680   0.00000  Uiso   1.00
C336   C     0.13260   0.49606   0.80870   0.00000  Uiso   1.00
C337   C     0.11782   0.39483   0.82712   0.00000  Uiso   1.00
C338   C     0.13580   0.31488   0.79713   0.00000  Uiso   1.00
C339   C     0.11765   0.22869   0.82116   0.00000  Uiso   1.00
C340   C     0.02496   0.54469   0.81759   0.00000  Uiso   1.00
C341   C     0.96487   0.59076   0.77959   0.00000  Uiso   1.00
C342   C     0.86855   0.63074   0.79560   0.00000  Uiso   1.00
C343   C     0.21100   0.54117   0.84718   0.00000  Uiso   1.00
C344   C     0.30731   0.58431   0.83405   0.00000  Uiso   1.00
C345   C     0.36760   0.62135   0.87498   0.00000  Uiso   1.00
H346   H     0.04122   0.48054   0.94533   0.00000  Uiso   1.00
H347   H     0.03776   0.29825   0.94373   0.00000  Uiso   1.00
H348   H     0.86686   0.57410   0.92619   0.00000  Uiso   1.00
H349   H     0.20925   0.56764   0.98065   0.00000  Uiso   1.00
H350   H     0.04926   0.09878   0.91895   0.00000  Uiso   1.00
H351   H     0.68893   0.68044   0.88198   0.00000  Uiso   1.00
H352   H     0.41093   0.66683   0.99681   0.00000  Uiso   1.00
H353   H     0.15975   0.50067   0.76809   0.00000  Uiso   1.00
H354   H     0.16279   0.31949   0.75676   0.00000  Uiso   1.00
H355   H     0.99189   0.59534   0.73923   0.00000  Uiso   1.00
H356   H     0.33428   0.58888   0.79368   0.00000  Uiso   1.00
H357   H     0.15074   0.11601   0.76720   0.00000  Uiso   1.00
H358   H     0.79041   0.69768   0.73023   0.00000  Uiso   1.00
H359   H     0.51240   0.68406   0.84506   0.00000  Uiso   1.00
O360   O     0.09983   0.98785   0.83882   0.00000  Uiso   1.00
O361   O     0.62710   0.75098   0.79031   0.00000  Uiso   1.00
O362   O     0.57434   0.73311   0.94097   0.00000  Uiso   1.00
N363   N     0.07275   0.12770   0.88479   0.00000  Uiso   1.00
N364   N     0.73585   0.67151   0.85022   0.00000  Uiso   1.00
N365   N     0.41084   0.65880   0.95758   0.00000  Uiso   1.00
N366   N     0.12735   0.13697   0.80314   0.00000  Uiso   1.00
N367   N     0.79046   0.68078   0.76857   0.00000  Uiso   1.00
N368   N     0.46545   0.66807   0.87593   0.00000  Uiso   1.00
