data_job_03775
_audit_creation_date              2018-12-19
_audit_creation_method            'Materials Studio'
_symmetry_space_group_name_H-M    'P1'
_symmetry_Int_Tables_number       1
_symmetry_cell_setting            triclinic
loop_
_symmetry_equiv_pos_as_xyz
  x,y,z
_cell_length_a                    15.8168
_cell_length_b                    25.4852
_cell_length_c                    13.1541
_cell_angle_alpha                 90.0000
_cell_angle_beta                  90.0000
_cell_angle_gamma                 90.0000
loop_
_atom_site_label
_atom_site_type_symbol
_atom_site_fract_x
_atom_site_fract_y
_atom_site_fract_z
_atom_site_U_iso_or_equiv
_atom_site_adp_type
_atom_site_occupancy
C1     C     0.98916   0.57345   0.24993   0.00000  Uiso   1.00
C2     C     0.01577   0.59535   0.35296   0.00000  Uiso   1.00
C3     C     0.96627   0.59626   0.44005   0.00000  Uiso   1.00
C4     C     0.00213   0.61800   0.52669   0.00000  Uiso   1.00
C5     C     0.03089   0.64898   0.68673   0.00000  Uiso   1.00
C6     C     0.00056   0.61811   0.17400   0.00000  Uiso   1.00
C7     C     0.93828   0.63813   0.11061   0.00000  Uiso   1.00
C8     C     0.96135   0.67902   0.04660   0.00000  Uiso   1.00
C9     C     0.96652   0.74529   0.92875   0.00000  Uiso   1.00
C10    C     0.05513   0.53224   0.22215   0.00000  Uiso   1.00
C11    C     0.03872   0.48006   0.19922   0.00000  Uiso   1.00
C12    C     0.10773   0.44865   0.17572   0.00000  Uiso   1.00
C13    C     0.19762   0.38160   0.13264   0.00000  Uiso   1.00
C14    C     0.14089   0.61044   0.24894   0.00000  Uiso   1.00
C15    C     0.09818   0.61545   0.35241   0.00000  Uiso   1.00
C16    C     0.13413   0.63718   0.43895   0.00000  Uiso   1.00
C17    C     0.08469   0.63812   0.52615   0.00000  Uiso   1.00
C18    C     0.08297   0.63820   0.17346   0.00000  Uiso   1.00
C19    C     0.10614   0.67906   0.10952   0.00000  Uiso   1.00
C20    C     0.04391   0.69914   0.04606   0.00000  Uiso   1.00
C21    C     0.13754   0.55232   0.22161   0.00000  Uiso   1.00
C22    C     0.20659   0.52099   0.19813   0.00000  Uiso   1.00
C23    C     0.19029   0.46878   0.17518   0.00000  Uiso   1.00
H24    H     0.92500   0.55781   0.25034   0.00000  Uiso   1.00
H25    H     0.90249   0.58071   0.44043   0.00000  Uiso   1.00
H26    H     0.87451   0.62257   0.11104   0.00000  Uiso   1.00
H27    H     0.97494   0.46453   0.19965   0.00000  Uiso   1.00
H28    H     0.91386   0.61499   0.65093   0.00000  Uiso   1.00
H29    H     0.85488   0.70324   0.95637   0.00000  Uiso   1.00
H30    H     0.06665   0.36997   0.14321   0.00000  Uiso   1.00
H31    H     0.20505   0.62608   0.24851   0.00000  Uiso   1.00
H32    H     0.19791   0.65273   0.43851   0.00000  Uiso   1.00
H33    H     0.16992   0.69459   0.10912   0.00000  Uiso   1.00
H34    H     0.27035   0.53655   0.19772   0.00000  Uiso   1.00
H35    H     0.15363   0.67344   0.64937   0.00000  Uiso   1.00
H36    H     0.09465   0.76169   0.95480   0.00000  Uiso   1.00
H37    H     0.30642   0.42843   0.14165   0.00000  Uiso   1.00
O38    O     0.02399   0.66053   0.77515   0.00000  Uiso   1.00
O39    O     0.94660   0.77631   0.86391   0.00000  Uiso   1.00
O40    O     0.22444   0.33907   0.10904   0.00000  Uiso   1.00
N41    N     0.97128   0.62508   0.62449   0.00000  Uiso   1.00
N42    N     0.91613   0.70759   0.97513   0.00000  Uiso   1.00
N43    N     0.11411   0.39602   0.14978   0.00000  Uiso   1.00
N44    N     0.10030   0.65653   0.62365   0.00000  Uiso   1.00
N45    N     0.04515   0.73905   0.97429   0.00000  Uiso   1.00
N46    N     0.24313   0.42747   0.14894   0.00000  Uiso   1.00
C47    C     0.51084   0.42655   0.74993   0.00000  Uiso   1.00
C48    C     0.48423   0.40465   0.85296   0.00000  Uiso   1.00
C49    C     0.53373   0.40374   0.94005   0.00000  Uiso   1.00
C50    C     0.49787   0.38200   0.02669   0.00000  Uiso   1.00
C51    C     0.46911   0.35102   0.18673   0.00000  Uiso   1.00
C52    C     0.49944   0.38189   0.67400   0.00000  Uiso   1.00
C53    C     0.56172   0.36187   0.61061   0.00000  Uiso   1.00
C54    C     0.53865   0.32098   0.54660   0.00000  Uiso   1.00
C55    C     0.53348   0.25471   0.42875   0.00000  Uiso   1.00
C56    C     0.44487   0.46776   0.72215   0.00000  Uiso   1.00
C57    C     0.46128   0.51994   0.69922   0.00000  Uiso   1.00
C58    C     0.39227   0.55135   0.67572   0.00000  Uiso   1.00
C59    C     0.30238   0.61840   0.63264   0.00000  Uiso   1.00
C60    C     0.35911   0.38956   0.74894   0.00000  Uiso   1.00
C61    C     0.40182   0.38455   0.85241   0.00000  Uiso   1.00
C62    C     0.36587   0.36282   0.93895   0.00000  Uiso   1.00
C63    C     0.41531   0.36188   0.02615   0.00000  Uiso   1.00
C64    C     0.41703   0.36180   0.67346   0.00000  Uiso   1.00
C65    C     0.39386   0.32094   0.60952   0.00000  Uiso   1.00
C66    C     0.45609   0.30086   0.54606   0.00000  Uiso   1.00
C67    C     0.36246   0.44768   0.72161   0.00000  Uiso   1.00
C68    C     0.29341   0.47901   0.69813   0.00000  Uiso   1.00
C69    C     0.30971   0.53122   0.67518   0.00000  Uiso   1.00
H70    H     0.57500   0.44219   0.75034   0.00000  Uiso   1.00
H71    H     0.59751   0.41929   0.94043   0.00000  Uiso   1.00
H72    H     0.62549   0.37743   0.61104   0.00000  Uiso   1.00
H73    H     0.52506   0.53547   0.69965   0.00000  Uiso   1.00
H74    H     0.58614   0.38501   0.15093   0.00000  Uiso   1.00
H75    H     0.64512   0.29676   0.45637   0.00000  Uiso   1.00
H76    H     0.43335   0.63003   0.64321   0.00000  Uiso   1.00
H77    H     0.29495   0.37392   0.74851   0.00000  Uiso   1.00
H78    H     0.30209   0.34727   0.93851   0.00000  Uiso   1.00
H79    H     0.33008   0.30541   0.60912   0.00000  Uiso   1.00
H80    H     0.22965   0.46345   0.69772   0.00000  Uiso   1.00
H81    H     0.34637   0.32656   0.14937   0.00000  Uiso   1.00
H82    H     0.40535   0.23831   0.45480   0.00000  Uiso   1.00
H83    H     0.19358   0.57157   0.64165   0.00000  Uiso   1.00
O84    O     0.47601   0.33947   0.27515   0.00000  Uiso   1.00
O85    O     0.55340   0.22369   0.36391   0.00000  Uiso   1.00
O86    O     0.27556   0.66093   0.60904   0.00000  Uiso   1.00
N87    N     0.52872   0.37492   0.12449   0.00000  Uiso   1.00
N88    N     0.58387   0.29241   0.47513   0.00000  Uiso   1.00
N89    N     0.38589   0.60398   0.64978   0.00000  Uiso   1.00
N90    N     0.39970   0.34347   0.12365   0.00000  Uiso   1.00
N91    N     0.45485   0.26095   0.47429   0.00000  Uiso   1.00
N92    N     0.25687   0.57253   0.64894   0.00000  Uiso   1.00
C93    C     0.01084   0.07345   0.25007   0.00000  Uiso   1.00
C94    C     0.98423   0.09535   0.14704   0.00000  Uiso   1.00
C95    C     0.03373   0.09626   0.05995   0.00000  Uiso   1.00
C96    C     0.99787   0.11800   0.97331   0.00000  Uiso   1.00
C97    C     0.96911   0.14898   0.81327   0.00000  Uiso   1.00
C98    C     0.99944   0.11811   0.32600   0.00000  Uiso   1.00
C99    C     0.06172   0.13813   0.38939   0.00000  Uiso   1.00
C100   C     0.03865   0.17902   0.45340   0.00000  Uiso   1.00
C101   C     0.03348   0.24529   0.57125   0.00000  Uiso   1.00
C102   C     0.94487   0.03224   0.27785   0.00000  Uiso   1.00
C103   C     0.96128   0.98006   0.30078   0.00000  Uiso   1.00
C104   C     0.89227   0.94865   0.32428   0.00000  Uiso   1.00
C105   C     0.80238   0.88160   0.36736   0.00000  Uiso   1.00
C106   C     0.85911   0.11044   0.25106   0.00000  Uiso   1.00
C107   C     0.90182   0.11545   0.14759   0.00000  Uiso   1.00
C108   C     0.86587   0.13718   0.06105   0.00000  Uiso   1.00
C109   C     0.91531   0.13812   0.97385   0.00000  Uiso   1.00
C110   C     0.91703   0.13820   0.32654   0.00000  Uiso   1.00
C111   C     0.89386   0.17906   0.39048   0.00000  Uiso   1.00
C112   C     0.95609   0.19914   0.45394   0.00000  Uiso   1.00
C113   C     0.86246   0.05232   0.27839   0.00000  Uiso   1.00
C114   C     0.79341   0.02099   0.30187   0.00000  Uiso   1.00
C115   C     0.80971   0.96878   0.32482   0.00000  Uiso   1.00
H116   H     0.07500   0.05781   0.24966   0.00000  Uiso   1.00
H117   H     0.09751   0.08071   0.05957   0.00000  Uiso   1.00
H118   H     0.12549   0.12257   0.38896   0.00000  Uiso   1.00
H119   H     0.02506   0.96453   0.30035   0.00000  Uiso   1.00
H120   H     0.08614   0.11499   0.84907   0.00000  Uiso   1.00
H121   H     0.14512   0.20324   0.54363   0.00000  Uiso   1.00
H122   H     0.93335   0.86997   0.35679   0.00000  Uiso   1.00
H123   H     0.79495   0.12608   0.25149   0.00000  Uiso   1.00
H124   H     0.80209   0.15273   0.06149   0.00000  Uiso   1.00
H125   H     0.83008   0.19459   0.39088   0.00000  Uiso   1.00
H126   H     0.72965   0.03655   0.30228   0.00000  Uiso   1.00
H127   H     0.84637   0.17344   0.85063   0.00000  Uiso   1.00
H128   H     0.90535   0.26169   0.54520   0.00000  Uiso   1.00
H129   H     0.69358   0.92843   0.35835   0.00000  Uiso   1.00
O130   O     0.97601   0.16053   0.72485   0.00000  Uiso   1.00
O131   O     0.05340   0.27631   0.63609   0.00000  Uiso   1.00
O132   O     0.77556   0.83907   0.39096   0.00000  Uiso   1.00
N133   N     0.02872   0.12508   0.87551   0.00000  Uiso   1.00
N134   N     0.08387   0.20759   0.52487   0.00000  Uiso   1.00
N135   N     0.88589   0.89602   0.35022   0.00000  Uiso   1.00
N136   N     0.89970   0.15653   0.87635   0.00000  Uiso   1.00
N137   N     0.95485   0.23905   0.52571   0.00000  Uiso   1.00
N138   N     0.75687   0.92747   0.35106   0.00000  Uiso   1.00
C139   C     0.48916   0.92655   0.75007   0.00000  Uiso   1.00
C140   C     0.51577   0.90465   0.64704   0.00000  Uiso   1.00
C141   C     0.46627   0.90374   0.55995   0.00000  Uiso   1.00
C142   C     0.50213   0.88200   0.47331   0.00000  Uiso   1.00
C143   C     0.53089   0.85102   0.31327   0.00000  Uiso   1.00
C144   C     0.50056   0.88189   0.82600   0.00000  Uiso   1.00
C145   C     0.43828   0.86187   0.88939   0.00000  Uiso   1.00
C146   C     0.46135   0.82098   0.95340   0.00000  Uiso   1.00
C147   C     0.46652   0.75471   0.07125   0.00000  Uiso   1.00
C148   C     0.55513   0.96776   0.77785   0.00000  Uiso   1.00
C149   C     0.53872   0.01994   0.80078   0.00000  Uiso   1.00
C150   C     0.60773   0.05135   0.82428   0.00000  Uiso   1.00
C151   C     0.69762   0.11840   0.86736   0.00000  Uiso   1.00
C152   C     0.64089   0.88956   0.75106   0.00000  Uiso   1.00
C153   C     0.59818   0.88455   0.64759   0.00000  Uiso   1.00
C154   C     0.63413   0.86282   0.56105   0.00000  Uiso   1.00
C155   C     0.58469   0.86188   0.47385   0.00000  Uiso   1.00
C156   C     0.58297   0.86180   0.82654   0.00000  Uiso   1.00
C157   C     0.60614   0.82094   0.89048   0.00000  Uiso   1.00
C158   C     0.54391   0.80086   0.95394   0.00000  Uiso   1.00
C159   C     0.63754   0.94768   0.77839   0.00000  Uiso   1.00
C160   C     0.70659   0.97901   0.80187   0.00000  Uiso   1.00
C161   C     0.69029   0.03122   0.82482   0.00000  Uiso   1.00
H162   H     0.42500   0.94219   0.74966   0.00000  Uiso   1.00
H163   H     0.40249   0.91929   0.55957   0.00000  Uiso   1.00
H164   H     0.37451   0.87743   0.88896   0.00000  Uiso   1.00
H165   H     0.47494   0.03547   0.80035   0.00000  Uiso   1.00
H166   H     0.41386   0.88501   0.34907   0.00000  Uiso   1.00
H167   H     0.35488   0.79676   0.04363   0.00000  Uiso   1.00
H168   H     0.56665   0.13003   0.85679   0.00000  Uiso   1.00
H169   H     0.70505   0.87392   0.75149   0.00000  Uiso   1.00
H170   H     0.69791   0.84727   0.56149   0.00000  Uiso   1.00
H171   H     0.66992   0.80541   0.89088   0.00000  Uiso   1.00
H172   H     0.77035   0.96345   0.80228   0.00000  Uiso   1.00
H173   H     0.65363   0.82656   0.35063   0.00000  Uiso   1.00
H174   H     0.59465   0.73831   0.04520   0.00000  Uiso   1.00
H175   H     0.80642   0.07157   0.85835   0.00000  Uiso   1.00
O176   O     0.52399   0.83947   0.22485   0.00000  Uiso   1.00
O177   O     0.44660   0.72369   0.13609   0.00000  Uiso   1.00
O178   O     0.72444   0.16093   0.89096   0.00000  Uiso   1.00
N179   N     0.47128   0.87492   0.37551   0.00000  Uiso   1.00
N180   N     0.41613   0.79241   0.02487   0.00000  Uiso   1.00
N181   N     0.61411   0.10398   0.85022   0.00000  Uiso   1.00
N182   N     0.60030   0.84347   0.37635   0.00000  Uiso   1.00
N183   N     0.54515   0.76095   0.02571   0.00000  Uiso   1.00
N184   N     0.74313   0.07253   0.85106   0.00000  Uiso   1.00
C185   C     0.01084   0.42655   0.75007   0.00000  Uiso   1.00
C186   C     0.98423   0.40465   0.64704   0.00000  Uiso   1.00
C187   C     0.03373   0.40374   0.55995   0.00000  Uiso   1.00
C188   C     0.99787   0.38200   0.47331   0.00000  Uiso   1.00
C189   C     0.96911   0.35102   0.31327   0.00000  Uiso   1.00
C190   C     0.99944   0.38189   0.82600   0.00000  Uiso   1.00
C191   C     0.06172   0.36187   0.88939   0.00000  Uiso   1.00
C192   C     0.03865   0.32098   0.95340   0.00000  Uiso   1.00
C193   C     0.03348   0.25471   0.07125   0.00000  Uiso   1.00
C194   C     0.94487   0.46776   0.77785   0.00000  Uiso   1.00
C195   C     0.96128   0.51994   0.80078   0.00000  Uiso   1.00
C196   C     0.89227   0.55135   0.82428   0.00000  Uiso   1.00
C197   C     0.80238   0.61840   0.86736   0.00000  Uiso   1.00
C198   C     0.85911   0.38956   0.75106   0.00000  Uiso   1.00
C199   C     0.90182   0.38455   0.64759   0.00000  Uiso   1.00
C200   C     0.86587   0.36282   0.56105   0.00000  Uiso   1.00
C201   C     0.91531   0.36188   0.47385   0.00000  Uiso   1.00
C202   C     0.91703   0.36180   0.82654   0.00000  Uiso   1.00
C203   C     0.89386   0.32094   0.89048   0.00000  Uiso   1.00
C204   C     0.95609   0.30086   0.95394   0.00000  Uiso   1.00
C205   C     0.86246   0.44768   0.77839   0.00000  Uiso   1.00
C206   C     0.79341   0.47901   0.80187   0.00000  Uiso   1.00
C207   C     0.80971   0.53122   0.82482   0.00000  Uiso   1.00
H208   H     0.07500   0.44219   0.74966   0.00000  Uiso   1.00
H209   H     0.09751   0.41929   0.55957   0.00000  Uiso   1.00
H210   H     0.12549   0.37743   0.88896   0.00000  Uiso   1.00
H211   H     0.02506   0.53547   0.80035   0.00000  Uiso   1.00
H212   H     0.08614   0.38501   0.34907   0.00000  Uiso   1.00
H213   H     0.14512   0.29676   0.04363   0.00000  Uiso   1.00
H214   H     0.93335   0.63003   0.85679   0.00000  Uiso   1.00
H215   H     0.79495   0.37392   0.75149   0.00000  Uiso   1.00
H216   H     0.80209   0.34727   0.56149   0.00000  Uiso   1.00
H217   H     0.83008   0.30541   0.89088   0.00000  Uiso   1.00
H218   H     0.72965   0.46345   0.80228   0.00000  Uiso   1.00
H219   H     0.84637   0.32656   0.35063   0.00000  Uiso   1.00
H220   H     0.90535   0.23831   0.04520   0.00000  Uiso   1.00
H221   H     0.69358   0.57157   0.85835   0.00000  Uiso   1.00
O222   O     0.97601   0.33947   0.22485   0.00000  Uiso   1.00
O223   O     0.05340   0.22369   0.13609   0.00000  Uiso   1.00
O224   O     0.77556   0.66093   0.89096   0.00000  Uiso   1.00
N225   N     0.02872   0.37492   0.37551   0.00000  Uiso   1.00
N226   N     0.08387   0.29241   0.02487   0.00000  Uiso   1.00
N227   N     0.88589   0.60398   0.85022   0.00000  Uiso   1.00
N228   N     0.89970   0.34347   0.37635   0.00000  Uiso   1.00
N229   N     0.95485   0.26095   0.02571   0.00000  Uiso   1.00
N230   N     0.75687   0.57253   0.85106   0.00000  Uiso   1.00
C231   C     0.48916   0.57345   0.25007   0.00000  Uiso   1.00
C232   C     0.51577   0.59535   0.14704   0.00000  Uiso   1.00
C233   C     0.46627   0.59626   0.05995   0.00000  Uiso   1.00
C234   C     0.50213   0.61800   0.97331   0.00000  Uiso   1.00
C235   C     0.53089   0.64898   0.81327   0.00000  Uiso   1.00
C236   C     0.50056   0.61811   0.32600   0.00000  Uiso   1.00
C237   C     0.43828   0.63813   0.38939   0.00000  Uiso   1.00
C238   C     0.46135   0.67902   0.45340   0.00000  Uiso   1.00
C239   C     0.46652   0.74529   0.57125   0.00000  Uiso   1.00
C240   C     0.55513   0.53224   0.27785   0.00000  Uiso   1.00
C241   C     0.53872   0.48006   0.30078   0.00000  Uiso   1.00
C242   C     0.60773   0.44865   0.32428   0.00000  Uiso   1.00
C243   C     0.69762   0.38160   0.36736   0.00000  Uiso   1.00
C244   C     0.64089   0.61044   0.25106   0.00000  Uiso   1.00
C245   C     0.59818   0.61545   0.14759   0.00000  Uiso   1.00
C246   C     0.63413   0.63718   0.06105   0.00000  Uiso   1.00
C247   C     0.58469   0.63812   0.97385   0.00000  Uiso   1.00
C248   C     0.58297   0.63820   0.32654   0.00000  Uiso   1.00
C249   C     0.60614   0.67906   0.39048   0.00000  Uiso   1.00
C250   C     0.54391   0.69914   0.45394   0.00000  Uiso   1.00
C251   C     0.63754   0.55232   0.27839   0.00000  Uiso   1.00
C252   C     0.70659   0.52099   0.30187   0.00000  Uiso   1.00
C253   C     0.69029   0.46878   0.32482   0.00000  Uiso   1.00
H254   H     0.42500   0.55781   0.24966   0.00000  Uiso   1.00
H255   H     0.40249   0.58071   0.05957   0.00000  Uiso   1.00
H256   H     0.37451   0.62257   0.38896   0.00000  Uiso   1.00
H257   H     0.47494   0.46453   0.30035   0.00000  Uiso   1.00
H258   H     0.41386   0.61499   0.84907   0.00000  Uiso   1.00
H259   H     0.35488   0.70324   0.54363   0.00000  Uiso   1.00
H260   H     0.56665   0.36997   0.35679   0.00000  Uiso   1.00
H261   H     0.70505   0.62608   0.25149   0.00000  Uiso   1.00
H262   H     0.69791   0.65273   0.06149   0.00000  Uiso   1.00
H263   H     0.66992   0.69459   0.39088   0.00000  Uiso   1.00
H264   H     0.77035   0.53655   0.30228   0.00000  Uiso   1.00
H265   H     0.65363   0.67344   0.85063   0.00000  Uiso   1.00
H266   H     0.59465   0.76169   0.54520   0.00000  Uiso   1.00
H267   H     0.80642   0.42843   0.35835   0.00000  Uiso   1.00
O268   O     0.52399   0.66053   0.72485   0.00000  Uiso   1.00
O269   O     0.44660   0.77631   0.63609   0.00000  Uiso   1.00
O270   O     0.72444   0.33907   0.39096   0.00000  Uiso   1.00
N271   N     0.47128   0.62508   0.87551   0.00000  Uiso   1.00
N272   N     0.41613   0.70759   0.52487   0.00000  Uiso   1.00
N273   N     0.61411   0.39602   0.35022   0.00000  Uiso   1.00
N274   N     0.60030   0.65653   0.87635   0.00000  Uiso   1.00
N275   N     0.54515   0.73905   0.52571   0.00000  Uiso   1.00
N276   N     0.74313   0.42747   0.35106   0.00000  Uiso   1.00
C277   C     0.98916   0.92655   0.74993   0.00000  Uiso   1.00
C278   C     0.01577   0.90465   0.85296   0.00000  Uiso   1.00
C279   C     0.96627   0.90374   0.94005   0.00000  Uiso   1.00
C280   C     0.00213   0.88200   0.02669   0.00000  Uiso   1.00
C281   C     0.03089   0.85102   0.18673   0.00000  Uiso   1.00
C282   C     0.00056   0.88189   0.67400   0.00000  Uiso   1.00
C283   C     0.93828   0.86187   0.61061   0.00000  Uiso   1.00
C284   C     0.96135   0.82098   0.54660   0.00000  Uiso   1.00
C285   C     0.96652   0.75471   0.42875   0.00000  Uiso   1.00
C286   C     0.05513   0.96776   0.72215   0.00000  Uiso   1.00
C287   C     0.03872   0.01994   0.69922   0.00000  Uiso   1.00
C288   C     0.10773   0.05135   0.67572   0.00000  Uiso   1.00
C289   C     0.19762   0.11840   0.63264   0.00000  Uiso   1.00
C290   C     0.14089   0.88956   0.74894   0.00000  Uiso   1.00
C291   C     0.09818   0.88455   0.85241   0.00000  Uiso   1.00
C292   C     0.13413   0.86282   0.93895   0.00000  Uiso   1.00
C293   C     0.08469   0.86188   0.02615   0.00000  Uiso   1.00
C294   C     0.08297   0.86180   0.67346   0.00000  Uiso   1.00
C295   C     0.10614   0.82094   0.60952   0.00000  Uiso   1.00
C296   C     0.04391   0.80086   0.54606   0.00000  Uiso   1.00
C297   C     0.13754   0.94768   0.72161   0.00000  Uiso   1.00
C298   C     0.20659   0.97901   0.69813   0.00000  Uiso   1.00
C299   C     0.19029   0.03122   0.67518   0.00000  Uiso   1.00
H300   H     0.92500   0.94219   0.75034   0.00000  Uiso   1.00
H301   H     0.90249   0.91929   0.94043   0.00000  Uiso   1.00
H302   H     0.87451   0.87743   0.61104   0.00000  Uiso   1.00
H303   H     0.97494   0.03547   0.69965   0.00000  Uiso   1.00
H304   H     0.91386   0.88501   0.15093   0.00000  Uiso   1.00
H305   H     0.85488   0.79676   0.45637   0.00000  Uiso   1.00
H306   H     0.06665   0.13003   0.64321   0.00000  Uiso   1.00
H307   H     0.20505   0.87392   0.74851   0.00000  Uiso   1.00
H308   H     0.19791   0.84727   0.93851   0.00000  Uiso   1.00
H309   H     0.16992   0.80541   0.60912   0.00000  Uiso   1.00
H310   H     0.27035   0.96345   0.69772   0.00000  Uiso   1.00
H311   H     0.15363   0.82656   0.14937   0.00000  Uiso   1.00
H312   H     0.09465   0.73831   0.45480   0.00000  Uiso   1.00
H313   H     0.30642   0.07157   0.64165   0.00000  Uiso   1.00
O314   O     0.02399   0.83947   0.27515   0.00000  Uiso   1.00
O315   O     0.94660   0.72369   0.36391   0.00000  Uiso   1.00
O316   O     0.22444   0.16093   0.60904   0.00000  Uiso   1.00
N317   N     0.97128   0.87492   0.12449   0.00000  Uiso   1.00
N318   N     0.91613   0.79241   0.47513   0.00000  Uiso   1.00
N319   N     0.11411   0.10398   0.64978   0.00000  Uiso   1.00
N320   N     0.10030   0.84347   0.12365   0.00000  Uiso   1.00
N321   N     0.04515   0.76095   0.47429   0.00000  Uiso   1.00
N322   N     0.24313   0.07253   0.64894   0.00000  Uiso   1.00
C323   C     0.51084   0.07345   0.24993   0.00000  Uiso   1.00
C324   C     0.48423   0.09535   0.35296   0.00000  Uiso   1.00
C325   C     0.53373   0.09626   0.44005   0.00000  Uiso   1.00
C326   C     0.49787   0.11800   0.52669   0.00000  Uiso   1.00
C327   C     0.46911   0.14898   0.68673   0.00000  Uiso   1.00
C328   C     0.49944   0.11811   0.17400   0.00000  Uiso   1.00
C329   C     0.56172   0.13813   0.11061   0.00000  Uiso   1.00
C330   C     0.53865   0.17902   0.04660   0.00000  Uiso   1.00
C331   C     0.53348   0.24529   0.92875   0.00000  Uiso   1.00
C332   C     0.44487   0.03224   0.22215   0.00000  Uiso   1.00
C333   C     0.46128   0.98006   0.19922   0.00000  Uiso   1.00
C334   C     0.39227   0.94865   0.17572   0.00000  Uiso   1.00
C335   C     0.30238   0.88160   0.13264   0.00000  Uiso   1.00
C336   C     0.35911   0.11044   0.24894   0.00000  Uiso   1.00
C337   C     0.40182   0.11545   0.35241   0.00000  Uiso   1.00
C338   C     0.36587   0.13718   0.43895   0.00000  Uiso   1.00
C339   C     0.41531   0.13812   0.52615   0.00000  Uiso   1.00
C340   C     0.41703   0.13820   0.17346   0.00000  Uiso   1.00
C341   C     0.39386   0.17906   0.10952   0.00000  Uiso   1.00
C342   C     0.45609   0.19914   0.04606   0.00000  Uiso   1.00
C343   C     0.36246   0.05232   0.22161   0.00000  Uiso   1.00
C344   C     0.29341   0.02099   0.19813   0.00000  Uiso   1.00
C345   C     0.30971   0.96878   0.17518   0.00000  Uiso   1.00
H346   H     0.57500   0.05781   0.25034   0.00000  Uiso   1.00
H347   H     0.59751   0.08071   0.44043   0.00000  Uiso   1.00
H348   H     0.62549   0.12257   0.11104   0.00000  Uiso   1.00
H349   H     0.52506   0.96453   0.19965   0.00000  Uiso   1.00
H350   H     0.58614   0.11499   0.65093   0.00000  Uiso   1.00
H351   H     0.64512   0.20324   0.95637   0.00000  Uiso   1.00
H352   H     0.43335   0.86997   0.14321   0.00000  Uiso   1.00
H353   H     0.29495   0.12608   0.24851   0.00000  Uiso   1.00
H354   H     0.30209   0.15273   0.43851   0.00000  Uiso   1.00
H355   H     0.33008   0.19459   0.10912   0.00000  Uiso   1.00
H356   H     0.22965   0.03655   0.19772   0.00000  Uiso   1.00
H357   H     0.34637   0.17344   0.64937   0.00000  Uiso   1.00
H358   H     0.40535   0.26169   0.95480   0.00000  Uiso   1.00
H359   H     0.19358   0.92843   0.14165   0.00000  Uiso   1.00
O360   O     0.47601   0.16053   0.77515   0.00000  Uiso   1.00
O361   O     0.55340   0.27631   0.86391   0.00000  Uiso   1.00
O362   O     0.27556   0.83907   0.10904   0.00000  Uiso   1.00
N363   N     0.52872   0.12508   0.62449   0.00000  Uiso   1.00
N364   N     0.58387   0.20759   0.97513   0.00000  Uiso   1.00
N365   N     0.38589   0.89602   0.14978   0.00000  Uiso   1.00
N366   N     0.39970   0.15653   0.62365   0.00000  Uiso   1.00
N367   N     0.45485   0.23905   0.97429   0.00000  Uiso   1.00
N368   N     0.25687   0.92747   0.14894   0.00000  Uiso   1.00
