data_job_04798
_audit_creation_date              2018-12-19
_audit_creation_method            'Materials Studio'
_symmetry_space_group_name_H-M    'P1'
_symmetry_Int_Tables_number       1
_symmetry_cell_setting            triclinic
loop_
_symmetry_equiv_pos_as_xyz
  x,y,z
_cell_length_a                    30.8274
_cell_length_b                    15.4790
_cell_length_c                    10.2235
_cell_angle_alpha                 90.0000
_cell_angle_beta                  90.0000
_cell_angle_gamma                 90.0000
loop_
_atom_site_label
_atom_site_type_symbol
_atom_site_fract_x
_atom_site_fract_y
_atom_site_fract_z
_atom_site_U_iso_or_equiv
_atom_site_adp_type
_atom_site_occupancy
C1     C     0.36526   0.18428   0.04926   0.00000  Uiso   1.00
C2     C     0.33173   0.17188   0.94121   0.00000  Uiso   1.00
C3     C     0.28890   0.19932   0.94541   0.00000  Uiso   1.00
C4     C     0.26342   0.18176   0.83664   0.00000  Uiso   1.00
C5     C     0.20880   0.16907   0.68546   0.00000  Uiso   1.00
C6     C     0.38201   0.09423   0.08259   0.00000  Uiso   1.00
C7     C     0.38145   0.05640   0.20565   0.00000  Uiso   1.00
C8     C     0.39829   0.97349   0.21589   0.00000  Uiso   1.00
C9     C     0.42175   0.84028   0.28422   0.00000  Uiso   1.00
C10    C     0.40323   0.23192   0.98651   0.00000  Uiso   1.00
C11    C     0.42052   0.30985   0.02880   0.00000  Uiso   1.00
C12    C     0.45524   0.34285   0.95817   0.00000  Uiso   1.00
C13    C     0.51164   0.42342   0.87732   0.00000  Uiso   1.00
C14    C     0.39618   0.10431   0.84864   0.00000  Uiso   1.00
C15    C     0.34853   0.12844   0.83225   0.00000  Uiso   1.00
C16    C     0.32310   0.11084   0.72344   0.00000  Uiso   1.00
C17    C     0.28024   0.13825   0.72746   0.00000  Uiso   1.00
C18    C     0.39880   0.05080   0.97362   0.00000  Uiso   1.00
C19    C     0.41565   0.96792   0.98368   0.00000  Uiso   1.00
C20    C     0.41512   0.92997   0.10672   0.00000  Uiso   1.00
C21    C     0.42002   0.18849   0.87754   0.00000  Uiso   1.00
C22    C     0.45472   0.22137   0.80683   0.00000  Uiso   1.00
C23    C     0.47206   0.29933   0.84900   0.00000  Uiso   1.00
H24    H     0.35219   0.21810   0.13411   0.00000  Uiso   1.00
H25    H     0.27592   0.23292   0.02976   0.00000  Uiso   1.00
H26    H     0.36846   0.09003   0.28996   0.00000  Uiso   1.00
H27    H     0.40752   0.34344   0.11314   0.00000  Uiso   1.00
H28    H     0.19875   0.23018   0.86604   0.00000  Uiso   1.00
H29    H     0.39389   0.92890   0.41469   0.00000  Uiso   1.00
H30    H     0.47626   0.46326   0.04183   0.00000  Uiso   1.00
H31    H     0.40925   0.07049   0.76380   0.00000  Uiso   1.00
H32    H     0.33611   0.07722   0.63912   0.00000  Uiso   1.00
H33    H     0.42865   0.93433   0.89933   0.00000  Uiso   1.00
H34    H     0.46771   0.18774   0.72251   0.00000  Uiso   1.00
H35    H     0.24760   0.10380   0.54898   0.00000  Uiso   1.00
H36    H     0.44274   0.80252   0.09765   0.00000  Uiso   1.00
H37    H     0.52511   0.33688   0.72477   0.00000  Uiso   1.00
O38    O     0.17403   0.17406   0.63219   0.00000  Uiso   1.00
O39    O     0.43005   0.77880   0.35202   0.00000  Uiso   1.00
O40    O     0.53811   0.47987   0.86282   0.00000  Uiso   1.00
N41    N     0.22029   0.19953   0.80851   0.00000  Uiso   1.00
N42    N     0.40273   0.91784   0.32148   0.00000  Uiso   1.00
N43    N     0.47974   0.41742   0.97290   0.00000  Uiso   1.00
N44    N     0.24658   0.13153   0.63791   0.00000  Uiso   1.00
N45    N     0.42901   0.84984   0.15087   0.00000  Uiso   1.00
N46    N     0.50603   0.34942   0.80229   0.00000  Uiso   1.00
C47    C     0.63364   0.85269   0.95764   0.00000  Uiso   1.00
C48    C     0.66394   0.87377   0.07116   0.00000  Uiso   1.00
C49    C     0.70748   0.85165   0.07907   0.00000  Uiso   1.00
C50    C     0.72960   0.87687   0.19103   0.00000  Uiso   1.00
C51    C     0.77980   0.90267   0.35199   0.00000  Uiso   1.00
C52    C     0.61517   0.93889   0.91165   0.00000  Uiso   1.00
C53    C     0.61771   0.97152   0.78544   0.00000  Uiso   1.00
C54    C     0.59878   0.05156   0.76312   0.00000  Uiso   1.00
C55    C     0.57324   0.17844   0.67642   0.00000  Uiso   1.00
C56    C     0.59566   0.80309   0.01675   0.00000  Uiso   1.00
C57    C     0.58180   0.72154   0.97888   0.00000  Uiso   1.00
C58    C     0.54643   0.68724   0.04504   0.00000  Uiso   1.00
C59    C     0.49061   0.60327   0.12152   0.00000  Uiso   1.00
C60    C     0.59548   0.93682   0.14242   0.00000  Uiso   1.00
C61    C     0.64321   0.91946   0.17152   0.00000  Uiso   1.00
C62    C     0.66527   0.94472   0.28350   0.00000  Uiso   1.00
C63    C     0.70884   0.92264   0.29158   0.00000  Uiso   1.00
C64    C     0.59445   0.98458   0.01200   0.00000  Uiso   1.00
C65    C     0.57550   0.06459   0.98987   0.00000  Uiso   1.00
C66    C     0.57802   0.09733   0.86366   0.00000  Uiso   1.00
C67    C     0.57494   0.84878   0.11711   0.00000  Uiso   1.00
C68    C     0.53958   0.81461   0.18333   0.00000  Uiso   1.00
C69    C     0.52567   0.73302   0.14558   0.00000  Uiso   1.00
H70    H     0.64977   0.81713   0.87950   0.00000  Uiso   1.00
H71    H     0.72351   0.81629   0.00137   0.00000  Uiso   1.00
H72    H     0.63375   0.93614   0.70779   0.00000  Uiso   1.00
H73    H     0.59784   0.68620   0.90122   0.00000  Uiso   1.00
H74    H     0.79612   0.83555   0.18073   0.00000  Uiso   1.00
H75    H     0.60685   0.08824   0.56168   0.00000  Uiso   1.00
H76    H     0.53113   0.56118   0.96955   0.00000  Uiso   1.00
H77    H     0.57935   0.97239   0.22056   0.00000  Uiso   1.00
H78    H     0.64922   0.98008   0.36115   0.00000  Uiso   1.00
H79    H     0.55946   0.09993   0.06756   0.00000  Uiso   1.00
H80    H     0.52355   0.84998   0.26099   0.00000  Uiso   1.00
H81    H     0.73583   0.96848   0.47273   0.00000  Uiso   1.00
H82    H     0.54655   0.22118   0.85368   0.00000  Uiso   1.00
H83    H     0.47083   0.69412   0.26155   0.00000  Uiso   1.00
O84    O     0.81322   0.90429   0.41304   0.00000  Uiso   1.00
O85    O     0.56489   0.23581   0.60086   0.00000  Uiso   1.00
O86    O     0.46554   0.54432   0.13599   0.00000  Uiso   1.00
N87    N     0.77234   0.86576   0.23017   0.00000  Uiso   1.00
N88    N     0.59539   0.10202   0.65140   0.00000  Uiso   1.00
N89    N     0.52459   0.60928   0.03270   0.00000  Uiso   1.00
N90    N     0.73990   0.93729   0.38730   0.00000  Uiso   1.00
N91    N     0.56295   0.17356   0.80852   0.00000  Uiso   1.00
N92    N     0.49214   0.68081   0.18983   0.00000  Uiso   1.00
C93    C     0.13474   0.81572   0.54926   0.00000  Uiso   1.00
C94    C     0.16827   0.82812   0.44121   0.00000  Uiso   1.00
C95    C     0.21110   0.80068   0.44541   0.00000  Uiso   1.00
C96    C     0.23658   0.81824   0.33664   0.00000  Uiso   1.00
C97    C     0.29120   0.83093   0.18546   0.00000  Uiso   1.00
C98    C     0.11799   0.90577   0.58259   0.00000  Uiso   1.00
C99    C     0.11855   0.94360   0.70565   0.00000  Uiso   1.00
C100   C     0.10171   0.02651   0.71589   0.00000  Uiso   1.00
C101   C     0.07825   0.15972   0.78422   0.00000  Uiso   1.00
C102   C     0.09677   0.76808   0.48651   0.00000  Uiso   1.00
C103   C     0.07948   0.69015   0.52880   0.00000  Uiso   1.00
C104   C     0.04476   0.65715   0.45817   0.00000  Uiso   1.00
C105   C     0.98836   0.57658   0.37732   0.00000  Uiso   1.00
C106   C     0.10382   0.89569   0.34864   0.00000  Uiso   1.00
C107   C     0.15147   0.87156   0.33225   0.00000  Uiso   1.00
C108   C     0.17690   0.88916   0.22344   0.00000  Uiso   1.00
C109   C     0.21976   0.86175   0.22746   0.00000  Uiso   1.00
C110   C     0.10120   0.94920   0.47362   0.00000  Uiso   1.00
C111   C     0.08435   0.03208   0.48368   0.00000  Uiso   1.00
C112   C     0.08488   0.07003   0.60672   0.00000  Uiso   1.00
C113   C     0.07998   0.81151   0.37754   0.00000  Uiso   1.00
C114   C     0.04528   0.77863   0.30683   0.00000  Uiso   1.00
C115   C     0.02794   0.70067   0.34900   0.00000  Uiso   1.00
H116   H     0.14781   0.78190   0.63411   0.00000  Uiso   1.00
H117   H     0.22408   0.76708   0.52976   0.00000  Uiso   1.00
H118   H     0.13154   0.90997   0.78996   0.00000  Uiso   1.00
H119   H     0.09248   0.65656   0.61314   0.00000  Uiso   1.00
H120   H     0.30125   0.76982   0.36604   0.00000  Uiso   1.00
H121   H     0.10611   0.07110   0.91469   0.00000  Uiso   1.00
H122   H     0.02374   0.53674   0.54183   0.00000  Uiso   1.00
H123   H     0.09075   0.92951   0.26380   0.00000  Uiso   1.00
H124   H     0.16389   0.92278   0.13912   0.00000  Uiso   1.00
H125   H     0.07135   0.06567   0.39933   0.00000  Uiso   1.00
H126   H     0.03229   0.81226   0.22251   0.00000  Uiso   1.00
H127   H     0.25240   0.89620   0.04898   0.00000  Uiso   1.00
H128   H     0.05726   0.19748   0.59765   0.00000  Uiso   1.00
H129   H     0.97489   0.66312   0.22477   0.00000  Uiso   1.00
O130   O     0.32597   0.82594   0.13219   0.00000  Uiso   1.00
O131   O     0.06995   0.22120   0.85202   0.00000  Uiso   1.00
O132   O     0.96189   0.52013   0.36282   0.00000  Uiso   1.00
N133   N     0.27971   0.80047   0.30851   0.00000  Uiso   1.00
N134   N     0.09727   0.08216   0.82148   0.00000  Uiso   1.00
N135   N     0.02026   0.58258   0.47290   0.00000  Uiso   1.00
N136   N     0.25342   0.86847   0.13791   0.00000  Uiso   1.00
N137   N     0.07099   0.15016   0.65087   0.00000  Uiso   1.00
N138   N     0.99397   0.65058   0.30229   0.00000  Uiso   1.00
C139   C     0.86636   0.14731   0.45764   0.00000  Uiso   1.00
C140   C     0.83606   0.12623   0.57116   0.00000  Uiso   1.00
C141   C     0.79252   0.14835   0.57907   0.00000  Uiso   1.00
C142   C     0.77040   0.12313   0.69103   0.00000  Uiso   1.00
C143   C     0.72020   0.09733   0.85199   0.00000  Uiso   1.00
C144   C     0.88483   0.06111   0.41165   0.00000  Uiso   1.00
C145   C     0.88229   0.02848   0.28544   0.00000  Uiso   1.00
C146   C     0.90122   0.94844   0.26312   0.00000  Uiso   1.00
C147   C     0.92676   0.82156   0.17642   0.00000  Uiso   1.00
C148   C     0.90434   0.19691   0.51675   0.00000  Uiso   1.00
C149   C     0.91820   0.27846   0.47888   0.00000  Uiso   1.00
C150   C     0.95357   0.31276   0.54504   0.00000  Uiso   1.00
C151   C     0.00939   0.39673   0.62152   0.00000  Uiso   1.00
C152   C     0.90452   0.06318   0.64242   0.00000  Uiso   1.00
C153   C     0.85679   0.08054   0.67152   0.00000  Uiso   1.00
C154   C     0.83473   0.05528   0.78350   0.00000  Uiso   1.00
C155   C     0.79116   0.07736   0.79158   0.00000  Uiso   1.00
C156   C     0.90555   0.01542   0.51200   0.00000  Uiso   1.00
C157   C     0.92450   0.93541   0.48987   0.00000  Uiso   1.00
C158   C     0.92198   0.90267   0.36366   0.00000  Uiso   1.00
C159   C     0.92506   0.15122   0.61711   0.00000  Uiso   1.00
C160   C     0.96042   0.18539   0.68333   0.00000  Uiso   1.00
C161   C     0.97433   0.26698   0.64558   0.00000  Uiso   1.00
H162   H     0.85023   0.18287   0.37950   0.00000  Uiso   1.00
H163   H     0.77649   0.18371   0.50137   0.00000  Uiso   1.00
H164   H     0.86625   0.06386   0.20779   0.00000  Uiso   1.00
H165   H     0.90216   0.31380   0.40122   0.00000  Uiso   1.00
H166   H     0.70388   0.16445   0.68073   0.00000  Uiso   1.00
H167   H     0.89315   0.91176   0.06168   0.00000  Uiso   1.00
H168   H     0.96887   0.43882   0.46955   0.00000  Uiso   1.00
H169   H     0.92065   0.02761   0.72056   0.00000  Uiso   1.00
H170   H     0.85078   0.01992   0.86115   0.00000  Uiso   1.00
H171   H     0.94054   0.90007   0.56756   0.00000  Uiso   1.00
H172   H     0.97645   0.15002   0.76099   0.00000  Uiso   1.00
H173   H     0.76417   0.03152   0.97273   0.00000  Uiso   1.00
H174   H     0.95345   0.77882   0.35368   0.00000  Uiso   1.00
H175   H     0.02917   0.30588   0.76155   0.00000  Uiso   1.00
O176   O     0.68678   0.09571   0.91304   0.00000  Uiso   1.00
O177   O     0.93511   0.76419   0.10086   0.00000  Uiso   1.00
O178   O     0.03446   0.45568   0.63599   0.00000  Uiso   1.00
N179   N     0.72766   0.13424   0.73017   0.00000  Uiso   1.00
N180   N     0.90461   0.89798   0.15140   0.00000  Uiso   1.00
N181   N     0.97541   0.39072   0.53270   0.00000  Uiso   1.00
N182   N     0.76010   0.06271   0.88730   0.00000  Uiso   1.00
N183   N     0.93705   0.82644   0.30852   0.00000  Uiso   1.00
N184   N     0.00786   0.31919   0.68983   0.00000  Uiso   1.00
C185   C     0.63474   0.68428   0.45074   0.00000  Uiso   1.00
C186   C     0.66827   0.67188   0.55879   0.00000  Uiso   1.00
C187   C     0.71110   0.69932   0.55459   0.00000  Uiso   1.00
C188   C     0.73658   0.68176   0.66336   0.00000  Uiso   1.00
C189   C     0.79120   0.66907   0.81454   0.00000  Uiso   1.00
C190   C     0.61799   0.59423   0.41741   0.00000  Uiso   1.00
C191   C     0.61855   0.55640   0.29435   0.00000  Uiso   1.00
C192   C     0.60171   0.47349   0.28411   0.00000  Uiso   1.00
C193   C     0.57825   0.34028   0.21578   0.00000  Uiso   1.00
C194   C     0.59677   0.73192   0.51349   0.00000  Uiso   1.00
C195   C     0.57948   0.80985   0.47120   0.00000  Uiso   1.00
C196   C     0.54476   0.84285   0.54183   0.00000  Uiso   1.00
C197   C     0.48836   0.92342   0.62268   0.00000  Uiso   1.00
C198   C     0.60382   0.60431   0.65136   0.00000  Uiso   1.00
C199   C     0.65147   0.62844   0.66775   0.00000  Uiso   1.00
C200   C     0.67690   0.61084   0.77656   0.00000  Uiso   1.00
C201   C     0.71976   0.63825   0.77254   0.00000  Uiso   1.00
C202   C     0.60120   0.55080   0.52638   0.00000  Uiso   1.00
C203   C     0.58435   0.46792   0.51632   0.00000  Uiso   1.00
C204   C     0.58488   0.42997   0.39328   0.00000  Uiso   1.00
C205   C     0.57998   0.68849   0.62246   0.00000  Uiso   1.00
C206   C     0.54528   0.72137   0.69317   0.00000  Uiso   1.00
C207   C     0.52794   0.79933   0.65100   0.00000  Uiso   1.00
H208   H     0.64781   0.71810   0.36589   0.00000  Uiso   1.00
H209   H     0.72408   0.73292   0.47024   0.00000  Uiso   1.00
H210   H     0.63154   0.59003   0.21004   0.00000  Uiso   1.00
H211   H     0.59248   0.84344   0.38686   0.00000  Uiso   1.00
H212   H     0.80125   0.73018   0.63396   0.00000  Uiso   1.00
H213   H     0.60611   0.42890   0.08531   0.00000  Uiso   1.00
H214   H     0.52374   0.96326   0.45817   0.00000  Uiso   1.00
H215   H     0.59075   0.57049   0.73620   0.00000  Uiso   1.00
H216   H     0.66389   0.57722   0.86088   0.00000  Uiso   1.00
H217   H     0.57135   0.43433   0.60067   0.00000  Uiso   1.00
H218   H     0.53229   0.68774   0.77749   0.00000  Uiso   1.00
H219   H     0.75240   0.60380   0.95102   0.00000  Uiso   1.00
H220   H     0.55726   0.30252   0.40235   0.00000  Uiso   1.00
H221   H     0.47489   0.83688   0.77523   0.00000  Uiso   1.00
O222   O     0.82597   0.67406   0.86781   0.00000  Uiso   1.00
O223   O     0.56995   0.27880   0.14798   0.00000  Uiso   1.00
O224   O     0.46189   0.97987   0.63718   0.00000  Uiso   1.00
N225   N     0.77971   0.69953   0.69149   0.00000  Uiso   1.00
N226   N     0.59727   0.41784   0.17852   0.00000  Uiso   1.00
N227   N     0.52026   0.91742   0.52710   0.00000  Uiso   1.00
N228   N     0.75342   0.63153   0.86209   0.00000  Uiso   1.00
N229   N     0.57099   0.34984   0.34913   0.00000  Uiso   1.00
N230   N     0.49397   0.84942   0.69771   0.00000  Uiso   1.00
C231   C     0.36636   0.35269   0.54236   0.00000  Uiso   1.00
C232   C     0.33606   0.37377   0.42884   0.00000  Uiso   1.00
C233   C     0.29252   0.35165   0.42093   0.00000  Uiso   1.00
C234   C     0.27040   0.37687   0.30897   0.00000  Uiso   1.00
C235   C     0.22020   0.40267   0.14801   0.00000  Uiso   1.00
C236   C     0.38483   0.43889   0.58835   0.00000  Uiso   1.00
C237   C     0.38229   0.47152   0.71456   0.00000  Uiso   1.00
C238   C     0.40122   0.55156   0.73688   0.00000  Uiso   1.00
C239   C     0.42676   0.67844   0.82358   0.00000  Uiso   1.00
C240   C     0.40434   0.30309   0.48325   0.00000  Uiso   1.00
C241   C     0.41820   0.22154   0.52112   0.00000  Uiso   1.00
C242   C     0.45357   0.18724   0.45496   0.00000  Uiso   1.00
C243   C     0.50939   0.10327   0.37848   0.00000  Uiso   1.00
C244   C     0.40452   0.43682   0.35758   0.00000  Uiso   1.00
C245   C     0.35679   0.41946   0.32848   0.00000  Uiso   1.00
C246   C     0.33473   0.44472   0.21650   0.00000  Uiso   1.00
C247   C     0.29116   0.42264   0.20842   0.00000  Uiso   1.00
C248   C     0.40555   0.48458   0.48800   0.00000  Uiso   1.00
C249   C     0.42450   0.56459   0.51013   0.00000  Uiso   1.00
C250   C     0.42198   0.59733   0.63634   0.00000  Uiso   1.00
C251   C     0.42506   0.34878   0.38289   0.00000  Uiso   1.00
C252   C     0.46042   0.31461   0.31667   0.00000  Uiso   1.00
C253   C     0.47433   0.23302   0.35442   0.00000  Uiso   1.00
H254   H     0.35023   0.31713   0.62050   0.00000  Uiso   1.00
H255   H     0.27649   0.31629   0.49863   0.00000  Uiso   1.00
H256   H     0.36625   0.43614   0.79221   0.00000  Uiso   1.00
H257   H     0.40216   0.18620   0.59878   0.00000  Uiso   1.00
H258   H     0.20388   0.33555   0.31927   0.00000  Uiso   1.00
H259   H     0.39315   0.58824   0.93832   0.00000  Uiso   1.00
H260   H     0.46887   0.06118   0.53045   0.00000  Uiso   1.00
H261   H     0.42065   0.47239   0.27944   0.00000  Uiso   1.00
H262   H     0.35078   0.48008   0.13885   0.00000  Uiso   1.00
H263   H     0.44054   0.59993   0.43244   0.00000  Uiso   1.00
H264   H     0.47645   0.34998   0.23901   0.00000  Uiso   1.00
H265   H     0.26417   0.46848   0.02727   0.00000  Uiso   1.00
H266   H     0.45345   0.72118   0.64632   0.00000  Uiso   1.00
H267   H     0.52917   0.19412   0.23845   0.00000  Uiso   1.00
O268   O     0.18678   0.40429   0.08696   0.00000  Uiso   1.00
O269   O     0.43511   0.73581   0.89914   0.00000  Uiso   1.00
O270   O     0.53446   0.04432   0.36401   0.00000  Uiso   1.00
N271   N     0.22766   0.36576   0.26983   0.00000  Uiso   1.00
N272   N     0.40461   0.60202   0.84860   0.00000  Uiso   1.00
N273   N     0.47541   0.10928   0.46730   0.00000  Uiso   1.00
N274   N     0.26010   0.43729   0.11270   0.00000  Uiso   1.00
N275   N     0.43705   0.67356   0.69148   0.00000  Uiso   1.00
N276   N     0.50786   0.18081   0.31017   0.00000  Uiso   1.00
C277   C     0.86526   0.31572   0.95074   0.00000  Uiso   1.00
C278   C     0.83173   0.32812   0.05879   0.00000  Uiso   1.00
C279   C     0.78890   0.30068   0.05459   0.00000  Uiso   1.00
C280   C     0.76342   0.31824   0.16336   0.00000  Uiso   1.00
C281   C     0.70880   0.33093   0.31454   0.00000  Uiso   1.00
C282   C     0.88201   0.40577   0.91741   0.00000  Uiso   1.00
C283   C     0.88145   0.44360   0.79435   0.00000  Uiso   1.00
C284   C     0.89829   0.52651   0.78411   0.00000  Uiso   1.00
C285   C     0.92175   0.65972   0.71578   0.00000  Uiso   1.00
C286   C     0.90323   0.26808   0.01349   0.00000  Uiso   1.00
C287   C     0.92052   0.19015   0.97120   0.00000  Uiso   1.00
C288   C     0.95524   0.15715   0.04183   0.00000  Uiso   1.00
C289   C     0.01164   0.07658   0.12268   0.00000  Uiso   1.00
C290   C     0.89618   0.39569   0.15136   0.00000  Uiso   1.00
C291   C     0.84853   0.37156   0.16775   0.00000  Uiso   1.00
C292   C     0.82310   0.38916   0.27656   0.00000  Uiso   1.00
C293   C     0.78024   0.36175   0.27254   0.00000  Uiso   1.00
C294   C     0.89880   0.44920   0.02638   0.00000  Uiso   1.00
C295   C     0.91565   0.53208   0.01632   0.00000  Uiso   1.00
C296   C     0.91512   0.57003   0.89328   0.00000  Uiso   1.00
C297   C     0.92002   0.31151   0.12246   0.00000  Uiso   1.00
C298   C     0.95472   0.27863   0.19317   0.00000  Uiso   1.00
C299   C     0.97206   0.20067   0.15100   0.00000  Uiso   1.00
H300   H     0.85219   0.28190   0.86589   0.00000  Uiso   1.00
H301   H     0.77592   0.26708   0.97024   0.00000  Uiso   1.00
H302   H     0.86846   0.40997   0.71004   0.00000  Uiso   1.00
H303   H     0.90752   0.15656   0.88686   0.00000  Uiso   1.00
H304   H     0.69875   0.26982   0.13396   0.00000  Uiso   1.00
H305   H     0.89389   0.57110   0.58531   0.00000  Uiso   1.00
H306   H     0.97626   0.03674   0.95817   0.00000  Uiso   1.00
H307   H     0.90925   0.42951   0.23620   0.00000  Uiso   1.00
H308   H     0.83611   0.42278   0.36088   0.00000  Uiso   1.00
H309   H     0.92865   0.56567   0.10067   0.00000  Uiso   1.00
H310   H     0.96771   0.31226   0.27749   0.00000  Uiso   1.00
H311   H     0.74760   0.39620   0.45102   0.00000  Uiso   1.00
H312   H     0.94274   0.69748   0.90235   0.00000  Uiso   1.00
H313   H     0.02511   0.16312   0.27523   0.00000  Uiso   1.00
O314   O     0.67403   0.32594   0.36781   0.00000  Uiso   1.00
O315   O     0.93005   0.72120   0.64798   0.00000  Uiso   1.00
O316   O     0.03811   0.02013   0.13718   0.00000  Uiso   1.00
N317   N     0.72029   0.30047   0.19149   0.00000  Uiso   1.00
N318   N     0.90273   0.58216   0.67852   0.00000  Uiso   1.00
N319   N     0.97974   0.08258   0.02710   0.00000  Uiso   1.00
N320   N     0.74658   0.36847   0.36209   0.00000  Uiso   1.00
N321   N     0.92901   0.65016   0.84913   0.00000  Uiso   1.00
N322   N     0.00603   0.15058   0.19771   0.00000  Uiso   1.00
C323   C     0.13364   0.64731   0.04236   0.00000  Uiso   1.00
C324   C     0.16394   0.62623   0.92884   0.00000  Uiso   1.00
C325   C     0.20748   0.64835   0.92093   0.00000  Uiso   1.00
C326   C     0.22960   0.62313   0.80897   0.00000  Uiso   1.00
C327   C     0.27980   0.59733   0.64801   0.00000  Uiso   1.00
C328   C     0.11517   0.56111   0.08835   0.00000  Uiso   1.00
C329   C     0.11771   0.52848   0.21456   0.00000  Uiso   1.00
C330   C     0.09878   0.44844   0.23688   0.00000  Uiso   1.00
C331   C     0.07324   0.32156   0.32358   0.00000  Uiso   1.00
C332   C     0.09566   0.69691   0.98325   0.00000  Uiso   1.00
C333   C     0.08180   0.77846   0.02112   0.00000  Uiso   1.00
C334   C     0.04643   0.81276   0.95496   0.00000  Uiso   1.00
C335   C     0.99061   0.89673   0.87848   0.00000  Uiso   1.00
C336   C     0.09548   0.56318   0.85758   0.00000  Uiso   1.00
C337   C     0.14321   0.58054   0.82848   0.00000  Uiso   1.00
C338   C     0.16527   0.55528   0.71650   0.00000  Uiso   1.00
C339   C     0.20884   0.57736   0.70842   0.00000  Uiso   1.00
C340   C     0.09445   0.51542   0.98800   0.00000  Uiso   1.00
C341   C     0.07550   0.43541   0.01013   0.00000  Uiso   1.00
C342   C     0.07802   0.40267   0.13634   0.00000  Uiso   1.00
C343   C     0.07494   0.65122   0.88289   0.00000  Uiso   1.00
C344   C     0.03958   0.68539   0.81667   0.00000  Uiso   1.00
C345   C     0.02567   0.76698   0.85442   0.00000  Uiso   1.00
H346   H     0.14977   0.68287   0.12050   0.00000  Uiso   1.00
H347   H     0.22351   0.68371   0.99863   0.00000  Uiso   1.00
H348   H     0.13375   0.56386   0.29221   0.00000  Uiso   1.00
H349   H     0.09784   0.81380   0.09878   0.00000  Uiso   1.00
H350   H     0.29612   0.66445   0.81927   0.00000  Uiso   1.00
H351   H     0.10685   0.41176   0.43832   0.00000  Uiso   1.00
H352   H     0.03113   0.93882   0.03045   0.00000  Uiso   1.00
H353   H     0.07935   0.52761   0.77944   0.00000  Uiso   1.00
H354   H     0.14922   0.51992   0.63885   0.00000  Uiso   1.00
H355   H     0.05946   0.40007   0.93244   0.00000  Uiso   1.00
H356   H     0.02355   0.65002   0.73901   0.00000  Uiso   1.00
H357   H     0.23583   0.53152   0.52727   0.00000  Uiso   1.00
H358   H     0.04655   0.27882   0.14632   0.00000  Uiso   1.00
H359   H     0.97083   0.80588   0.73845   0.00000  Uiso   1.00
O360   O     0.31322   0.59571   0.58696   0.00000  Uiso   1.00
O361   O     0.06489   0.26419   0.39914   0.00000  Uiso   1.00
O362   O     0.96554   0.95568   0.86401   0.00000  Uiso   1.00
N363   N     0.27234   0.63424   0.76983   0.00000  Uiso   1.00
N364   N     0.09539   0.39798   0.34860   0.00000  Uiso   1.00
N365   N     0.02459   0.89072   0.96730   0.00000  Uiso   1.00
N366   N     0.23990   0.56271   0.61270   0.00000  Uiso   1.00
N367   N     0.06295   0.32644   0.19148   0.00000  Uiso   1.00
N368   N     0.99214   0.81919   0.81017   0.00000  Uiso   1.00
