data_job_03269
_audit_creation_date              2018-12-19
_audit_creation_method            'Materials Studio'
_symmetry_space_group_name_H-M    'P1'
_symmetry_Int_Tables_number       1
_symmetry_cell_setting            triclinic
loop_
_symmetry_equiv_pos_as_xyz
  x,y,z
_cell_length_a                    23.1604
_cell_length_b                    15.0542
_cell_length_c                    14.2696
_cell_angle_alpha                 90.0000
_cell_angle_beta                  90.0000
_cell_angle_gamma                 90.0000
loop_
_atom_site_label
_atom_site_type_symbol
_atom_site_fract_x
_atom_site_fract_y
_atom_site_fract_z
_atom_site_U_iso_or_equiv
_atom_site_adp_type
_atom_site_occupancy
C1     C     0.41595   0.78896   0.44184   0.00000  Uiso   1.00
C2     C     0.40833   0.84802   0.52779   0.00000  Uiso   1.00
C3     C     0.39412   0.93756   0.52661   0.00000  Uiso   1.00
C4     C     0.38919   0.97981   0.61273   0.00000  Uiso   1.00
C5     C     0.37603   0.07847   0.73336   0.00000  Uiso   1.00
C6     C     0.47648   0.74975   0.44926   0.00000  Uiso   1.00
C7     C     0.51957   0.75666   0.38205   0.00000  Uiso   1.00
C8     C     0.57200   0.71617   0.40207   0.00000  Uiso   1.00
C9     C     0.66463   0.66221   0.40076   0.00000  Uiso   1.00
C10    C     0.37435   0.71141   0.45473   0.00000  Uiso   1.00
C11    C     0.33156   0.68607   0.39211   0.00000  Uiso   1.00
C12    C     0.29800   0.61328   0.41671   0.00000  Uiso   1.00
C13    C     0.23205   0.49980   0.42389   0.00000  Uiso   1.00
C14    C     0.43246   0.70474   0.59688   0.00000  Uiso   1.00
C15    C     0.41730   0.80227   0.61199   0.00000  Uiso   1.00
C16    C     0.41238   0.84439   0.69814   0.00000  Uiso   1.00
C17    C     0.39817   0.93398   0.69709   0.00000  Uiso   1.00
C18    C     0.48545   0.70400   0.53346   0.00000  Uiso   1.00
C19    C     0.53783   0.66348   0.55358   0.00000  Uiso   1.00
C20    C     0.58098   0.67034   0.48643   0.00000  Uiso   1.00
C21    C     0.38331   0.66566   0.53894   0.00000  Uiso   1.00
C22    C     0.34982   0.59290   0.56364   0.00000  Uiso   1.00
C23    C     0.30699   0.56745   0.50107   0.00000  Uiso   1.00
H24    H     0.40897   0.82457   0.37628   0.00000  Uiso   1.00
H25    H     0.38719   0.97294   0.46143   0.00000  Uiso   1.00
H26    H     0.51261   0.79206   0.31689   0.00000  Uiso   1.00
H27    H     0.32463   0.72148   0.32695   0.00000  Uiso   1.00
H28    H     0.36702   0.11727   0.59296   0.00000  Uiso   1.00
H29    H     0.63147   0.73584   0.28819   0.00000  Uiso   1.00
H30    H     0.23508   0.58702   0.30939   0.00000  Uiso   1.00
H31    H     0.43944   0.66913   0.66244   0.00000  Uiso   1.00
H32    H     0.41933   0.80897   0.76329   0.00000  Uiso   1.00
H33    H     0.54475   0.62809   0.61875   0.00000  Uiso   1.00
H34    H     0.35677   0.55751   0.62881   0.00000  Uiso   1.00
H35    H     0.39310   0.98419   0.83796   0.00000  Uiso   1.00
H36    H     0.65756   0.60276   0.53318   0.00000  Uiso   1.00
H37    H     0.26116   0.45393   0.55439   0.00000  Uiso   1.00
O38    O     0.36630   0.14554   0.77664   0.00000  Uiso   1.00
O39    O     0.71325   0.64510   0.37678   0.00000  Uiso   1.00
O40    O     0.19319   0.44985   0.40460   0.00000  Uiso   1.00
N41    N     0.37591   0.06676   0.63678   0.00000  Uiso   1.00
N42    N     0.62316   0.71015   0.35184   0.00000  Uiso   1.00
N43    N     0.25257   0.57100   0.37165   0.00000  Uiso   1.00
N44    N     0.38994   0.99514   0.76862   0.00000  Uiso   1.00
N45    N     0.63719   0.63854   0.48367   0.00000  Uiso   1.00
N46    N     0.26661   0.49939   0.50349   0.00000  Uiso   1.00
C47    C     0.08405   0.71104   0.44184   0.00000  Uiso   1.00
C48    C     0.09167   0.65198   0.52779   0.00000  Uiso   1.00
C49    C     0.10588   0.56244   0.52661   0.00000  Uiso   1.00
C50    C     0.11081   0.52019   0.61273   0.00000  Uiso   1.00
C51    C     0.12397   0.42153   0.73336   0.00000  Uiso   1.00
C52    C     0.02352   0.75025   0.44926   0.00000  Uiso   1.00
C53    C     0.98043   0.74334   0.38205   0.00000  Uiso   1.00
C54    C     0.92800   0.78383   0.40207   0.00000  Uiso   1.00
C55    C     0.83537   0.83779   0.40076   0.00000  Uiso   1.00
C56    C     0.12565   0.78859   0.45473   0.00000  Uiso   1.00
C57    C     0.16844   0.81393   0.39211   0.00000  Uiso   1.00
C58    C     0.20200   0.88672   0.41671   0.00000  Uiso   1.00
C59    C     0.26795   0.00020   0.42389   0.00000  Uiso   1.00
C60    C     0.06754   0.79526   0.59688   0.00000  Uiso   1.00
C61    C     0.08270   0.69773   0.61199   0.00000  Uiso   1.00
C62    C     0.08762   0.65561   0.69814   0.00000  Uiso   1.00
C63    C     0.10183   0.56602   0.69709   0.00000  Uiso   1.00
C64    C     0.01455   0.79600   0.53346   0.00000  Uiso   1.00
C65    C     0.96217   0.83652   0.55358   0.00000  Uiso   1.00
C66    C     0.91902   0.82966   0.48643   0.00000  Uiso   1.00
C67    C     0.11669   0.83434   0.53894   0.00000  Uiso   1.00
C68    C     0.15018   0.90710   0.56364   0.00000  Uiso   1.00
C69    C     0.19301   0.93255   0.50107   0.00000  Uiso   1.00
H70    H     0.09103   0.67543   0.37628   0.00000  Uiso   1.00
H71    H     0.11281   0.52706   0.46143   0.00000  Uiso   1.00
H72    H     0.98739   0.70794   0.31689   0.00000  Uiso   1.00
H73    H     0.17537   0.77852   0.32695   0.00000  Uiso   1.00
H74    H     0.13298   0.38273   0.59296   0.00000  Uiso   1.00
H75    H     0.86853   0.76416   0.28819   0.00000  Uiso   1.00
H76    H     0.26492   0.91298   0.30939   0.00000  Uiso   1.00
H77    H     0.06056   0.83087   0.66244   0.00000  Uiso   1.00
H78    H     0.08067   0.69103   0.76329   0.00000  Uiso   1.00
H79    H     0.95525   0.87191   0.61875   0.00000  Uiso   1.00
H80    H     0.14323   0.94249   0.62881   0.00000  Uiso   1.00
H81    H     0.10690   0.51581   0.83796   0.00000  Uiso   1.00
H82    H     0.84244   0.89724   0.53318   0.00000  Uiso   1.00
H83    H     0.23884   0.04607   0.55439   0.00000  Uiso   1.00
O84    O     0.13370   0.35446   0.77664   0.00000  Uiso   1.00
O85    O     0.78675   0.85490   0.37678   0.00000  Uiso   1.00
O86    O     0.30681   0.05015   0.40460   0.00000  Uiso   1.00
N87    N     0.12409   0.43324   0.63678   0.00000  Uiso   1.00
N88    N     0.87684   0.78985   0.35184   0.00000  Uiso   1.00
N89    N     0.24743   0.92900   0.37165   0.00000  Uiso   1.00
N90    N     0.11006   0.50486   0.76862   0.00000  Uiso   1.00
N91    N     0.86281   0.86146   0.48367   0.00000  Uiso   1.00
N92    N     0.23339   0.00061   0.50349   0.00000  Uiso   1.00
C93    C     0.58405   0.28896   0.05816   0.00000  Uiso   1.00
C94    C     0.59167   0.34802   0.97221   0.00000  Uiso   1.00
C95    C     0.60588   0.43756   0.97339   0.00000  Uiso   1.00
C96    C     0.61081   0.47981   0.88727   0.00000  Uiso   1.00
C97    C     0.62397   0.57847   0.76664   0.00000  Uiso   1.00
C98    C     0.52352   0.24975   0.05074   0.00000  Uiso   1.00
C99    C     0.48043   0.25666   0.11795   0.00000  Uiso   1.00
C100   C     0.42800   0.21617   0.09793   0.00000  Uiso   1.00
C101   C     0.33537   0.16221   0.09924   0.00000  Uiso   1.00
C102   C     0.62565   0.21141   0.04527   0.00000  Uiso   1.00
C103   C     0.66844   0.18607   0.10789   0.00000  Uiso   1.00
C104   C     0.70200   0.11328   0.08329   0.00000  Uiso   1.00
C105   C     0.76795   0.99980   0.07611   0.00000  Uiso   1.00
C106   C     0.56754   0.20474   0.90312   0.00000  Uiso   1.00
C107   C     0.58270   0.30227   0.88801   0.00000  Uiso   1.00
C108   C     0.58762   0.34439   0.80186   0.00000  Uiso   1.00
C109   C     0.60183   0.43398   0.80291   0.00000  Uiso   1.00
C110   C     0.51455   0.20400   0.96654   0.00000  Uiso   1.00
C111   C     0.46217   0.16348   0.94642   0.00000  Uiso   1.00
C112   C     0.41902   0.17034   0.01357   0.00000  Uiso   1.00
C113   C     0.61669   0.16566   0.96106   0.00000  Uiso   1.00
C114   C     0.65018   0.09290   0.93636   0.00000  Uiso   1.00
C115   C     0.69301   0.06745   0.99893   0.00000  Uiso   1.00
H116   H     0.59103   0.32457   0.12372   0.00000  Uiso   1.00
H117   H     0.61281   0.47294   0.03857   0.00000  Uiso   1.00
H118   H     0.48739   0.29206   0.18311   0.00000  Uiso   1.00
H119   H     0.67537   0.22148   0.17305   0.00000  Uiso   1.00
H120   H     0.63298   0.61727   0.90704   0.00000  Uiso   1.00
H121   H     0.36853   0.23584   0.21181   0.00000  Uiso   1.00
H122   H     0.76492   0.08702   0.19061   0.00000  Uiso   1.00
H123   H     0.56056   0.16913   0.83756   0.00000  Uiso   1.00
H124   H     0.58067   0.30897   0.73671   0.00000  Uiso   1.00
H125   H     0.45525   0.12809   0.88125   0.00000  Uiso   1.00
H126   H     0.64323   0.05751   0.87119   0.00000  Uiso   1.00
H127   H     0.60690   0.48419   0.66204   0.00000  Uiso   1.00
H128   H     0.34244   0.10276   0.96682   0.00000  Uiso   1.00
H129   H     0.73884   0.95393   0.94561   0.00000  Uiso   1.00
O130   O     0.63370   0.64554   0.72336   0.00000  Uiso   1.00
O131   O     0.28675   0.14510   0.12322   0.00000  Uiso   1.00
O132   O     0.80681   0.94985   0.09540   0.00000  Uiso   1.00
N133   N     0.62409   0.56676   0.86322   0.00000  Uiso   1.00
N134   N     0.37684   0.21015   0.14816   0.00000  Uiso   1.00
N135   N     0.74743   0.07100   0.12835   0.00000  Uiso   1.00
N136   N     0.61006   0.49514   0.73138   0.00000  Uiso   1.00
N137   N     0.36281   0.13854   0.01633   0.00000  Uiso   1.00
N138   N     0.73339   0.99939   0.99651   0.00000  Uiso   1.00
C139   C     0.91595   0.21104   0.05816   0.00000  Uiso   1.00
C140   C     0.90833   0.15198   0.97221   0.00000  Uiso   1.00
C141   C     0.89412   0.06244   0.97339   0.00000  Uiso   1.00
C142   C     0.88919   0.02019   0.88727   0.00000  Uiso   1.00
C143   C     0.87603   0.92153   0.76664   0.00000  Uiso   1.00
C144   C     0.97648   0.25025   0.05074   0.00000  Uiso   1.00
C145   C     0.01957   0.24334   0.11795   0.00000  Uiso   1.00
C146   C     0.07200   0.28383   0.09793   0.00000  Uiso   1.00
C147   C     0.16463   0.33779   0.09924   0.00000  Uiso   1.00
C148   C     0.87435   0.28859   0.04527   0.00000  Uiso   1.00
C149   C     0.83156   0.31393   0.10789   0.00000  Uiso   1.00
C150   C     0.79800   0.38672   0.08329   0.00000  Uiso   1.00
C151   C     0.73205   0.50020   0.07611   0.00000  Uiso   1.00
C152   C     0.93246   0.29526   0.90312   0.00000  Uiso   1.00
C153   C     0.91730   0.19773   0.88801   0.00000  Uiso   1.00
C154   C     0.91238   0.15561   0.80186   0.00000  Uiso   1.00
C155   C     0.89817   0.06602   0.80291   0.00000  Uiso   1.00
C156   C     0.98545   0.29600   0.96654   0.00000  Uiso   1.00
C157   C     0.03783   0.33652   0.94642   0.00000  Uiso   1.00
C158   C     0.08098   0.32966   0.01357   0.00000  Uiso   1.00
C159   C     0.88331   0.33434   0.96106   0.00000  Uiso   1.00
C160   C     0.84982   0.40710   0.93636   0.00000  Uiso   1.00
C161   C     0.80699   0.43255   0.99893   0.00000  Uiso   1.00
H162   H     0.90897   0.17543   0.12372   0.00000  Uiso   1.00
H163   H     0.88719   0.02706   0.03857   0.00000  Uiso   1.00
H164   H     0.01261   0.20794   0.18311   0.00000  Uiso   1.00
H165   H     0.82463   0.27852   0.17305   0.00000  Uiso   1.00
H166   H     0.86702   0.88273   0.90704   0.00000  Uiso   1.00
H167   H     0.13147   0.26416   0.21181   0.00000  Uiso   1.00
H168   H     0.73508   0.41298   0.19061   0.00000  Uiso   1.00
H169   H     0.93944   0.33087   0.83756   0.00000  Uiso   1.00
H170   H     0.91933   0.19103   0.73671   0.00000  Uiso   1.00
H171   H     0.04475   0.37191   0.88125   0.00000  Uiso   1.00
H172   H     0.85677   0.44249   0.87119   0.00000  Uiso   1.00
H173   H     0.89310   0.01581   0.66204   0.00000  Uiso   1.00
H174   H     0.15756   0.39724   0.96682   0.00000  Uiso   1.00
H175   H     0.76116   0.54607   0.94561   0.00000  Uiso   1.00
O176   O     0.86630   0.85446   0.72336   0.00000  Uiso   1.00
O177   O     0.21325   0.35490   0.12322   0.00000  Uiso   1.00
O178   O     0.69319   0.55015   0.09540   0.00000  Uiso   1.00
N179   N     0.87591   0.93324   0.86322   0.00000  Uiso   1.00
N180   N     0.12316   0.28985   0.14816   0.00000  Uiso   1.00
N181   N     0.75257   0.42900   0.12835   0.00000  Uiso   1.00
N182   N     0.88994   0.00486   0.73138   0.00000  Uiso   1.00
N183   N     0.13719   0.36146   0.01633   0.00000  Uiso   1.00
N184   N     0.76661   0.50061   0.99651   0.00000  Uiso   1.00
C185   C     0.58405   0.21104   0.55816   0.00000  Uiso   1.00
C186   C     0.59167   0.15198   0.47221   0.00000  Uiso   1.00
C187   C     0.60588   0.06244   0.47339   0.00000  Uiso   1.00
C188   C     0.61081   0.02019   0.38727   0.00000  Uiso   1.00
C189   C     0.62397   0.92153   0.26664   0.00000  Uiso   1.00
C190   C     0.52352   0.25025   0.55074   0.00000  Uiso   1.00
C191   C     0.48043   0.24334   0.61795   0.00000  Uiso   1.00
C192   C     0.42800   0.28383   0.59793   0.00000  Uiso   1.00
C193   C     0.33537   0.33779   0.59924   0.00000  Uiso   1.00
C194   C     0.62565   0.28859   0.54527   0.00000  Uiso   1.00
C195   C     0.66844   0.31393   0.60789   0.00000  Uiso   1.00
C196   C     0.70200   0.38672   0.58329   0.00000  Uiso   1.00
C197   C     0.76795   0.50020   0.57611   0.00000  Uiso   1.00
C198   C     0.56754   0.29526   0.40312   0.00000  Uiso   1.00
C199   C     0.58270   0.19773   0.38801   0.00000  Uiso   1.00
C200   C     0.58762   0.15561   0.30186   0.00000  Uiso   1.00
C201   C     0.60183   0.06602   0.30291   0.00000  Uiso   1.00
C202   C     0.51455   0.29600   0.46654   0.00000  Uiso   1.00
C203   C     0.46217   0.33652   0.44642   0.00000  Uiso   1.00
C204   C     0.41902   0.32966   0.51357   0.00000  Uiso   1.00
C205   C     0.61669   0.33434   0.46106   0.00000  Uiso   1.00
C206   C     0.65018   0.40710   0.43636   0.00000  Uiso   1.00
C207   C     0.69301   0.43255   0.49893   0.00000  Uiso   1.00
H208   H     0.59103   0.17543   0.62372   0.00000  Uiso   1.00
H209   H     0.61281   0.02706   0.53857   0.00000  Uiso   1.00
H210   H     0.48739   0.20794   0.68311   0.00000  Uiso   1.00
H211   H     0.67537   0.27852   0.67305   0.00000  Uiso   1.00
H212   H     0.63298   0.88273   0.40704   0.00000  Uiso   1.00
H213   H     0.36853   0.26416   0.71181   0.00000  Uiso   1.00
H214   H     0.76492   0.41298   0.69061   0.00000  Uiso   1.00
H215   H     0.56056   0.33087   0.33756   0.00000  Uiso   1.00
H216   H     0.58067   0.19103   0.23671   0.00000  Uiso   1.00
H217   H     0.45525   0.37191   0.38125   0.00000  Uiso   1.00
H218   H     0.64323   0.44249   0.37119   0.00000  Uiso   1.00
H219   H     0.60690   0.01581   0.16204   0.00000  Uiso   1.00
H220   H     0.34244   0.39724   0.46682   0.00000  Uiso   1.00
H221   H     0.73884   0.54607   0.44561   0.00000  Uiso   1.00
O222   O     0.63370   0.85446   0.22336   0.00000  Uiso   1.00
O223   O     0.28675   0.35490   0.62322   0.00000  Uiso   1.00
O224   O     0.80681   0.55015   0.59540   0.00000  Uiso   1.00
N225   N     0.62409   0.93324   0.36322   0.00000  Uiso   1.00
N226   N     0.37684   0.28985   0.64816   0.00000  Uiso   1.00
N227   N     0.74743   0.42900   0.62835   0.00000  Uiso   1.00
N228   N     0.61006   0.00486   0.23138   0.00000  Uiso   1.00
N229   N     0.36281   0.36146   0.51633   0.00000  Uiso   1.00
N230   N     0.73339   0.50061   0.49651   0.00000  Uiso   1.00
C231   C     0.91595   0.28896   0.55816   0.00000  Uiso   1.00
C232   C     0.90833   0.34802   0.47221   0.00000  Uiso   1.00
C233   C     0.89412   0.43756   0.47339   0.00000  Uiso   1.00
C234   C     0.88919   0.47981   0.38727   0.00000  Uiso   1.00
C235   C     0.87603   0.57847   0.26664   0.00000  Uiso   1.00
C236   C     0.97648   0.24975   0.55074   0.00000  Uiso   1.00
C237   C     0.01957   0.25666   0.61795   0.00000  Uiso   1.00
C238   C     0.07200   0.21617   0.59793   0.00000  Uiso   1.00
C239   C     0.16463   0.16221   0.59924   0.00000  Uiso   1.00
C240   C     0.87435   0.21141   0.54527   0.00000  Uiso   1.00
C241   C     0.83156   0.18607   0.60789   0.00000  Uiso   1.00
C242   C     0.79800   0.11328   0.58329   0.00000  Uiso   1.00
C243   C     0.73205   0.99980   0.57611   0.00000  Uiso   1.00
C244   C     0.93246   0.20474   0.40312   0.00000  Uiso   1.00
C245   C     0.91730   0.30227   0.38801   0.00000  Uiso   1.00
C246   C     0.91238   0.34439   0.30186   0.00000  Uiso   1.00
C247   C     0.89817   0.43398   0.30291   0.00000  Uiso   1.00
C248   C     0.98545   0.20400   0.46654   0.00000  Uiso   1.00
C249   C     0.03783   0.16348   0.44642   0.00000  Uiso   1.00
C250   C     0.08098   0.17034   0.51357   0.00000  Uiso   1.00
C251   C     0.88331   0.16566   0.46106   0.00000  Uiso   1.00
C252   C     0.84982   0.09290   0.43636   0.00000  Uiso   1.00
C253   C     0.80699   0.06745   0.49893   0.00000  Uiso   1.00
H254   H     0.90897   0.32457   0.62372   0.00000  Uiso   1.00
H255   H     0.88719   0.47294   0.53857   0.00000  Uiso   1.00
H256   H     0.01261   0.29206   0.68311   0.00000  Uiso   1.00
H257   H     0.82463   0.22148   0.67305   0.00000  Uiso   1.00
H258   H     0.86702   0.61727   0.40704   0.00000  Uiso   1.00
H259   H     0.13147   0.23584   0.71181   0.00000  Uiso   1.00
H260   H     0.73508   0.08702   0.69061   0.00000  Uiso   1.00
H261   H     0.93944   0.16913   0.33756   0.00000  Uiso   1.00
H262   H     0.91933   0.30897   0.23671   0.00000  Uiso   1.00
H263   H     0.04475   0.12809   0.38125   0.00000  Uiso   1.00
H264   H     0.85677   0.05751   0.37119   0.00000  Uiso   1.00
H265   H     0.89310   0.48419   0.16204   0.00000  Uiso   1.00
H266   H     0.15756   0.10276   0.46682   0.00000  Uiso   1.00
H267   H     0.76116   0.95393   0.44561   0.00000  Uiso   1.00
O268   O     0.86630   0.64554   0.22336   0.00000  Uiso   1.00
O269   O     0.21325   0.14510   0.62322   0.00000  Uiso   1.00
O270   O     0.69319   0.94985   0.59540   0.00000  Uiso   1.00
N271   N     0.87591   0.56676   0.36322   0.00000  Uiso   1.00
N272   N     0.12316   0.21015   0.64816   0.00000  Uiso   1.00
N273   N     0.75257   0.07100   0.62835   0.00000  Uiso   1.00
N274   N     0.88994   0.49514   0.23138   0.00000  Uiso   1.00
N275   N     0.13719   0.13854   0.51633   0.00000  Uiso   1.00
N276   N     0.76661   0.99939   0.49651   0.00000  Uiso   1.00
C277   C     0.41595   0.71104   0.94184   0.00000  Uiso   1.00
C278   C     0.40833   0.65198   0.02779   0.00000  Uiso   1.00
C279   C     0.39412   0.56244   0.02661   0.00000  Uiso   1.00
C280   C     0.38919   0.52019   0.11273   0.00000  Uiso   1.00
C281   C     0.37603   0.42153   0.23336   0.00000  Uiso   1.00
C282   C     0.47648   0.75025   0.94926   0.00000  Uiso   1.00
C283   C     0.51957   0.74334   0.88205   0.00000  Uiso   1.00
C284   C     0.57200   0.78383   0.90207   0.00000  Uiso   1.00
C285   C     0.66463   0.83779   0.90076   0.00000  Uiso   1.00
C286   C     0.37435   0.78859   0.95473   0.00000  Uiso   1.00
C287   C     0.33156   0.81393   0.89211   0.00000  Uiso   1.00
C288   C     0.29800   0.88672   0.91671   0.00000  Uiso   1.00
C289   C     0.23205   0.00020   0.92389   0.00000  Uiso   1.00
C290   C     0.43246   0.79526   0.09688   0.00000  Uiso   1.00
C291   C     0.41730   0.69773   0.11199   0.00000  Uiso   1.00
C292   C     0.41238   0.65561   0.19814   0.00000  Uiso   1.00
C293   C     0.39817   0.56602   0.19709   0.00000  Uiso   1.00
C294   C     0.48545   0.79600   0.03346   0.00000  Uiso   1.00
C295   C     0.53783   0.83652   0.05358   0.00000  Uiso   1.00
C296   C     0.58098   0.82966   0.98643   0.00000  Uiso   1.00
C297   C     0.38331   0.83434   0.03894   0.00000  Uiso   1.00
C298   C     0.34982   0.90710   0.06364   0.00000  Uiso   1.00
C299   C     0.30699   0.93255   0.00107   0.00000  Uiso   1.00
H300   H     0.40897   0.67543   0.87628   0.00000  Uiso   1.00
H301   H     0.38719   0.52706   0.96143   0.00000  Uiso   1.00
H302   H     0.51261   0.70794   0.81689   0.00000  Uiso   1.00
H303   H     0.32463   0.77852   0.82695   0.00000  Uiso   1.00
H304   H     0.36702   0.38273   0.09296   0.00000  Uiso   1.00
H305   H     0.63147   0.76416   0.78819   0.00000  Uiso   1.00
H306   H     0.23508   0.91298   0.80939   0.00000  Uiso   1.00
H307   H     0.43944   0.83087   0.16244   0.00000  Uiso   1.00
H308   H     0.41933   0.69103   0.26329   0.00000  Uiso   1.00
H309   H     0.54475   0.87191   0.11875   0.00000  Uiso   1.00
H310   H     0.35677   0.94249   0.12881   0.00000  Uiso   1.00
H311   H     0.39310   0.51581   0.33796   0.00000  Uiso   1.00
H312   H     0.65756   0.89724   0.03318   0.00000  Uiso   1.00
H313   H     0.26116   0.04607   0.05439   0.00000  Uiso   1.00
O314   O     0.36630   0.35446   0.27664   0.00000  Uiso   1.00
O315   O     0.71325   0.85490   0.87678   0.00000  Uiso   1.00
O316   O     0.19319   0.05015   0.90460   0.00000  Uiso   1.00
N317   N     0.37591   0.43324   0.13678   0.00000  Uiso   1.00
N318   N     0.62316   0.78985   0.85184   0.00000  Uiso   1.00
N319   N     0.25257   0.92900   0.87165   0.00000  Uiso   1.00
N320   N     0.38994   0.50486   0.26862   0.00000  Uiso   1.00
N321   N     0.63719   0.86146   0.98367   0.00000  Uiso   1.00
N322   N     0.26661   0.00061   0.00349   0.00000  Uiso   1.00
C323   C     0.08405   0.78896   0.94184   0.00000  Uiso   1.00
C324   C     0.09167   0.84802   0.02779   0.00000  Uiso   1.00
C325   C     0.10588   0.93756   0.02661   0.00000  Uiso   1.00
C326   C     0.11081   0.97981   0.11273   0.00000  Uiso   1.00
C327   C     0.12397   0.07847   0.23336   0.00000  Uiso   1.00
C328   C     0.02352   0.74975   0.94926   0.00000  Uiso   1.00
C329   C     0.98043   0.75666   0.88205   0.00000  Uiso   1.00
C330   C     0.92800   0.71617   0.90207   0.00000  Uiso   1.00
C331   C     0.83537   0.66221   0.90076   0.00000  Uiso   1.00
C332   C     0.12565   0.71141   0.95473   0.00000  Uiso   1.00
C333   C     0.16844   0.68607   0.89211   0.00000  Uiso   1.00
C334   C     0.20200   0.61328   0.91671   0.00000  Uiso   1.00
C335   C     0.26795   0.49980   0.92389   0.00000  Uiso   1.00
C336   C     0.06754   0.70474   0.09688   0.00000  Uiso   1.00
C337   C     0.08270   0.80227   0.11199   0.00000  Uiso   1.00
C338   C     0.08762   0.84439   0.19814   0.00000  Uiso   1.00
C339   C     0.10183   0.93398   0.19709   0.00000  Uiso   1.00
C340   C     0.01455   0.70400   0.03346   0.00000  Uiso   1.00
C341   C     0.96217   0.66348   0.05358   0.00000  Uiso   1.00
C342   C     0.91902   0.67034   0.98643   0.00000  Uiso   1.00
C343   C     0.11669   0.66566   0.03894   0.00000  Uiso   1.00
C344   C     0.15018   0.59290   0.06364   0.00000  Uiso   1.00
C345   C     0.19301   0.56745   0.00107   0.00000  Uiso   1.00
H346   H     0.09103   0.82457   0.87628   0.00000  Uiso   1.00
H347   H     0.11281   0.97294   0.96143   0.00000  Uiso   1.00
H348   H     0.98739   0.79206   0.81689   0.00000  Uiso   1.00
H349   H     0.17537   0.72148   0.82695   0.00000  Uiso   1.00
H350   H     0.13298   0.11727   0.09296   0.00000  Uiso   1.00
H351   H     0.86853   0.73584   0.78819   0.00000  Uiso   1.00
H352   H     0.26492   0.58702   0.80939   0.00000  Uiso   1.00
H353   H     0.06056   0.66913   0.16244   0.00000  Uiso   1.00
H354   H     0.08067   0.80897   0.26329   0.00000  Uiso   1.00
H355   H     0.95525   0.62809   0.11875   0.00000  Uiso   1.00
H356   H     0.14323   0.55751   0.12881   0.00000  Uiso   1.00
H357   H     0.10690   0.98419   0.33796   0.00000  Uiso   1.00
H358   H     0.84244   0.60276   0.03318   0.00000  Uiso   1.00
H359   H     0.23884   0.45393   0.05439   0.00000  Uiso   1.00
O360   O     0.13370   0.14554   0.27664   0.00000  Uiso   1.00
O361   O     0.78675   0.64510   0.87678   0.00000  Uiso   1.00
O362   O     0.30681   0.44985   0.90460   0.00000  Uiso   1.00
N363   N     0.12409   0.06676   0.13678   0.00000  Uiso   1.00
N364   N     0.87684   0.71015   0.85184   0.00000  Uiso   1.00
N365   N     0.24743   0.57100   0.87165   0.00000  Uiso   1.00
N366   N     0.11006   0.99514   0.26862   0.00000  Uiso   1.00
N367   N     0.86281   0.63854   0.98367   0.00000  Uiso   1.00
N368   N     0.23339   0.49939   0.00349   0.00000  Uiso   1.00
