data_job_02655
_audit_creation_date              2018-12-19
_audit_creation_method            'Materials Studio'
_symmetry_space_group_name_H-M    'P1'
_symmetry_Int_Tables_number       1
_symmetry_cell_setting            triclinic
loop_
_symmetry_equiv_pos_as_xyz
  x,y,z
_cell_length_a                    28.0847
_cell_length_b                    15.1188
_cell_length_c                    23.8581
_cell_angle_alpha                 90.0000
_cell_angle_beta                  122.4200
_cell_angle_gamma                 90.0000
loop_
_atom_site_label
_atom_site_type_symbol
_atom_site_fract_x
_atom_site_fract_y
_atom_site_fract_z
_atom_site_U_iso_or_equiv
_atom_site_adp_type
_atom_site_occupancy
C1     C     0.92864   0.07208   0.81980   0.00000  Uiso   1.00
C2     C     0.90120   0.01705   0.84859   0.00000  Uiso   1.00
C3     C     0.91859   0.93382   0.87698   0.00000  Uiso   1.00
C4     C     0.88789   0.89442   0.90042   0.00000  Uiso   1.00
C5     C     0.85232   0.80250   0.94582   0.00000  Uiso   1.00
C6     C     0.88204   0.09236   0.74825   0.00000  Uiso   1.00
C7     C     0.88333   0.07246   0.69229   0.00000  Uiso   1.00
C8     C     0.83651   0.09647   0.63126   0.00000  Uiso   1.00
C9     C     0.77121   0.12153   0.52089   0.00000  Uiso   1.00
C10    C     0.94414   0.16028   0.85648   0.00000  Uiso   1.00
C11    C     0.99763   0.19752   0.89151   0.00000  Uiso   1.00
C12    C     0.00309   0.27872   0.92159   0.00000  Uiso   1.00
C13    C     0.03421   0.40925   0.97926   0.00000  Uiso   1.00
C14    C     0.84322   0.15009   0.81093   0.00000  Uiso   1.00
C15    C     0.85480   0.05942   0.84377   0.00000  Uiso   1.00
C16    C     0.82407   0.02013   0.86717   0.00000  Uiso   1.00
C17    C     0.84141   0.93686   0.89560   0.00000  Uiso   1.00
C18    C     0.83564   0.13473   0.74343   0.00000  Uiso   1.00
C19    C     0.78881   0.15877   0.68248   0.00000  Uiso   1.00
C20    C     0.79002   0.13891   0.62643   0.00000  Uiso   1.00
C21    C     0.89774   0.20266   0.85167   0.00000  Uiso   1.00
C22    C     0.90312   0.28382   0.88170   0.00000  Uiso   1.00
C23    C     0.95661   0.32117   0.91676   0.00000  Uiso   1.00
H24    H     0.96477   0.03909   0.82355   0.00000  Uiso   1.00
H25    H     0.95449   0.90105   0.88070   0.00000  Uiso   1.00
H26    H     0.91924   0.03968   0.69603   0.00000  Uiso   1.00
H27    H     0.03353   0.16471   0.89522   0.00000  Uiso   1.00
H28    H     0.92263   0.76668   0.94191   0.00000  Uiso   1.00
H29    H     0.84831   0.05901   0.55253   0.00000  Uiso   1.00
H30    H     0.08931   0.32266   0.97257   0.00000  Uiso   1.00
H31    H     0.80709   0.18308   0.80718   0.00000  Uiso   1.00
H32    H     0.78817   0.05294   0.86344   0.00000  Uiso   1.00
H33    H     0.75291   0.19157   0.67877   0.00000  Uiso   1.00
H34    H     0.86720   0.31659   0.87796   0.00000  Uiso   1.00
H35    H     0.78763   0.88996   0.92790   0.00000  Uiso   1.00
H36    H     0.71331   0.18229   0.53852   0.00000  Uiso   1.00
H37    H     0.95431   0.44594   0.95855   0.00000  Uiso   1.00
O38    O     0.84552   0.74010   0.97219   0.00000  Uiso   1.00
O39    O     0.74801   0.12364   0.46134   0.00000  Uiso   1.00
O40    O     0.06420   0.46953   0.01241   0.00000  Uiso   1.00
N41    N     0.89346   0.81356   0.93091   0.00000  Uiso   1.00
N42    N     0.82397   0.08686   0.56686   0.00000  Uiso   1.00
N43    N     0.04928   0.33336   0.95954   0.00000  Uiso   1.00
N44    N     0.82082   0.87989   0.92337   0.00000  Uiso   1.00
N45    N     0.75133   0.15320   0.55932   0.00000  Uiso   1.00
N46    N     0.97664   0.39969   0.95200   0.00000  Uiso   1.00
C47    C     0.42864   0.57208   0.81980   0.00000  Uiso   1.00
C48    C     0.40120   0.51705   0.84859   0.00000  Uiso   1.00
C49    C     0.41859   0.43382   0.87698   0.00000  Uiso   1.00
C50    C     0.38789   0.39442   0.90042   0.00000  Uiso   1.00
C51    C     0.35232   0.30250   0.94582   0.00000  Uiso   1.00
C52    C     0.38204   0.59236   0.74825   0.00000  Uiso   1.00
C53    C     0.38333   0.57246   0.69229   0.00000  Uiso   1.00
C54    C     0.33651   0.59647   0.63126   0.00000  Uiso   1.00
C55    C     0.27121   0.62153   0.52089   0.00000  Uiso   1.00
C56    C     0.44414   0.66028   0.85648   0.00000  Uiso   1.00
C57    C     0.49763   0.69752   0.89151   0.00000  Uiso   1.00
C58    C     0.50309   0.77872   0.92159   0.00000  Uiso   1.00
C59    C     0.53421   0.90925   0.97926   0.00000  Uiso   1.00
C60    C     0.34322   0.65009   0.81093   0.00000  Uiso   1.00
C61    C     0.35480   0.55942   0.84377   0.00000  Uiso   1.00
C62    C     0.32407   0.52013   0.86717   0.00000  Uiso   1.00
C63    C     0.34141   0.43686   0.89560   0.00000  Uiso   1.00
C64    C     0.33564   0.63473   0.74343   0.00000  Uiso   1.00
C65    C     0.28881   0.65877   0.68248   0.00000  Uiso   1.00
C66    C     0.29002   0.63891   0.62643   0.00000  Uiso   1.00
C67    C     0.39774   0.70266   0.85167   0.00000  Uiso   1.00
C68    C     0.40312   0.78382   0.88170   0.00000  Uiso   1.00
C69    C     0.45661   0.82117   0.91676   0.00000  Uiso   1.00
H70    H     0.46477   0.53909   0.82355   0.00000  Uiso   1.00
H71    H     0.45449   0.40105   0.88070   0.00000  Uiso   1.00
H72    H     0.41924   0.53968   0.69603   0.00000  Uiso   1.00
H73    H     0.53353   0.66471   0.89522   0.00000  Uiso   1.00
H74    H     0.42263   0.26668   0.94191   0.00000  Uiso   1.00
H75    H     0.34831   0.55901   0.55253   0.00000  Uiso   1.00
H76    H     0.58931   0.82266   0.97257   0.00000  Uiso   1.00
H77    H     0.30709   0.68308   0.80718   0.00000  Uiso   1.00
H78    H     0.28817   0.55294   0.86344   0.00000  Uiso   1.00
H79    H     0.25291   0.69157   0.67877   0.00000  Uiso   1.00
H80    H     0.36720   0.81659   0.87796   0.00000  Uiso   1.00
H81    H     0.28763   0.38996   0.92790   0.00000  Uiso   1.00
H82    H     0.21331   0.68229   0.53852   0.00000  Uiso   1.00
H83    H     0.45431   0.94594   0.95855   0.00000  Uiso   1.00
O84    O     0.34552   0.24010   0.97219   0.00000  Uiso   1.00
O85    O     0.24801   0.62364   0.46134   0.00000  Uiso   1.00
O86    O     0.56420   0.96953   0.01241   0.00000  Uiso   1.00
N87    N     0.39346   0.31356   0.93091   0.00000  Uiso   1.00
N88    N     0.32397   0.58686   0.56686   0.00000  Uiso   1.00
N89    N     0.54928   0.83336   0.95954   0.00000  Uiso   1.00
N90    N     0.32082   0.37989   0.92337   0.00000  Uiso   1.00
N91    N     0.25133   0.65320   0.55932   0.00000  Uiso   1.00
N92    N     0.47664   0.89969   0.95200   0.00000  Uiso   1.00
C93    C     0.07136   0.07208   0.68020   0.00000  Uiso   1.00
C94    C     0.09880   0.01705   0.65141   0.00000  Uiso   1.00
C95    C     0.08141   0.93382   0.62302   0.00000  Uiso   1.00
C96    C     0.11211   0.89442   0.59958   0.00000  Uiso   1.00
C97    C     0.14768   0.80250   0.55418   0.00000  Uiso   1.00
C98    C     0.11796   0.09236   0.75175   0.00000  Uiso   1.00
C99    C     0.11667   0.07246   0.80771   0.00000  Uiso   1.00
C100   C     0.16349   0.09647   0.86874   0.00000  Uiso   1.00
C101   C     0.22879   0.12153   0.97911   0.00000  Uiso   1.00
C102   C     0.05586   0.16028   0.64352   0.00000  Uiso   1.00
C103   C     0.00237   0.19752   0.60849   0.00000  Uiso   1.00
C104   C     0.99691   0.27872   0.57841   0.00000  Uiso   1.00
C105   C     0.96579   0.40925   0.52074   0.00000  Uiso   1.00
C106   C     0.15678   0.15009   0.68907   0.00000  Uiso   1.00
C107   C     0.14520   0.05942   0.65623   0.00000  Uiso   1.00
C108   C     0.17593   0.02013   0.63283   0.00000  Uiso   1.00
C109   C     0.15859   0.93686   0.60440   0.00000  Uiso   1.00
C110   C     0.16436   0.13473   0.75657   0.00000  Uiso   1.00
C111   C     0.21119   0.15877   0.81752   0.00000  Uiso   1.00
C112   C     0.20998   0.13891   0.87357   0.00000  Uiso   1.00
C113   C     0.10226   0.20266   0.64833   0.00000  Uiso   1.00
C114   C     0.09688   0.28382   0.61830   0.00000  Uiso   1.00
C115   C     0.04339   0.32117   0.58324   0.00000  Uiso   1.00
H116   H     0.03523   0.03909   0.67645   0.00000  Uiso   1.00
H117   H     0.04551   0.90105   0.61930   0.00000  Uiso   1.00
H118   H     0.08076   0.03968   0.80397   0.00000  Uiso   1.00
H119   H     0.96647   0.16471   0.60478   0.00000  Uiso   1.00
H120   H     0.07737   0.76668   0.55809   0.00000  Uiso   1.00
H121   H     0.15169   0.05901   0.94747   0.00000  Uiso   1.00
H122   H     0.91069   0.32266   0.52743   0.00000  Uiso   1.00
H123   H     0.19291   0.18308   0.69282   0.00000  Uiso   1.00
H124   H     0.21183   0.05294   0.63656   0.00000  Uiso   1.00
H125   H     0.24709   0.19157   0.82123   0.00000  Uiso   1.00
H126   H     0.13280   0.31659   0.62204   0.00000  Uiso   1.00
H127   H     0.21237   0.88996   0.57210   0.00000  Uiso   1.00
H128   H     0.28669   0.18229   0.96148   0.00000  Uiso   1.00
H129   H     0.04569   0.44594   0.54145   0.00000  Uiso   1.00
O130   O     0.15448   0.74010   0.52781   0.00000  Uiso   1.00
O131   O     0.25199   0.12364   0.03866   0.00000  Uiso   1.00
O132   O     0.93580   0.46953   0.48759   0.00000  Uiso   1.00
N133   N     0.10654   0.81356   0.56909   0.00000  Uiso   1.00
N134   N     0.17603   0.08686   0.93314   0.00000  Uiso   1.00
N135   N     0.95072   0.33336   0.54046   0.00000  Uiso   1.00
N136   N     0.17918   0.87989   0.57663   0.00000  Uiso   1.00
N137   N     0.24867   0.15320   0.94068   0.00000  Uiso   1.00
N138   N     0.02336   0.39969   0.54800   0.00000  Uiso   1.00
C139   C     0.57136   0.57208   0.68020   0.00000  Uiso   1.00
C140   C     0.59880   0.51705   0.65141   0.00000  Uiso   1.00
C141   C     0.58141   0.43382   0.62302   0.00000  Uiso   1.00
C142   C     0.61211   0.39442   0.59958   0.00000  Uiso   1.00
C143   C     0.64768   0.30250   0.55418   0.00000  Uiso   1.00
C144   C     0.61796   0.59236   0.75175   0.00000  Uiso   1.00
C145   C     0.61667   0.57246   0.80771   0.00000  Uiso   1.00
C146   C     0.66349   0.59647   0.86874   0.00000  Uiso   1.00
C147   C     0.72879   0.62153   0.97911   0.00000  Uiso   1.00
C148   C     0.55586   0.66028   0.64352   0.00000  Uiso   1.00
C149   C     0.50237   0.69752   0.60849   0.00000  Uiso   1.00
C150   C     0.49691   0.77872   0.57841   0.00000  Uiso   1.00
C151   C     0.46579   0.90925   0.52074   0.00000  Uiso   1.00
C152   C     0.65678   0.65009   0.68907   0.00000  Uiso   1.00
C153   C     0.64520   0.55942   0.65623   0.00000  Uiso   1.00
C154   C     0.67593   0.52013   0.63283   0.00000  Uiso   1.00
C155   C     0.65859   0.43686   0.60440   0.00000  Uiso   1.00
C156   C     0.66436   0.63473   0.75657   0.00000  Uiso   1.00
C157   C     0.71119   0.65877   0.81752   0.00000  Uiso   1.00
C158   C     0.70998   0.63891   0.87357   0.00000  Uiso   1.00
C159   C     0.60226   0.70266   0.64833   0.00000  Uiso   1.00
C160   C     0.59688   0.78382   0.61830   0.00000  Uiso   1.00
C161   C     0.54339   0.82117   0.58324   0.00000  Uiso   1.00
H162   H     0.53523   0.53909   0.67645   0.00000  Uiso   1.00
H163   H     0.54551   0.40105   0.61930   0.00000  Uiso   1.00
H164   H     0.58076   0.53968   0.80397   0.00000  Uiso   1.00
H165   H     0.46647   0.66471   0.60478   0.00000  Uiso   1.00
H166   H     0.57737   0.26668   0.55809   0.00000  Uiso   1.00
H167   H     0.65169   0.55901   0.94747   0.00000  Uiso   1.00
H168   H     0.41069   0.82266   0.52743   0.00000  Uiso   1.00
H169   H     0.69291   0.68308   0.69282   0.00000  Uiso   1.00
H170   H     0.71183   0.55294   0.63656   0.00000  Uiso   1.00
H171   H     0.74709   0.69157   0.82123   0.00000  Uiso   1.00
H172   H     0.63280   0.81659   0.62204   0.00000  Uiso   1.00
H173   H     0.71237   0.38996   0.57210   0.00000  Uiso   1.00
H174   H     0.78669   0.68229   0.96148   0.00000  Uiso   1.00
H175   H     0.54569   0.94594   0.54145   0.00000  Uiso   1.00
O176   O     0.65448   0.24010   0.52781   0.00000  Uiso   1.00
O177   O     0.75199   0.62364   0.03866   0.00000  Uiso   1.00
O178   O     0.43580   0.96953   0.48759   0.00000  Uiso   1.00
N179   N     0.60654   0.31356   0.56909   0.00000  Uiso   1.00
N180   N     0.67603   0.58686   0.93314   0.00000  Uiso   1.00
N181   N     0.45072   0.83336   0.54046   0.00000  Uiso   1.00
N182   N     0.67918   0.37989   0.57663   0.00000  Uiso   1.00
N183   N     0.74867   0.65320   0.94068   0.00000  Uiso   1.00
N184   N     0.52336   0.89969   0.54800   0.00000  Uiso   1.00
C185   C     0.07136   0.92792   0.18020   0.00000  Uiso   1.00
C186   C     0.09880   0.98295   0.15141   0.00000  Uiso   1.00
C187   C     0.08141   0.06618   0.12302   0.00000  Uiso   1.00
C188   C     0.11211   0.10558   0.09958   0.00000  Uiso   1.00
C189   C     0.14768   0.19750   0.05418   0.00000  Uiso   1.00
C190   C     0.11796   0.90764   0.25175   0.00000  Uiso   1.00
C191   C     0.11667   0.92754   0.30771   0.00000  Uiso   1.00
C192   C     0.16349   0.90353   0.36874   0.00000  Uiso   1.00
C193   C     0.22879   0.87847   0.47911   0.00000  Uiso   1.00
C194   C     0.05586   0.83972   0.14352   0.00000  Uiso   1.00
C195   C     0.00237   0.80248   0.10849   0.00000  Uiso   1.00
C196   C     0.99691   0.72128   0.07841   0.00000  Uiso   1.00
C197   C     0.96579   0.59075   0.02074   0.00000  Uiso   1.00
C198   C     0.15678   0.84991   0.18907   0.00000  Uiso   1.00
C199   C     0.14520   0.94058   0.15623   0.00000  Uiso   1.00
C200   C     0.17593   0.97987   0.13283   0.00000  Uiso   1.00
C201   C     0.15859   0.06314   0.10440   0.00000  Uiso   1.00
C202   C     0.16436   0.86527   0.25657   0.00000  Uiso   1.00
C203   C     0.21119   0.84123   0.31752   0.00000  Uiso   1.00
C204   C     0.20998   0.86109   0.37357   0.00000  Uiso   1.00
C205   C     0.10226   0.79734   0.14833   0.00000  Uiso   1.00
C206   C     0.09688   0.71618   0.11830   0.00000  Uiso   1.00
C207   C     0.04339   0.67883   0.08324   0.00000  Uiso   1.00
H208   H     0.03523   0.96091   0.17645   0.00000  Uiso   1.00
H209   H     0.04551   0.09895   0.11930   0.00000  Uiso   1.00
H210   H     0.08076   0.96032   0.30397   0.00000  Uiso   1.00
H211   H     0.96647   0.83529   0.10478   0.00000  Uiso   1.00
H212   H     0.07737   0.23332   0.05809   0.00000  Uiso   1.00
H213   H     0.15169   0.94099   0.44747   0.00000  Uiso   1.00
H214   H     0.91069   0.67734   0.02743   0.00000  Uiso   1.00
H215   H     0.19291   0.81692   0.19282   0.00000  Uiso   1.00
H216   H     0.21183   0.94706   0.13656   0.00000  Uiso   1.00
H217   H     0.24709   0.80843   0.32123   0.00000  Uiso   1.00
H218   H     0.13280   0.68341   0.12204   0.00000  Uiso   1.00
H219   H     0.21237   0.11004   0.07210   0.00000  Uiso   1.00
H220   H     0.28669   0.81771   0.46148   0.00000  Uiso   1.00
H221   H     0.04569   0.55406   0.04145   0.00000  Uiso   1.00
O222   O     0.15448   0.25990   0.02781   0.00000  Uiso   1.00
O223   O     0.25199   0.87636   0.53866   0.00000  Uiso   1.00
O224   O     0.93580   0.53047   0.98759   0.00000  Uiso   1.00
N225   N     0.10654   0.18644   0.06909   0.00000  Uiso   1.00
N226   N     0.17603   0.91314   0.43314   0.00000  Uiso   1.00
N227   N     0.95072   0.66664   0.04046   0.00000  Uiso   1.00
N228   N     0.17918   0.12011   0.07663   0.00000  Uiso   1.00
N229   N     0.24867   0.84680   0.44068   0.00000  Uiso   1.00
N230   N     0.02336   0.60031   0.04800   0.00000  Uiso   1.00
C231   C     0.57136   0.42792   0.18020   0.00000  Uiso   1.00
C232   C     0.59880   0.48295   0.15141   0.00000  Uiso   1.00
C233   C     0.58141   0.56618   0.12302   0.00000  Uiso   1.00
C234   C     0.61211   0.60558   0.09958   0.00000  Uiso   1.00
C235   C     0.64768   0.69750   0.05418   0.00000  Uiso   1.00
C236   C     0.61796   0.40764   0.25175   0.00000  Uiso   1.00
C237   C     0.61667   0.42754   0.30771   0.00000  Uiso   1.00
C238   C     0.66349   0.40353   0.36874   0.00000  Uiso   1.00
C239   C     0.72879   0.37847   0.47911   0.00000  Uiso   1.00
C240   C     0.55586   0.33972   0.14352   0.00000  Uiso   1.00
C241   C     0.50237   0.30248   0.10849   0.00000  Uiso   1.00
C242   C     0.49691   0.22128   0.07841   0.00000  Uiso   1.00
C243   C     0.46579   0.09075   0.02074   0.00000  Uiso   1.00
C244   C     0.65678   0.34991   0.18907   0.00000  Uiso   1.00
C245   C     0.64520   0.44058   0.15623   0.00000  Uiso   1.00
C246   C     0.67593   0.47987   0.13283   0.00000  Uiso   1.00
C247   C     0.65859   0.56314   0.10440   0.00000  Uiso   1.00
C248   C     0.66436   0.36527   0.25657   0.00000  Uiso   1.00
C249   C     0.71119   0.34123   0.31752   0.00000  Uiso   1.00
C250   C     0.70998   0.36109   0.37357   0.00000  Uiso   1.00
C251   C     0.60226   0.29734   0.14833   0.00000  Uiso   1.00
C252   C     0.59688   0.21618   0.11830   0.00000  Uiso   1.00
C253   C     0.54339   0.17883   0.08324   0.00000  Uiso   1.00
H254   H     0.53523   0.46091   0.17645   0.00000  Uiso   1.00
H255   H     0.54551   0.59895   0.11930   0.00000  Uiso   1.00
H256   H     0.58076   0.46032   0.30397   0.00000  Uiso   1.00
H257   H     0.46647   0.33529   0.10478   0.00000  Uiso   1.00
H258   H     0.57737   0.73332   0.05809   0.00000  Uiso   1.00
H259   H     0.65169   0.44099   0.44747   0.00000  Uiso   1.00
H260   H     0.41069   0.17734   0.02743   0.00000  Uiso   1.00
H261   H     0.69291   0.31692   0.19282   0.00000  Uiso   1.00
H262   H     0.71183   0.44706   0.13656   0.00000  Uiso   1.00
H263   H     0.74709   0.30843   0.32123   0.00000  Uiso   1.00
H264   H     0.63280   0.18341   0.12204   0.00000  Uiso   1.00
H265   H     0.71237   0.61004   0.07210   0.00000  Uiso   1.00
H266   H     0.78669   0.31771   0.46148   0.00000  Uiso   1.00
H267   H     0.54569   0.05406   0.04145   0.00000  Uiso   1.00
O268   O     0.65448   0.75990   0.02781   0.00000  Uiso   1.00
O269   O     0.75199   0.37636   0.53866   0.00000  Uiso   1.00
O270   O     0.43580   0.03047   0.98759   0.00000  Uiso   1.00
N271   N     0.60654   0.68644   0.06909   0.00000  Uiso   1.00
N272   N     0.67603   0.41314   0.43314   0.00000  Uiso   1.00
N273   N     0.45072   0.16664   0.04046   0.00000  Uiso   1.00
N274   N     0.67918   0.62011   0.07663   0.00000  Uiso   1.00
N275   N     0.74867   0.34680   0.44068   0.00000  Uiso   1.00
N276   N     0.52336   0.10031   0.04800   0.00000  Uiso   1.00
C277   C     0.92864   0.92792   0.31980   0.00000  Uiso   1.00
C278   C     0.90120   0.98295   0.34859   0.00000  Uiso   1.00
C279   C     0.91859   0.06618   0.37698   0.00000  Uiso   1.00
C280   C     0.88789   0.10558   0.40042   0.00000  Uiso   1.00
C281   C     0.85232   0.19750   0.44582   0.00000  Uiso   1.00
C282   C     0.88204   0.90764   0.24825   0.00000  Uiso   1.00
C283   C     0.88333   0.92754   0.19229   0.00000  Uiso   1.00
C284   C     0.83651   0.90353   0.13126   0.00000  Uiso   1.00
C285   C     0.77121   0.87847   0.02089   0.00000  Uiso   1.00
C286   C     0.94414   0.83972   0.35648   0.00000  Uiso   1.00
C287   C     0.99763   0.80248   0.39151   0.00000  Uiso   1.00
C288   C     0.00309   0.72128   0.42159   0.00000  Uiso   1.00
C289   C     0.03421   0.59075   0.47926   0.00000  Uiso   1.00
C290   C     0.84322   0.84991   0.31093   0.00000  Uiso   1.00
C291   C     0.85480   0.94058   0.34377   0.00000  Uiso   1.00
C292   C     0.82407   0.97987   0.36717   0.00000  Uiso   1.00
C293   C     0.84141   0.06314   0.39560   0.00000  Uiso   1.00
C294   C     0.83564   0.86527   0.24343   0.00000  Uiso   1.00
C295   C     0.78881   0.84123   0.18248   0.00000  Uiso   1.00
C296   C     0.79002   0.86109   0.12643   0.00000  Uiso   1.00
C297   C     0.89774   0.79734   0.35167   0.00000  Uiso   1.00
C298   C     0.90312   0.71618   0.38170   0.00000  Uiso   1.00
C299   C     0.95661   0.67883   0.41676   0.00000  Uiso   1.00
H300   H     0.96477   0.96091   0.32355   0.00000  Uiso   1.00
H301   H     0.95449   0.09895   0.38070   0.00000  Uiso   1.00
H302   H     0.91924   0.96032   0.19603   0.00000  Uiso   1.00
H303   H     0.03353   0.83529   0.39522   0.00000  Uiso   1.00
H304   H     0.92263   0.23332   0.44191   0.00000  Uiso   1.00
H305   H     0.84831   0.94099   0.05253   0.00000  Uiso   1.00
H306   H     0.08931   0.67734   0.47257   0.00000  Uiso   1.00
H307   H     0.80709   0.81692   0.30718   0.00000  Uiso   1.00
H308   H     0.78817   0.94706   0.36344   0.00000  Uiso   1.00
H309   H     0.75291   0.80843   0.17877   0.00000  Uiso   1.00
H310   H     0.86720   0.68341   0.37796   0.00000  Uiso   1.00
H311   H     0.78763   0.11004   0.42790   0.00000  Uiso   1.00
H312   H     0.71331   0.81771   0.03852   0.00000  Uiso   1.00
H313   H     0.95431   0.55406   0.45855   0.00000  Uiso   1.00
O314   O     0.84552   0.25990   0.47219   0.00000  Uiso   1.00
O315   O     0.74801   0.87636   0.96134   0.00000  Uiso   1.00
O316   O     0.06420   0.53047   0.51241   0.00000  Uiso   1.00
N317   N     0.89346   0.18644   0.43091   0.00000  Uiso   1.00
N318   N     0.82397   0.91314   0.06686   0.00000  Uiso   1.00
N319   N     0.04928   0.66664   0.45954   0.00000  Uiso   1.00
N320   N     0.82082   0.12011   0.42337   0.00000  Uiso   1.00
N321   N     0.75133   0.84680   0.05932   0.00000  Uiso   1.00
N322   N     0.97664   0.60031   0.45200   0.00000  Uiso   1.00
C323   C     0.42864   0.42792   0.31980   0.00000  Uiso   1.00
C324   C     0.40120   0.48295   0.34859   0.00000  Uiso   1.00
C325   C     0.41859   0.56618   0.37698   0.00000  Uiso   1.00
C326   C     0.38789   0.60558   0.40042   0.00000  Uiso   1.00
C327   C     0.35232   0.69750   0.44582   0.00000  Uiso   1.00
C328   C     0.38204   0.40764   0.24825   0.00000  Uiso   1.00
C329   C     0.38333   0.42754   0.19229   0.00000  Uiso   1.00
C330   C     0.33651   0.40353   0.13126   0.00000  Uiso   1.00
C331   C     0.27121   0.37847   0.02089   0.00000  Uiso   1.00
C332   C     0.44414   0.33972   0.35648   0.00000  Uiso   1.00
C333   C     0.49763   0.30248   0.39151   0.00000  Uiso   1.00
C334   C     0.50309   0.22128   0.42159   0.00000  Uiso   1.00
C335   C     0.53421   0.09075   0.47926   0.00000  Uiso   1.00
C336   C     0.34322   0.34991   0.31093   0.00000  Uiso   1.00
C337   C     0.35480   0.44058   0.34377   0.00000  Uiso   1.00
C338   C     0.32407   0.47987   0.36717   0.00000  Uiso   1.00
C339   C     0.34141   0.56314   0.39560   0.00000  Uiso   1.00
C340   C     0.33564   0.36527   0.24343   0.00000  Uiso   1.00
C341   C     0.28881   0.34123   0.18248   0.00000  Uiso   1.00
C342   C     0.29002   0.36109   0.12643   0.00000  Uiso   1.00
C343   C     0.39774   0.29734   0.35167   0.00000  Uiso   1.00
C344   C     0.40312   0.21618   0.38170   0.00000  Uiso   1.00
C345   C     0.45661   0.17883   0.41676   0.00000  Uiso   1.00
H346   H     0.46477   0.46091   0.32355   0.00000  Uiso   1.00
H347   H     0.45449   0.59895   0.38070   0.00000  Uiso   1.00
H348   H     0.41924   0.46032   0.19603   0.00000  Uiso   1.00
H349   H     0.53353   0.33529   0.39522   0.00000  Uiso   1.00
H350   H     0.42263   0.73332   0.44191   0.00000  Uiso   1.00
H351   H     0.34831   0.44099   0.05253   0.00000  Uiso   1.00
H352   H     0.58931   0.17734   0.47257   0.00000  Uiso   1.00
H353   H     0.30709   0.31692   0.30718   0.00000  Uiso   1.00
H354   H     0.28817   0.44706   0.36344   0.00000  Uiso   1.00
H355   H     0.25291   0.30843   0.17877   0.00000  Uiso   1.00
H356   H     0.36720   0.18341   0.37796   0.00000  Uiso   1.00
H357   H     0.28763   0.61004   0.42790   0.00000  Uiso   1.00
H358   H     0.21331   0.31771   0.03852   0.00000  Uiso   1.00
H359   H     0.45431   0.05406   0.45855   0.00000  Uiso   1.00
O360   O     0.34552   0.75990   0.47219   0.00000  Uiso   1.00
O361   O     0.24801   0.37636   0.96134   0.00000  Uiso   1.00
O362   O     0.56420   0.03047   0.51241   0.00000  Uiso   1.00
N363   N     0.39346   0.68644   0.43091   0.00000  Uiso   1.00
N364   N     0.32397   0.41314   0.06686   0.00000  Uiso   1.00
N365   N     0.54928   0.16664   0.45954   0.00000  Uiso   1.00
N366   N     0.32082   0.62011   0.42337   0.00000  Uiso   1.00
N367   N     0.25133   0.34680   0.05932   0.00000  Uiso   1.00
N368   N     0.47664   0.10031   0.45200   0.00000  Uiso   1.00
