data_job_06799
_audit_creation_date              2018-12-19
_audit_creation_method            'Materials Studio'
_symmetry_space_group_name_H-M    'P1'
_symmetry_Int_Tables_number       1
_symmetry_cell_setting            triclinic
loop_
_symmetry_equiv_pos_as_xyz
  x,y,z
_cell_length_a                    19.3363
_cell_length_b                    21.0931
_cell_length_c                    23.6383
_cell_angle_alpha                 74.9520
_cell_angle_beta                  108.5310
_cell_angle_gamma                 81.2712
loop_
_atom_site_label
_atom_site_type_symbol
_atom_site_fract_x
_atom_site_fract_y
_atom_site_fract_z
_atom_site_U_iso_or_equiv
_atom_site_adp_type
_atom_site_occupancy
C1     C     0.55019   0.27153   0.98342   0.00000  Uiso   1.00
C2     C     0.56424   0.33795   0.95053   0.00000  Uiso   1.00
C3     C     0.53048   0.37450   0.88648   0.00000  Uiso   1.00
C4     C     0.55086   0.43403   0.86561   0.00000  Uiso   1.00
C5     C     0.56476   0.53378   0.80818   0.00000  Uiso   1.00
C6     C     0.62722   0.22050   0.01698   0.00000  Uiso   1.00
C7     C     0.64640   0.15830   0.00879   0.00000  Uiso   1.00
C8     C     0.71980   0.11895   0.04387   0.00000  Uiso   1.00
C9     C     0.83145   0.03634   0.08964   0.00000  Uiso   1.00
C10    C     0.52507   0.28404   0.03541   0.00000  Uiso   1.00
C11    C     0.45836   0.27525   0.04275   0.00000  Uiso   1.00
C12    C     0.44577   0.28939   0.09335   0.00000  Uiso   1.00
C13    C     0.39881   0.30543   0.16775   0.00000  Uiso   1.00
C14    C     0.64643   0.31226   0.06026   0.00000  Uiso   1.00
C15    C     0.61652   0.36007   0.99227   0.00000  Uiso   1.00
C16    C     0.63696   0.41956   0.97149   0.00000  Uiso   1.00
C17    C     0.60323   0.45619   0.90742   0.00000  Uiso   1.00
C18    C     0.67949   0.24262   0.05871   0.00000  Uiso   1.00
C19    C     0.75288   0.20336   0.09381   0.00000  Uiso   1.00
C20    C     0.77217   0.14111   0.08568   0.00000  Uiso   1.00
C21    C     0.57734   0.30616   0.07715   0.00000  Uiso   1.00
C22    C     0.56484   0.32031   0.12776   0.00000  Uiso   1.00
C23    C     0.49814   0.31155   0.13517   0.00000  Uiso   1.00
H24    H     0.50949   0.25430   0.95093   0.00000  Uiso   1.00
H25    H     0.49003   0.35736   0.85419   0.00000  Uiso   1.00
H26    H     0.60593   0.14119   0.97649   0.00000  Uiso   1.00
H27    H     0.41793   0.25813   0.01044   0.00000  Uiso   1.00
H28    H     0.49153   0.48136   0.76534   0.00000  Uiso   1.00
H29    H     0.73590   0.02554   0.02324   0.00000  Uiso   1.00
H30    H     0.33945   0.27213   0.09482   0.00000  Uiso   1.00
H31    H     0.68713   0.32948   0.09276   0.00000  Uiso   1.00
H32    H     0.67741   0.43667   0.00381   0.00000  Uiso   1.00
H33    H     0.79332   0.22049   0.12611   0.00000  Uiso   1.00
H34    H     0.60531   0.33743   0.16005   0.00000  Uiso   1.00
H35    H     0.64362   0.54573   0.88678   0.00000  Uiso   1.00
H36    H     0.88799   0.08990   0.14468   0.00000  Uiso   1.00
H37    H     0.49154   0.33649   0.21626   0.00000  Uiso   1.00
O38    O     0.55799   0.58269   0.76498   0.00000  Uiso   1.00
O39    O     0.87860   0.98466   0.10335   0.00000  Uiso   1.00
O40    O     0.35847   0.30818   0.19725   0.00000  Uiso   1.00
N41    N     0.52864   0.48181   0.80613   0.00000  Uiso   1.00
N42    N     0.75712   0.05565   0.04725   0.00000  Uiso   1.00
N43    N     0.38649   0.28617   0.11418   0.00000  Uiso   1.00
N44    N     0.61048   0.51644   0.87147   0.00000  Uiso   1.00
N45    N     0.83896   0.09028   0.11259   0.00000  Uiso   1.00
N46    N     0.46832   0.32080   0.17952   0.00000  Uiso   1.00
C47    C     0.95122   0.67456   0.32902   0.00000  Uiso   1.00
C48    C     0.02225   0.64423   0.38887   0.00000  Uiso   1.00
C49    C     0.03362   0.65842   0.44479   0.00000  Uiso   1.00
C50    C     0.10250   0.62546   0.49412   0.00000  Uiso   1.00
C51    C     0.20438   0.58531   0.58801   0.00000  Uiso   1.00
C52    C     0.97694   0.70756   0.27645   0.00000  Uiso   1.00
C53    C     0.95020   0.77500   0.23785   0.00000  Uiso   1.00
C54    C     0.98093   0.79535   0.19253   0.00000  Uiso   1.00
C55    C     0.01242   0.85352   0.11186   0.00000  Uiso   1.00
C56    C     0.92443   0.61448   0.31364   0.00000  Uiso   1.00
C57    C     0.85353   0.60366   0.30629   0.00000  Uiso   1.00
C58    C     0.84004   0.54564   0.29227   0.00000  Uiso   1.00
C59    C     0.79000   0.45929   0.26934   0.00000  Uiso   1.00
C60    C     0.05332   0.59079   0.31718   0.00000  Uiso   1.00
C61    C     0.07771   0.59873   0.38243   0.00000  Uiso   1.00
C62    C     0.14659   0.56574   0.43169   0.00000  Uiso   1.00
C63    C     0.15806   0.57987   0.48768   0.00000  Uiso   1.00
C64    C     0.03240   0.66207   0.27002   0.00000  Uiso   1.00
C65    C     0.06317   0.68232   0.22475   0.00000  Uiso   1.00
C66    C     0.03648   0.74976   0.18609   0.00000  Uiso   1.00
C67    C     0.97989   0.56898   0.30721   0.00000  Uiso   1.00
C68    C     0.96650   0.51097   0.29319   0.00000  Uiso   1.00
C69    C     0.89560   0.50006   0.28582   0.00000  Uiso   1.00
H70    H     0.90804   0.70998   0.33403   0.00000  Uiso   1.00
H71    H     0.99069   0.69364   0.44975   0.00000  Uiso   1.00
H72    H     0.90728   0.81019   0.24283   0.00000  Uiso   1.00
H73    H     0.81063   0.63888   0.31127   0.00000  Uiso   1.00
H74    H     0.10680   0.65547   0.57520   0.00000  Uiso   1.00
H75    H     0.93089   0.90123   0.13889   0.00000  Uiso   1.00
H76    H     0.72708   0.53998   0.28320   0.00000  Uiso   1.00
H77    H     0.09650   0.55537   0.31217   0.00000  Uiso   1.00
H78    H     0.18949   0.53053   0.42670   0.00000  Uiso   1.00
H79    H     0.10608   0.64709   0.21978   0.00000  Uiso   1.00
H80    H     0.00943   0.47578   0.28822   0.00000  Uiso   1.00
H81    H     0.26815   0.52308   0.55649   0.00000  Uiso   1.00
H82    H     0.09225   0.76885   0.12018   0.00000  Uiso   1.00
H83    H     0.88844   0.40760   0.26449   0.00000  Uiso   1.00
O84    O     0.24526   0.57574   0.64157   0.00000  Uiso   1.00
O85    O     0.01447   0.89818   0.06914   0.00000  Uiso   1.00
O86    O     0.74708   0.42422   0.25847   0.00000  Uiso   1.00
N87    N     0.13200   0.62771   0.55508   0.00000  Uiso   1.00
N88    N     0.96755   0.85749   0.14717   0.00000  Uiso   1.00
N89    N     0.77700   0.51975   0.28207   0.00000  Uiso   1.00
N90    N     0.21883   0.55647   0.54502   0.00000  Uiso   1.00
N91    N     0.05438   0.78625   0.13710   0.00000  Uiso   1.00
N92    N     0.86383   0.44852   0.27200   0.00000  Uiso   1.00
C93    C     0.51638   0.88906   0.67523   0.00000  Uiso   1.00
C94    C     0.56702   0.85716   0.64664   0.00000  Uiso   1.00
C95    C     0.58433   0.78918   0.65148   0.00000  Uiso   1.00
C96    C     0.63172   0.77003   0.62201   0.00000  Uiso   1.00
C97    C     0.70598   0.71331   0.58268   0.00000  Uiso   1.00
C98    C     0.56393   0.92322   0.71682   0.00000  Uiso   1.00
C99    C     0.57862   0.91080   0.78066   0.00000  Uiso   1.00
C100   C     0.62339   0.94728   0.81025   0.00000  Uiso   1.00
C101   C     0.69280   0.99317   0.87986   0.00000  Uiso   1.00
C102   C     0.45477   0.94633   0.62048   0.00000  Uiso   1.00
C103   C     0.37767   0.95335   0.60332   0.00000  Uiso   1.00
C104   C     0.33054   0.00930   0.55181   0.00000  Uiso   1.00
C105   C     0.23045   0.09106   0.47183   0.00000  Uiso   1.00
C106   C     0.56975   0.97594   0.61428   0.00000  Uiso   1.00
C107   C     0.59601   0.90435   0.61354   0.00000  Uiso   1.00
C108   C     0.64338   0.88530   0.58405   0.00000  Uiso   1.00
C109   C     0.66076   0.81731   0.58884   0.00000  Uiso   1.00
C110   C     0.59291   0.97041   0.68371   0.00000  Uiso   1.00
C111   C     0.63767   0.00693   0.71322   0.00000  Uiso   1.00
C112   C     0.65243   0.99456   0.77709   0.00000  Uiso   1.00
C113   C     0.48375   0.99352   0.58737   0.00000  Uiso   1.00
C114   C     0.43672   0.04947   0.53588   0.00000  Uiso   1.00
C115   C     0.35958   0.05657   0.51865   0.00000  Uiso   1.00
H116   H     0.49381   0.85232   0.70101   0.00000  Uiso   1.00
H117   H     0.56190   0.75267   0.67711   0.00000  Uiso   1.00
H118   H     0.55618   0.87428   0.80626   0.00000  Uiso   1.00
H119   H     0.35526   0.91682   0.62895   0.00000  Uiso   1.00
H120   H     0.65019   0.66300   0.63604   0.00000  Uiso   1.00
H121   H     0.63810   0.91944   0.90835   0.00000  Uiso   1.00
H122   H     0.21444   0.00914   0.53446   0.00000  Uiso   1.00
H123   H     0.59232   0.01268   0.58851   0.00000  Uiso   1.00
H124   H     0.66581   0.92183   0.55843   0.00000  Uiso   1.00
H125   H     0.66009   0.04344   0.68759   0.00000  Uiso   1.00
H126   H     0.45918   0.08598   0.51027   0.00000  Uiso   1.00
H127   H     0.73453   0.80030   0.53971   0.00000  Uiso   1.00
H128   H     0.72244   0.05674   0.81203   0.00000  Uiso   1.00
H129   H     0.29878   0.14644   0.43813   0.00000  Uiso   1.00
O130   O     0.73894   0.66899   0.57014   0.00000  Uiso   1.00
O131   O     0.72308   0.00543   0.92740   0.00000  Uiso   1.00
O132   O     0.16724   0.12312   0.43686   0.00000  Uiso   1.00
N133   N     0.65994   0.70778   0.61748   0.00000  Uiso   1.00
N134   N     0.64865   0.94753   0.87209   0.00000  Uiso   1.00
N135   N     0.25256   0.03141   0.52253   0.00000  Uiso   1.00
N136   N     0.70532   0.78166   0.56565   0.00000  Uiso   1.00
N137   N     0.69403   0.02141   0.82025   0.00000  Uiso   1.00
N138   N     0.29794   0.10529   0.47070   0.00000  Uiso   1.00
C139   C     0.07640   0.26102   0.93088   0.00000  Uiso   1.00
C140   C     0.07123   0.31153   0.96621   0.00000  Uiso   1.00
C141   C     0.05910   0.29912   0.02243   0.00000  Uiso   1.00
C142   C     0.05622   0.35193   0.04721   0.00000  Uiso   1.00
C143   C     0.04687   0.42078   0.10671   0.00000  Uiso   1.00
C144   C     0.15248   0.25553   0.92364   0.00000  Uiso   1.00
C145   C     0.20865   0.19603   0.94405   0.00000  Uiso   1.00
C146   C     0.27416   0.20170   0.93298   0.00000  Uiso   1.00
C147   C     0.39092   0.18360   0.92634   0.00000  Uiso   1.00
C148   C     0.01679   0.29538   0.86444   0.00000  Uiso   1.00
C149   C     0.95888   0.26939   0.83508   0.00000  Uiso   1.00
C150   C     0.91015   0.30860   0.77417   0.00000  Uiso   1.00
C151   C     0.81623   0.35238   0.67562   0.00000  Uiso   1.00
C152   C     0.09286   0.37686   0.87491   0.00000  Uiso   1.00
C153   C     0.08017   0.37445   0.93581   0.00000  Uiso   1.00
C154   C     0.07730   0.42729   0.96051   0.00000  Uiso   1.00
C155   C     0.06517   0.41497   0.01676   0.00000  Uiso   1.00
C156   C     0.16142   0.31845   0.89324   0.00000  Uiso   1.00
C157   C     0.22685   0.32420   0.88213   0.00000  Uiso   1.00
C158   C     0.28311   0.26474   0.90253   0.00000  Uiso   1.00
C159   C     0.02572   0.35831   0.83404   0.00000  Uiso   1.00
C160   C     0.97708   0.39756   0.77316   0.00000  Uiso   1.00
C161   C     0.91911   0.37164   0.74371   0.00000  Uiso   1.00
H162   H     0.06945   0.21203   0.95455   0.00000  Uiso   1.00
H163   H     0.05220   0.25041   0.04595   0.00000  Uiso   1.00
H164   H     0.20172   0.14735   0.96757   0.00000  Uiso   1.00
H165   H     0.95198   0.22069   0.85862   0.00000  Uiso   1.00
H166   H     0.03703   0.32072   0.13389   0.00000  Uiso   1.00
H167   H     0.35230   0.10339   0.96861   0.00000  Uiso   1.00
H168   H     0.82568   0.25805   0.73886   0.00000  Uiso   1.00
H169   H     0.09982   0.42585   0.85124   0.00000  Uiso   1.00
H170   H     0.08422   0.47598   0.93697   0.00000  Uiso   1.00
H171   H     0.23375   0.37291   0.85860   0.00000  Uiso   1.00
H172   H     0.98401   0.44625   0.74965   0.00000  Uiso   1.00
H173   H     0.06303   0.50379   0.04544   0.00000  Uiso   1.00
H174   H     0.37830   0.28646   0.88016   0.00000  Uiso   1.00
H175   H     0.85168   0.44113   0.65042   0.00000  Uiso   1.00
O176   O     0.03925   0.44136   0.14793   0.00000  Uiso   1.00
O177   O     0.45286   0.15623   0.93109   0.00000  Uiso   1.00
O178   O     0.76195   0.35915   0.62967   0.00000  Uiso   1.00
N179   N     0.04527   0.35693   0.10130   0.00000  Uiso   1.00
N180   N     0.34004   0.15374   0.94678   0.00000  Uiso   1.00
N181   N     0.84770   0.29833   0.73198   0.00000  Uiso   1.00
N182   N     0.05926   0.45544   0.05371   0.00000  Uiso   1.00
N183   N     0.35402   0.25225   0.89919   0.00000  Uiso   1.00
N184   N     0.86169   0.39684   0.68439   0.00000  Uiso   1.00
C185   C     0.14707   0.92741   0.66434   0.00000  Uiso   1.00
C186   C     0.15244   0.91321   0.60562   0.00000  Uiso   1.00
C187   C     0.12351   0.95982   0.54498   0.00000  Uiso   1.00
C188   C     0.13432   0.93690   0.49765   0.00000  Uiso   1.00
C189   C     0.13686   0.92508   0.40451   0.00000  Uiso   1.00
C190   C     0.22794   0.90857   0.71175   0.00000  Uiso   1.00
C191   C     0.26248   0.95128   0.74034   0.00000  Uiso   1.00
C192   C     0.33684   0.92445   0.78236   0.00000  Uiso   1.00
C193   C     0.45658   0.90541   0.85402   0.00000  Uiso   1.00
C194   C     0.10924   0.87574   0.69197   0.00000  Uiso   1.00
C195   C     0.04398   0.89084   0.70395   0.00000  Uiso   1.00
C196   C     0.01842   0.83636   0.72934   0.00000  Uiso   1.00
C197   C     0.95385   0.76635   0.77029   0.00000  Uiso   1.00
C198   C     0.21772   0.80382   0.68813   0.00000  Uiso   1.00
C199   C     0.19082   0.84608   0.61854   0.00000  Uiso   1.00
C200   C     0.20167   0.82309   0.57130   0.00000  Uiso   1.00
C201   C     0.17276   0.86965   0.51060   0.00000  Uiso   1.00
C202   C     0.26632   0.84145   0.72467   0.00000  Uiso   1.00
C203   C     0.34064   0.81454   0.76666   0.00000  Uiso   1.00
C204   C     0.37529   0.85720   0.79531   0.00000  Uiso   1.00
C205   C     0.14761   0.80861   0.70489   0.00000  Uiso   1.00
C206   C     0.12214   0.75410   0.73027   0.00000  Uiso   1.00
C207   C     0.05686   0.76911   0.74229   0.00000  Uiso   1.00
H208   H     0.11720   0.97967   0.65429   0.00000  Uiso   1.00
H209   H     0.09382   0.01177   0.53500   0.00000  Uiso   1.00
H210   H     0.23277   0.00322   0.73033   0.00000  Uiso   1.00
H211   H     0.01431   0.94279   0.69395   0.00000  Uiso   1.00
H212   H     0.08486   0.01776   0.40844   0.00000  Uiso   1.00
H213   H     0.37782   0.99973   0.82034   0.00000  Uiso   1.00
H214   H     0.91715   0.87230   0.74362   0.00000  Uiso   1.00
H215   H     0.24759   0.75155   0.69820   0.00000  Uiso   1.00
H216   H     0.23137   0.77114   0.58131   0.00000  Uiso   1.00
H217   H     0.37032   0.76259   0.77665   0.00000  Uiso   1.00
H218   H     0.15185   0.70216   0.74026   0.00000  Uiso   1.00
H219   H     0.19650   0.82246   0.44604   0.00000  Uiso   1.00
H220   H     0.48946   0.80443   0.85794   0.00000  Uiso   1.00
H221   H     0.02879   0.67700   0.78121   0.00000  Uiso   1.00
O222   O     0.12767   0.93711   0.34956   0.00000  Uiso   1.00
O223   O     0.51203   0.91346   0.88996   0.00000  Uiso   1.00
O224   O     0.90763   0.74628   0.78930   0.00000  Uiso   1.00
N225   N     0.11334   0.96911   0.43333   0.00000  Uiso   1.00
N226   N     0.38725   0.95225   0.81842   0.00000  Uiso   1.00
N227   N     0.95657   0.83312   0.74671   0.00000  Uiso   1.00
N228   N     0.17341   0.86401   0.45356   0.00000  Uiso   1.00
N229   N     0.44732   0.84716   0.83865   0.00000  Uiso   1.00
N230   N     0.01664   0.72803   0.76693   0.00000  Uiso   1.00
C231   C     0.48285   0.56202   0.34037   0.00000  Uiso   1.00
C232   C     0.53483   0.49464   0.38855   0.00000  Uiso   1.00
C233   C     0.53251   0.43085   0.38346   0.00000  Uiso   1.00
C234   C     0.58491   0.37546   0.43255   0.00000  Uiso   1.00
C235   C     0.65762   0.26960   0.49939   0.00000  Uiso   1.00
C236   C     0.53433   0.60465   0.32226   0.00000  Uiso   1.00
C237   C     0.53157   0.63337   0.26143   0.00000  Uiso   1.00
C238   C     0.58354   0.67060   0.25473   0.00000  Uiso   1.00
C239   C     0.65542   0.73557   0.21865   0.00000  Uiso   1.00
C240   C     0.44600   0.59710   0.37627   0.00000  Uiso   1.00
C241   C     0.36898   0.61947   0.36084   0.00000  Uiso   1.00
C242   C     0.34658   0.65036   0.39960   0.00000  Uiso   1.00
C243   C     0.28133   0.70360   0.44737   0.00000  Uiso   1.00
C244   C     0.58004   0.57709   0.43661   0.00000  Uiso   1.00
C245   C     0.58762   0.50283   0.44082   0.00000  Uiso   1.00
C246   C     0.64004   0.44753   0.48994   0.00000  Uiso   1.00
C247   C     0.63779   0.38366   0.48492   0.00000  Uiso   1.00
C248   C     0.58711   0.61284   0.37453   0.00000  Uiso   1.00
C249   C     0.63909   0.65004   0.36791   0.00000  Uiso   1.00
C250   C     0.63642   0.67880   0.30710   0.00000  Uiso   1.00
C251   C     0.49879   0.60528   0.42854   0.00000  Uiso   1.00
C252   C     0.47651   0.63615   0.46733   0.00000  Uiso   1.00
C253   C     0.39947   0.65856   0.45197   0.00000  Uiso   1.00
H254   H     0.44176   0.55565   0.29967   0.00000  Uiso   1.00
H255   H     0.49166   0.42454   0.34299   0.00000  Uiso   1.00
H256   H     0.49071   0.62703   0.22099   0.00000  Uiso   1.00
H257   H     0.32815   0.61313   0.32039   0.00000  Uiso   1.00
H258   H     0.57028   0.28278   0.41406   0.00000  Uiso   1.00
H259   H     0.56826   0.70977   0.15681   0.00000  Uiso   1.00
H260   H     0.22547   0.68047   0.36641   0.00000  Uiso   1.00
H261   H     0.62114   0.58347   0.47731   0.00000  Uiso   1.00
H262   H     0.68088   0.45388   0.53039   0.00000  Uiso   1.00
H263   H     0.67993   0.65637   0.40838   0.00000  Uiso   1.00
H264   H     0.51737   0.64247   0.50778   0.00000  Uiso   1.00
H265   H     0.72386   0.30660   0.56616   0.00000  Uiso   1.00
H266   H     0.72184   0.73359   0.30890   0.00000  Uiso   1.00
H267   H     0.37905   0.70428   0.51850   0.00000  Uiso   1.00
O268   O     0.68315   0.20894   0.52180   0.00000  Uiso   1.00
O269   O     0.68049   0.76914   0.18430   0.00000  Uiso   1.00
O270   O     0.23076   0.73069   0.45929   0.00000  Uiso   1.00
N271   N     0.59821   0.30617   0.44258   0.00000  Uiso   1.00
N272   N     0.59634   0.70537   0.20207   0.00000  Uiso   1.00
N273   N     0.27585   0.67799   0.39801   0.00000  Uiso   1.00
N274   N     0.68086   0.31899   0.52442   0.00000  Uiso   1.00
N275   N     0.67898   0.71818   0.28391   0.00000  Uiso   1.00
N276   N     0.35849   0.69081   0.47985   0.00000  Uiso   1.00
C277   C     0.59261   0.70395   0.04307   0.00000  Uiso   1.00
C278   C     0.56706   0.64255   0.07146   0.00000  Uiso   1.00
C279   C     0.60383   0.59593   0.13189   0.00000  Uiso   1.00
C280   C     0.57139   0.54331   0.14895   0.00000  Uiso   1.00
C281   C     0.54186   0.44887   0.19942   0.00000  Uiso   1.00
C282   C     0.52662   0.76556   0.02227   0.00000  Uiso   1.00
C283   C     0.52940   0.82237   0.04134   0.00000  Uiso   1.00
C284   C     0.46291   0.87330   0.01698   0.00000  Uiso   1.00
C285   C     0.37060   0.96986   0.99105   0.00000  Uiso   1.00
C286   C     0.59986   0.69651   0.98259   0.00000  Uiso   1.00
C287   C     0.66421   0.69528   0.96827   0.00000  Uiso   1.00
C288   C     0.65939   0.68809   0.91049   0.00000  Uiso   1.00
C289   C     0.68080   0.67744   0.82295   0.00000  Uiso   1.00
C290   C     0.46960   0.69341   0.96590   0.00000  Uiso   1.00
C291   C     0.50024   0.63683   0.02954   0.00000  Uiso   1.00
C292   C     0.46774   0.58427   0.04651   0.00000  Uiso   1.00
C293   C     0.50446   0.53758   0.10695   0.00000  Uiso   1.00
C294   C     0.45980   0.75984   0.98036   0.00000  Uiso   1.00
C295   C     0.39330   0.81071   0.95596   0.00000  Uiso   1.00
C296   C     0.39597   0.86757   0.97499   0.00000  Uiso   1.00
C297   C     0.53305   0.69079   0.94067   0.00000  Uiso   1.00
C298   C     0.52812   0.68361   0.88290   0.00000  Uiso   1.00
C299   C     0.59245   0.68236   0.86850   0.00000  Uiso   1.00
H300   H     0.64463   0.70841   0.07570   0.00000  Uiso   1.00
H301   H     0.65554   0.60038   0.16431   0.00000  Uiso   1.00
H302   H     0.58111   0.82678   0.07377   0.00000  Uiso   1.00
H303   H     0.71591   0.69970   0.00072   0.00000  Uiso   1.00
H304   H     0.63815   0.47810   0.24409   0.00000  Uiso   1.00
H305   H     0.48123   0.95550   0.05315   0.00000  Uiso   1.00
H306   H     0.76547   0.68753   0.89911   0.00000  Uiso   1.00
H307   H     0.41758   0.68896   0.93326   0.00000  Uiso   1.00
H308   H     0.41603   0.57986   0.01407   0.00000  Uiso   1.00
H309   H     0.34160   0.80627   0.92352   0.00000  Uiso   1.00
H310   H     0.47640   0.67919   0.85047   0.00000  Uiso   1.00
H311   H     0.44376   0.46145   0.12214   0.00000  Uiso   1.00
H312   H     0.28683   0.93885   0.93120   0.00000  Uiso   1.00
H313   H     0.57108   0.67088   0.77716   0.00000  Uiso   1.00
O314   O     0.54402   0.39837   0.23885   0.00000  Uiso   1.00
O315   O     0.33814   0.02470   0.98834   0.00000  Uiso   1.00
O316   O     0.71107   0.67313   0.78624   0.00000  Uiso   1.00
N317   N     0.59262   0.48914   0.20429   0.00000  Uiso   1.00
N318   N     0.44590   0.93548   0.02579   0.00000  Uiso   1.00
N319   N     0.71165   0.68497   0.88177   0.00000  Uiso   1.00
N320   N     0.48802   0.48018   0.13867   0.00000  Uiso   1.00
N321   N     0.34130   0.92652   0.96017   0.00000  Uiso   1.00
N322   N     0.60704   0.67601   0.81615   0.00000  Uiso   1.00
C323   C     0.22468   0.22958   0.63520   0.00000  Uiso   1.00
C324   C     0.16046   0.25915   0.57066   0.00000  Uiso   1.00
C325   C     0.15319   0.23566   0.51992   0.00000  Uiso   1.00
C326   C     0.09036   0.26961   0.46492   0.00000  Uiso   1.00
C327   C     0.99878   0.30707   0.36533   0.00000  Uiso   1.00
C328   C     0.18765   0.21140   0.68328   0.00000  Uiso   1.00
C329   C     0.20326   0.14776   0.72724   0.00000  Uiso   1.00
C330   C     0.16332   0.14152   0.76705   0.00000  Uiso   1.00
C331   C     0.11399   0.10486   0.84233   0.00000  Uiso   1.00
C332   C     0.25831   0.28813   0.64656   0.00000  Uiso   1.00
C333   C     0.33333   0.28900   0.65968   0.00000  Uiso   1.00
C334   C     0.35289   0.34735   0.66859   0.00000  Uiso   1.00
C335   C     0.41328   0.42983   0.68687   0.00000  Uiso   1.00
C336   C     0.12603   0.33164   0.62774   0.00000  Uiso   1.00
C337   C     0.10688   0.31459   0.56661   0.00000  Uiso   1.00
C338   C     0.04404   0.34858   0.51167   0.00000  Uiso   1.00
C339   C     0.03668   0.32515   0.46086   0.00000  Uiso   1.00
C340   C     0.13407   0.26683   0.67923   0.00000  Uiso   1.00
C341   C     0.09410   0.26069   0.71899   0.00000  Uiso   1.00
C342   C     0.10964   0.19706   0.76299   0.00000  Uiso   1.00
C343   C     0.20473   0.34357   0.64251   0.00000  Uiso   1.00
C344   C     0.22418   0.40193   0.65141   0.00000  Uiso   1.00
C345   C     0.29921   0.40289   0.66453   0.00000  Uiso   1.00
H346   H     0.26640   0.18641   0.63836   0.00000  Uiso   1.00
H347   H     0.19467   0.19275   0.52308   0.00000  Uiso   1.00
H348   H     0.24473   0.10487   0.73037   0.00000  Uiso   1.00
H349   H     0.37478   0.24609   0.66281   0.00000  Uiso   1.00
H350   H     0.09150   0.22421   0.39349   0.00000  Uiso   1.00
H351   H     0.19707   0.03892   0.83059   0.00000  Uiso   1.00
H352   H     0.47132   0.33670   0.68812   0.00000  Uiso   1.00
H353   H     0.08431   0.37481   0.62459   0.00000  Uiso   1.00
H354   H     0.00258   0.39148   0.50855   0.00000  Uiso   1.00
H355   H     0.05264   0.30360   0.71584   0.00000  Uiso   1.00
H356   H     0.18270   0.44482   0.64827   0.00000  Uiso   1.00
H357   H     0.93560   0.38550   0.38169   0.00000  Uiso   1.00
H358   H     0.04117   0.20021   0.81879   0.00000  Uiso   1.00
H359   H     0.31542   0.49800   0.67632   0.00000  Uiso   1.00
O360   O     0.96306   0.31241   0.31151   0.00000  Uiso   1.00
O361   O     0.10158   0.06932   0.88497   0.00000  Uiso   1.00
O362   O     0.46138   0.46001   0.69806   0.00000  Uiso   1.00
N363   N     0.06603   0.25989   0.40664   0.00000  Uiso   1.00
N364   N     0.16473   0.08665   0.81529   0.00000  Uiso   1.00
N365   N     0.42113   0.36504   0.68211   0.00000  Uiso   1.00
N366   N     0.98214   0.34668   0.40029   0.00000  Uiso   1.00
N367   N     0.08084   0.17344   0.80894   0.00000  Uiso   1.00
N368   N     0.33724   0.45184   0.67576   0.00000  Uiso   1.00
C369   C     0.51006   0.91209   0.26042   0.00000  Uiso   1.00
C370   C     0.46392   0.95010   0.28869   0.00000  Uiso   1.00
C371   C     0.43821   0.02012   0.27070   0.00000  Uiso   1.00
C372   C     0.39690   0.04498   0.30232   0.00000  Uiso   1.00
C373   C     0.32751   0.11064   0.33891   0.00000  Uiso   1.00
C374   C     0.46566   0.86383   0.23740   0.00000  Uiso   1.00
C375   C     0.44141   0.86131   0.17629   0.00000  Uiso   1.00
C376   C     0.40158   0.81354   0.16473   0.00000  Uiso   1.00
C377   C     0.33493   0.74523   0.12171   0.00000  Uiso   1.00
C378   C     0.58165   0.86727   0.31556   0.00000  Uiso   1.00
C379   C     0.65495   0.86763   0.32017   0.00000  Uiso   1.00
C380   C     0.71277   0.82275   0.37442   0.00000  Uiso   1.00
C381   C     0.82623   0.75979   0.45276   0.00000  Uiso   1.00
C382   C     0.48242   0.83174   0.34855   0.00000  Uiso   1.00
C383   C     0.44891   0.90645   0.33656   0.00000  Uiso   1.00
C384   C     0.40763   0.93122   0.36822   0.00000  Uiso   1.00
C385   C     0.38186   0.00126   0.35028   0.00000  Uiso   1.00
C386   C     0.45065   0.82019   0.28527   0.00000  Uiso   1.00
C387   C     0.41084   0.77241   0.27380   0.00000  Uiso   1.00
C388   C     0.38654   0.76982   0.21269   0.00000  Uiso   1.00
C389   C     0.56664   0.82363   0.36344   0.00000  Uiso   1.00
C390   C     0.62437   0.77874   0.41769   0.00000  Uiso   1.00
C391   C     0.69774   0.77903   0.42238   0.00000  Uiso   1.00
H392   H     0.52174   0.94606   0.22314   0.00000  Uiso   1.00
H393   H     0.44983   0.05387   0.23365   0.00000  Uiso   1.00
H394   H     0.45304   0.89508   0.13925   0.00000  Uiso   1.00
H395   H     0.66654   0.90141   0.28312   0.00000  Uiso   1.00
H396   H     0.36346   0.15416   0.26639   0.00000  Uiso   1.00
H397   H     0.37026   0.81932   0.06736   0.00000  Uiso   1.00
H398   H     0.82046   0.83266   0.37072   0.00000  Uiso   1.00
H399   H     0.47074   0.79776   0.38583   0.00000  Uiso   1.00
H400   H     0.39603   0.89743   0.40526   0.00000  Uiso   1.00
H401   H     0.39924   0.73864   0.31086   0.00000  Uiso   1.00
H402   H     0.61273   0.74497   0.45472   0.00000  Uiso   1.00
H403   H     0.31979   0.02718   0.40567   0.00000  Uiso   1.00
H404   H     0.32659   0.69234   0.20664   0.00000  Uiso   1.00
H405   H     0.77679   0.70569   0.51000   0.00000  Uiso   1.00
O406   O     0.29337   0.15891   0.34587   0.00000  Uiso   1.00
O407   O     0.30231   0.71962   0.08475   0.00000  Uiso   1.00
O408   O     0.89296   0.73713   0.48275   0.00000  Uiso   1.00
N409   N     0.36344   0.11059   0.29651   0.00000  Uiso   1.00
N410   N     0.36979   0.79755   0.11043   0.00000  Uiso   1.00
N411   N     0.79069   0.81001   0.39404   0.00000  Uiso   1.00
N412   N     0.33995   0.04227   0.37146   0.00000  Uiso   1.00
N413   N     0.34630   0.72923   0.18537   0.00000  Uiso   1.00
N414   N     0.76719   0.74169   0.46898   0.00000  Uiso   1.00
C415   C     0.94661   0.68858   0.99226   0.00000  Uiso   1.00
C416   C     0.91341   0.63219   0.97441   0.00000  Uiso   1.00
C417   C     0.89151   0.62528   0.91490   0.00000  Uiso   1.00
C418   C     0.86242   0.57021   0.90821   0.00000  Uiso   1.00
C419   C     0.81188   0.48973   0.87272   0.00000  Uiso   1.00
C420   C     0.89560   0.72177   0.01987   0.00000  Uiso   1.00
C421   C     0.85875   0.79018   0.99858   0.00000  Uiso   1.00
C422   C     0.81467   0.81052   0.03016   0.00000  Uiso   1.00
C423   C     0.73653   0.86913   0.06528   0.00000  Uiso   1.00
C424   C     0.02208   0.65320   0.04688   0.00000  Uiso   1.00
C425   C     0.09157   0.66396   0.04832   0.00000  Uiso   1.00
C426   C     0.15398   0.62659   0.10266   0.00000  Uiso   1.00
C427   C     0.27223   0.57873   0.17972   0.00000  Uiso   1.00
C428   C     0.93387   0.60308   0.08620   0.00000  Uiso   1.00
C429   C     0.90648   0.58575   0.02544   0.00000  Uiso   1.00
C430   C     0.87742   0.53068   0.01884   0.00000  Uiso   1.00
C431   C     0.85549   0.52369   0.95933   0.00000  Uiso   1.00
C432   C     0.88868   0.67533   0.07089   0.00000  Uiso   1.00
C433   C     0.84465   0.69558   0.10252   0.00000  Uiso   1.00
C434   C     0.80774   0.76400   0.08128   0.00000  Uiso   1.00
C435   C     0.01516   0.60675   0.09791   0.00000  Uiso   1.00
C436   C     0.07748   0.56936   0.15226   0.00000  Uiso   1.00
C437   C     0.14705   0.58007   0.15378   0.00000  Uiso   1.00
H438   H     0.95199   0.72474   0.95254   0.00000  Uiso   1.00
H439   H     0.89687   0.66123   0.87542   0.00000  Uiso   1.00
H440   H     0.86412   0.82610   0.95910   0.00000  Uiso   1.00
H441   H     0.09690   0.69991   0.00883   0.00000  Uiso   1.00
H442   H     0.83268   0.57035   0.81242   0.00000  Uiso   1.00
H443   H     0.76364   0.91800   0.98887   0.00000  Uiso   1.00
H444   H     0.25452   0.65189   0.09374   0.00000  Uiso   1.00
H445   H     0.92848   0.56692   0.12593   0.00000  Uiso   1.00
H446   H     0.87207   0.49475   0.05833   0.00000  Uiso   1.00
H447   H     0.83931   0.65963   0.14200   0.00000  Uiso   1.00
H448   H     0.07210   0.53343   0.19174   0.00000  Uiso   1.00
H449   H     0.81255   0.43523   0.96088   0.00000  Uiso   1.00
H450   H     0.74351   0.78288   0.13732   0.00000  Uiso   1.00
H451   H     0.23439   0.51677   0.24220   0.00000  Uiso   1.00
O452   O     0.78591   0.45818   0.83905   0.00000  Uiso   1.00
O453   O     0.69534   0.91428   0.07054   0.00000  Uiso   1.00
O454   O     0.33936   0.56515   0.20813   0.00000  Uiso   1.00
N455   N     0.83570   0.54845   0.85664   0.00000  Uiso   1.00
N456   N     0.77114   0.87348   0.02160   0.00000  Uiso   1.00
N457   N     0.23007   0.62470   0.11966   0.00000  Uiso   1.00
N458   N     0.82487   0.47574   0.93653   0.00000  Uiso   1.00
N459   N     0.76031   0.80077   0.10148   0.00000  Uiso   1.00
N460   N     0.21923   0.55200   0.19954   0.00000  Uiso   1.00
C461   C     0.91475   0.96492   0.27863   0.00000  Uiso   1.00
C462   C     0.93821   0.92918   0.34930   0.00000  Uiso   1.00
C463   C     0.98638   0.86495   0.38344   0.00000  Uiso   1.00
C464   C     0.00079   0.84125   0.44767   0.00000  Uiso   1.00
C465   C     0.04216   0.77977   0.55299   0.00000  Uiso   1.00
C466   C     0.82876   0.98263   0.25106   0.00000  Uiso   1.00
C467   C     0.78490   0.96335   0.20260   0.00000  Uiso   1.00
C468   C     0.70717   0.98466   0.18413   0.00000  Uiso   1.00
C469   C     0.57860   0.00621   0.13691   0.00000  Uiso   1.00
C470   C     0.93611   0.03240   0.27210   0.00000  Uiso   1.00
C471   C     0.98250   0.05498   0.24130   0.00000  Uiso   1.00
C472   C     0.99514   0.11821   0.24053   0.00000  Uiso   1.00
C473   C     0.03326   0.21703   0.22595   0.00000  Uiso   1.00
C474   C     0.85469   0.03707   0.33200   0.00000  Uiso   1.00
C475   C     0.90559   0.96837   0.37829   0.00000  Uiso   1.00
C476   C     0.91994   0.94477   0.44249   0.00000  Uiso   1.00
C477   C     0.96812   0.88051   0.47672   0.00000  Uiso   1.00
C478   C     0.79613   0.02182   0.28005   0.00000  Uiso   1.00
C479   C     0.71845   0.04317   0.26165   0.00000  Uiso   1.00
C480   C     0.67448   0.02392   0.21317   0.00000  Uiso   1.00
C481   C     0.90349   0.07159   0.30108   0.00000  Uiso   1.00
C482   C     0.91606   0.13480   0.30035   0.00000  Uiso   1.00
C483   C     0.96246   0.15747   0.26957   0.00000  Uiso   1.00
H484   H     0.94014   0.93442   0.25606   0.00000  Uiso   1.00
H485   H     0.01161   0.83463   0.36099   0.00000  Uiso   1.00
H486   H     0.81016   0.93303   0.18017   0.00000  Uiso   1.00
H487   H     0.00773   0.02464   0.21887   0.00000  Uiso   1.00
H488   H     0.07644   0.74127   0.49010   0.00000  Uiso   1.00
H489   H     0.65166   0.94877   0.10883   0.00000  Uiso   1.00
H490   H     0.06829   0.14195   0.19043   0.00000  Uiso   1.00
H491   H     0.82929   0.06758   0.35457   0.00000  Uiso   1.00
H492   H     0.89468   0.97510   0.46491   0.00000  Uiso   1.00
H493   H     0.69323   0.07350   0.28409   0.00000  Uiso   1.00
H494   H     0.89080   0.16511   0.32279   0.00000  Uiso   1.00
H495   H     0.98154   0.85528   0.57444   0.00000  Uiso   1.00
H496   H     0.55676   0.06278   0.19317   0.00000  Uiso   1.00
H497   H     0.97338   0.25596   0.27477   0.00000  Uiso   1.00
O498   O     0.07398   0.73503   0.60307   0.00000  Uiso   1.00
O499   O     0.51670   0.00726   0.10285   0.00000  Uiso   1.00
O500   O     0.06330   0.26072   0.20992   0.00000  Uiso   1.00
N501   N     0.04514   0.78080   0.49481   0.00000  Uiso   1.00
N502   N     0.64800   0.97479   0.13835   0.00000  Uiso   1.00
N503   N     0.03750   0.15541   0.21463   0.00000  Uiso   1.00
N504   N     0.99408   0.84215   0.54020   0.00000  Uiso   1.00
N505   N     0.59694   0.03614   0.18374   0.00000  Uiso   1.00
N506   N     0.98643   0.21676   0.26001   0.00000  Uiso   1.00
C507   C     0.69681   0.22402   0.79629   0.00000  Uiso   1.00
C508   C     0.67031   0.29582   0.74906   0.00000  Uiso   1.00
C509   C     0.67725   0.35463   0.76389   0.00000  Uiso   1.00
C510   C     0.64944   0.41537   0.71391   0.00000  Uiso   1.00
C511   C     0.61335   0.52659   0.65010   0.00000  Uiso   1.00
C512   C     0.62761   0.19547   0.78535   0.00000  Uiso   1.00
C513   C     0.59866   0.16990   0.83070   0.00000  Uiso   1.00
C514   C     0.53492   0.14616   0.81126   0.00000  Uiso   1.00
C515   C     0.43258   0.10154   0.80380   0.00000  Uiso   1.00
C516   C     0.75022   0.18303   0.77555   0.00000  Uiso   1.00
C517   C     0.82435   0.14697   0.81266   0.00000  Uiso   1.00
C518   C     0.86383   0.11274   0.78498   0.00000  Uiso   1.00
C519   C     0.95185   0.04880   0.76230   0.00000  Uiso   1.00
C520   C     0.63510   0.22732   0.68115   0.00000  Uiso   1.00
C521   C     0.63679   0.29761   0.68653   0.00000  Uiso   1.00
C522   C     0.60897   0.35828   0.63651   0.00000  Uiso   1.00
C523   C     0.61586   0.41717   0.65126   0.00000  Uiso   1.00
C524   C     0.59409   0.19726   0.72282   0.00000  Uiso   1.00
C525   C     0.53038   0.17355   0.70331   0.00000  Uiso   1.00
C526   C     0.50134   0.14796   0.74861   0.00000  Uiso   1.00
C527   C     0.71670   0.18482   0.71301   0.00000  Uiso   1.00
C528   C     0.75607   0.15063   0.68527   0.00000  Uiso   1.00
C529   C     0.83025   0.11453   0.72233   0.00000  Uiso   1.00
H530   H     0.72291   0.22262   0.84497   0.00000  Uiso   1.00
H531   H     0.70318   0.35322   0.81229   0.00000  Uiso   1.00
H532   H     0.62462   0.16852   0.87909   0.00000  Uiso   1.00
H533   H     0.85027   0.14560   0.86105   0.00000  Uiso   1.00
H534   H     0.66651   0.49880   0.74848   0.00000  Uiso   1.00
H535   H     0.50086   0.10933   0.88933   0.00000  Uiso   1.00
H536   H     0.97670   0.06099   0.85129   0.00000  Uiso   1.00
H537   H     0.60900   0.22871   0.63247   0.00000  Uiso   1.00
H538   H     0.58303   0.35965   0.58812   0.00000  Uiso   1.00
H539   H     0.50446   0.17494   0.65492   0.00000  Uiso   1.00
H540   H     0.73012   0.15203   0.63688   0.00000  Uiso   1.00
H541   H     0.56899   0.50402   0.56654   0.00000  Uiso   1.00
H542   H     0.40334   0.11454   0.70738   0.00000  Uiso   1.00
H543   H     0.87917   0.06621   0.66935   0.00000  Uiso   1.00
O544   O     0.60269   0.58744   0.63217   0.00000  Uiso   1.00
O545   O     0.38538   0.07645   0.81696   0.00000  Uiso   1.00
O546   O     0.00967   0.01304   0.76706   0.00000  Uiso   1.00
N547   N     0.64714   0.48206   0.71175   0.00000  Uiso   1.00
N548   N     0.49226   0.11793   0.84343   0.00000  Uiso   1.00
N549   N     0.93712   0.07273   0.80787   0.00000  Uiso   1.00
N550   N     0.59466   0.48487   0.61384   0.00000  Uiso   1.00
N551   N     0.43978   0.12074   0.74552   0.00000  Uiso   1.00
N552   N     0.88464   0.07554   0.70997   0.00000  Uiso   1.00
