data_job_02314
_audit_creation_date              2018-12-19
_audit_creation_method            'Materials Studio'
_symmetry_space_group_name_H-M    'P1'
_symmetry_Int_Tables_number       1
_symmetry_cell_setting            triclinic
loop_
_symmetry_equiv_pos_as_xyz
  x,y,z
_cell_length_a                    40.7696
_cell_length_b                    18.9667
_cell_length_c                    7.9769
_cell_angle_alpha                 90.0000
_cell_angle_beta                  90.0000
_cell_angle_gamma                 90.0000
loop_
_atom_site_label
_atom_site_type_symbol
_atom_site_fract_x
_atom_site_fract_y
_atom_site_fract_z
_atom_site_U_iso_or_equiv
_atom_site_adp_type
_atom_site_occupancy
C1     C     0.91960   0.47182   0.73759   0.00000  Uiso   1.00
C2     C     0.94244   0.44794   0.59724   0.00000  Uiso   1.00
C3     C     0.97047   0.40729   0.61711   0.00000  Uiso   1.00
C4     C     0.98805   0.39106   0.47311   0.00000  Uiso   1.00
C5     C     0.02506   0.35043   0.27924   0.00000  Uiso   1.00
C6     C     0.91806   0.55200   0.72589   0.00000  Uiso   1.00
C7     C     0.92560   0.59882   0.85392   0.00000  Uiso   1.00
C8     C     0.92265   0.67019   0.81821   0.00000  Uiso   1.00
C9     C     0.92180   0.79110   0.82410   0.00000  Uiso   1.00
C10    C     0.88553   0.44531   0.69019   0.00000  Uiso   1.00
C11    C     0.86570   0.40245   0.78824   0.00000  Uiso   1.00
C12    C     0.83536   0.38400   0.72249   0.00000  Uiso   1.00
C13    C     0.78399   0.33927   0.67297   0.00000  Uiso   1.00
C14    C     0.90097   0.51530   0.44654   0.00000  Uiso   1.00
C15    C     0.93232   0.47157   0.43916   0.00000  Uiso   1.00
C16    C     0.94986   0.45539   0.29509   0.00000  Uiso   1.00
C17    C     0.97791   0.41472   0.31473   0.00000  Uiso   1.00
C18    C     0.90794   0.57562   0.56780   0.00000  Uiso   1.00
C19    C     0.90498   0.64693   0.53190   0.00000  Uiso   1.00
C20    C     0.91251   0.69385   0.65984   0.00000  Uiso   1.00
C21    C     0.87541   0.46893   0.53210   0.00000  Uiso   1.00
C22    C     0.84509   0.45055   0.46621   0.00000  Uiso   1.00
C23    C     0.82522   0.40767   0.56412   0.00000  Uiso   1.00
H24    H     0.92748   0.45343   0.86068   0.00000  Uiso   1.00
H25    H     0.97830   0.38902   0.73948   0.00000  Uiso   1.00
H26    H     0.93343   0.58053   0.97625   0.00000  Uiso   1.00
H27    H     0.87354   0.38418   0.91057   0.00000  Uiso   1.00
H28    H     0.03018   0.32805   0.53539   0.00000  Uiso   1.00
H29    H     0.93556   0.73185   0.03466   0.00000  Uiso   1.00
H30    H     0.80928   0.31781   0.89616   0.00000  Uiso   1.00
H31    H     0.89309   0.53369   0.32345   0.00000  Uiso   1.00
H32    H     0.94202   0.47368   0.17276   0.00000  Uiso   1.00
H33    H     0.89715   0.66519   0.40955   0.00000  Uiso   1.00
H34    H     0.83726   0.46884   0.34386   0.00000  Uiso   1.00
H35    H     0.00074   0.39677   0.07543   0.00000  Uiso   1.00
H36    H     0.90611   0.80057   0.57471   0.00000  Uiso   1.00
H37    H     0.77983   0.38653   0.43620   0.00000  Uiso   1.00
O38    O     0.04828   0.32151   0.21598   0.00000  Uiso   1.00
O39    O     0.92413   0.85127   0.87103   0.00000  Uiso   1.00
O40    O     0.75845   0.30806   0.68931   0.00000  Uiso   1.00
N41    N     0.01653   0.35245   0.44781   0.00000  Uiso   1.00
N42    N     0.92807   0.72998   0.91460   0.00000  Uiso   1.00
N43    N     0.81000   0.34290   0.78513   0.00000  Uiso   1.00
N44    N     0.00069   0.38942   0.20031   0.00000  Uiso   1.00
N45    N     0.91223   0.76695   0.66710   0.00000  Uiso   1.00
N46    N     0.79416   0.37987   0.53763   0.00000  Uiso   1.00
C47    C     0.41325   0.51984   0.15108   0.00000  Uiso   1.00
C48    C     0.43537   0.55098   0.28626   0.00000  Uiso   1.00
C49    C     0.45921   0.60215   0.26138   0.00000  Uiso   1.00
C50    C     0.47686   0.62368   0.40115   0.00000  Uiso   1.00
C51    C     0.51214   0.67637   0.58688   0.00000  Uiso   1.00
C52    C     0.41865   0.44032   0.15688   0.00000  Uiso   1.00
C53    C     0.42842   0.39845   0.02321   0.00000  Uiso   1.00
C54    C     0.43199   0.32682   0.05407   0.00000  Uiso   1.00
C55    C     0.44128   0.20769   0.03889   0.00000  Uiso   1.00
C56    C     0.37816   0.53204   0.21053   0.00000  Uiso   1.00
C57    C     0.35387   0.56728   0.12195   0.00000  Uiso   1.00
C58    C     0.32335   0.57285   0.19796   0.00000  Uiso   1.00
C59    C     0.26977   0.59615   0.26607   0.00000  Uiso   1.00
C60    C     0.40221   0.46706   0.44356   0.00000  Uiso   1.00
C61    C     0.42938   0.52231   0.44512   0.00000  Uiso   1.00
C62    C     0.44700   0.54376   0.58497   0.00000  Uiso   1.00
C63    C     0.47085   0.59496   0.56030   0.00000  Uiso   1.00
C64    C     0.41265   0.41165   0.31574   0.00000  Uiso   1.00
C65    C     0.41620   0.34006   0.34680   0.00000  Uiso   1.00
C66    C     0.42598   0.29809   0.21321   0.00000  Uiso   1.00
C67    C     0.37216   0.50337   0.36939   0.00000  Uiso   1.00
C68    C     0.34166   0.50889   0.44554   0.00000  Uiso   1.00
C69    C     0.31734   0.54413   0.35710   0.00000  Uiso   1.00
H70    H     0.41791   0.54215   0.02740   0.00000  Uiso   1.00
H71    H     0.46384   0.62432   0.13842   0.00000  Uiso   1.00
H72    H     0.43305   0.42065   0.90028   0.00000  Uiso   1.00
H73    H     0.35852   0.58946   0.99902   0.00000  Uiso   1.00
H74    H     0.51213   0.70276   0.33155   0.00000  Uiso   1.00
H75    H     0.44720   0.27331   0.82941   0.00000  Uiso   1.00
H76    H     0.29003   0.62927   0.03760   0.00000  Uiso   1.00
H77    H     0.39754   0.44474   0.56724   0.00000  Uiso   1.00
H78    H     0.44235   0.52157   0.70789   0.00000  Uiso   1.00
H79    H     0.41156   0.31789   0.46975   0.00000  Uiso   1.00
H80    H     0.33703   0.48670   0.56848   0.00000  Uiso   1.00
H81    H     0.49469   0.61936   0.79375   0.00000  Uiso   1.00
H82    H     0.42975   0.18990   0.29161   0.00000  Uiso   1.00
H83    H     0.27259   0.54586   0.49980   0.00000  Uiso   1.00
O84    O     0.53326   0.71334   0.64543   0.00000  Uiso   1.00
O85    O     0.44806   0.14991   0.98663   0.00000  Uiso   1.00
O86    O     0.24187   0.61692   0.25977   0.00000  Uiso   1.00
N87    N     0.50187   0.67260   0.42104   0.00000  Uiso   1.00
N88    N     0.44117   0.27108   0.95157   0.00000  Uiso   1.00
N89    N     0.29423   0.60386   0.14619   0.00000  Uiso   1.00
N90    N     0.49248   0.62772   0.66974   0.00000  Uiso   1.00
N91    N     0.43178   0.22621   0.20028   0.00000  Uiso   1.00
N92    N     0.28484   0.55898   0.39490   0.00000  Uiso   1.00
C93    C     0.08040   0.52818   0.73759   0.00000  Uiso   1.00
C94    C     0.05756   0.55206   0.59724   0.00000  Uiso   1.00
C95    C     0.02953   0.59271   0.61711   0.00000  Uiso   1.00
C96    C     0.01195   0.60894   0.47311   0.00000  Uiso   1.00
C97    C     0.97494   0.64957   0.27924   0.00000  Uiso   1.00
C98    C     0.08194   0.44800   0.72589   0.00000  Uiso   1.00
C99    C     0.07440   0.40118   0.85392   0.00000  Uiso   1.00
C100   C     0.07735   0.32981   0.81821   0.00000  Uiso   1.00
C101   C     0.07820   0.20890   0.82410   0.00000  Uiso   1.00
C102   C     0.11447   0.55469   0.69019   0.00000  Uiso   1.00
C103   C     0.13430   0.59755   0.78824   0.00000  Uiso   1.00
C104   C     0.16464   0.61600   0.72249   0.00000  Uiso   1.00
C105   C     0.21601   0.66073   0.67297   0.00000  Uiso   1.00
C106   C     0.09903   0.48470   0.44654   0.00000  Uiso   1.00
C107   C     0.06768   0.52843   0.43916   0.00000  Uiso   1.00
C108   C     0.05014   0.54461   0.29509   0.00000  Uiso   1.00
C109   C     0.02209   0.58528   0.31473   0.00000  Uiso   1.00
C110   C     0.09206   0.42438   0.56780   0.00000  Uiso   1.00
C111   C     0.09502   0.35307   0.53190   0.00000  Uiso   1.00
C112   C     0.08749   0.30615   0.65984   0.00000  Uiso   1.00
C113   C     0.12459   0.53107   0.53210   0.00000  Uiso   1.00
C114   C     0.15491   0.54945   0.46621   0.00000  Uiso   1.00
C115   C     0.17478   0.59233   0.56412   0.00000  Uiso   1.00
H116   H     0.07252   0.54657   0.86068   0.00000  Uiso   1.00
H117   H     0.02170   0.61098   0.73948   0.00000  Uiso   1.00
H118   H     0.06657   0.41947   0.97625   0.00000  Uiso   1.00
H119   H     0.12646   0.61582   0.91057   0.00000  Uiso   1.00
H120   H     0.96982   0.67195   0.53539   0.00000  Uiso   1.00
H121   H     0.06444   0.26815   0.03466   0.00000  Uiso   1.00
H122   H     0.19072   0.68219   0.89616   0.00000  Uiso   1.00
H123   H     0.10691   0.46631   0.32345   0.00000  Uiso   1.00
H124   H     0.05798   0.52632   0.17276   0.00000  Uiso   1.00
H125   H     0.10285   0.33481   0.40955   0.00000  Uiso   1.00
H126   H     0.16274   0.53116   0.34386   0.00000  Uiso   1.00
H127   H     0.99926   0.60323   0.07543   0.00000  Uiso   1.00
H128   H     0.09389   0.19943   0.57471   0.00000  Uiso   1.00
H129   H     0.22017   0.61347   0.43620   0.00000  Uiso   1.00
O130   O     0.95172   0.67849   0.21598   0.00000  Uiso   1.00
O131   O     0.07587   0.14873   0.87103   0.00000  Uiso   1.00
O132   O     0.24155   0.69194   0.68931   0.00000  Uiso   1.00
N133   N     0.98347   0.64755   0.44781   0.00000  Uiso   1.00
N134   N     0.07193   0.27002   0.91460   0.00000  Uiso   1.00
N135   N     0.19000   0.65710   0.78513   0.00000  Uiso   1.00
N136   N     0.99931   0.61058   0.20031   0.00000  Uiso   1.00
N137   N     0.08777   0.23305   0.66710   0.00000  Uiso   1.00
N138   N     0.20584   0.62013   0.53763   0.00000  Uiso   1.00
C139   C     0.58675   0.48016   0.15108   0.00000  Uiso   1.00
C140   C     0.56463   0.44902   0.28626   0.00000  Uiso   1.00
C141   C     0.54079   0.39785   0.26138   0.00000  Uiso   1.00
C142   C     0.52314   0.37632   0.40115   0.00000  Uiso   1.00
C143   C     0.48786   0.32363   0.58688   0.00000  Uiso   1.00
C144   C     0.58135   0.55968   0.15688   0.00000  Uiso   1.00
C145   C     0.57158   0.60155   0.02321   0.00000  Uiso   1.00
C146   C     0.56801   0.67318   0.05407   0.00000  Uiso   1.00
C147   C     0.55872   0.79231   0.03889   0.00000  Uiso   1.00
C148   C     0.62184   0.46796   0.21053   0.00000  Uiso   1.00
C149   C     0.64613   0.43272   0.12195   0.00000  Uiso   1.00
C150   C     0.67665   0.42715   0.19796   0.00000  Uiso   1.00
C151   C     0.73023   0.40385   0.26607   0.00000  Uiso   1.00
C152   C     0.59779   0.53294   0.44356   0.00000  Uiso   1.00
C153   C     0.57062   0.47769   0.44512   0.00000  Uiso   1.00
C154   C     0.55300   0.45624   0.58497   0.00000  Uiso   1.00
C155   C     0.52915   0.40504   0.56030   0.00000  Uiso   1.00
C156   C     0.58735   0.58835   0.31574   0.00000  Uiso   1.00
C157   C     0.58380   0.65994   0.34680   0.00000  Uiso   1.00
C158   C     0.57402   0.70191   0.21321   0.00000  Uiso   1.00
C159   C     0.62784   0.49663   0.36939   0.00000  Uiso   1.00
C160   C     0.65834   0.49111   0.44554   0.00000  Uiso   1.00
C161   C     0.68266   0.45587   0.35710   0.00000  Uiso   1.00
H162   H     0.58209   0.45785   0.02740   0.00000  Uiso   1.00
H163   H     0.53616   0.37568   0.13842   0.00000  Uiso   1.00
H164   H     0.56695   0.57935   0.90028   0.00000  Uiso   1.00
H165   H     0.64148   0.41054   0.99902   0.00000  Uiso   1.00
H166   H     0.48787   0.29724   0.33155   0.00000  Uiso   1.00
H167   H     0.55280   0.72669   0.82941   0.00000  Uiso   1.00
H168   H     0.70997   0.37073   0.03760   0.00000  Uiso   1.00
H169   H     0.60246   0.55526   0.56724   0.00000  Uiso   1.00
H170   H     0.55765   0.47843   0.70789   0.00000  Uiso   1.00
H171   H     0.58844   0.68211   0.46975   0.00000  Uiso   1.00
H172   H     0.66297   0.51330   0.56848   0.00000  Uiso   1.00
H173   H     0.50531   0.38064   0.79375   0.00000  Uiso   1.00
H174   H     0.57025   0.81010   0.29161   0.00000  Uiso   1.00
H175   H     0.72741   0.45414   0.49980   0.00000  Uiso   1.00
O176   O     0.46674   0.28666   0.64543   0.00000  Uiso   1.00
O177   O     0.55194   0.85009   0.98663   0.00000  Uiso   1.00
O178   O     0.75813   0.38308   0.25977   0.00000  Uiso   1.00
N179   N     0.49813   0.32740   0.42104   0.00000  Uiso   1.00
N180   N     0.55883   0.72892   0.95157   0.00000  Uiso   1.00
N181   N     0.70577   0.39614   0.14619   0.00000  Uiso   1.00
N182   N     0.50752   0.37228   0.66974   0.00000  Uiso   1.00
N183   N     0.56822   0.77379   0.20028   0.00000  Uiso   1.00
N184   N     0.71516   0.44102   0.39490   0.00000  Uiso   1.00
C185   C     0.41960   0.02818   0.73759   0.00000  Uiso   1.00
C186   C     0.44244   0.05206   0.59724   0.00000  Uiso   1.00
C187   C     0.47047   0.09271   0.61711   0.00000  Uiso   1.00
C188   C     0.48805   0.10894   0.47311   0.00000  Uiso   1.00
C189   C     0.52506   0.14957   0.27924   0.00000  Uiso   1.00
C190   C     0.41806   0.94800   0.72589   0.00000  Uiso   1.00
C191   C     0.42560   0.90118   0.85392   0.00000  Uiso   1.00
C192   C     0.42265   0.82981   0.81821   0.00000  Uiso   1.00
C193   C     0.42180   0.70890   0.82410   0.00000  Uiso   1.00
C194   C     0.38553   0.05469   0.69019   0.00000  Uiso   1.00
C195   C     0.36570   0.09755   0.78824   0.00000  Uiso   1.00
C196   C     0.33536   0.11600   0.72249   0.00000  Uiso   1.00
C197   C     0.28399   0.16073   0.67297   0.00000  Uiso   1.00
C198   C     0.40097   0.98470   0.44654   0.00000  Uiso   1.00
C199   C     0.43232   0.02843   0.43916   0.00000  Uiso   1.00
C200   C     0.44986   0.04461   0.29509   0.00000  Uiso   1.00
C201   C     0.47791   0.08528   0.31473   0.00000  Uiso   1.00
C202   C     0.40794   0.92438   0.56780   0.00000  Uiso   1.00
C203   C     0.40498   0.85307   0.53190   0.00000  Uiso   1.00
C204   C     0.41251   0.80615   0.65984   0.00000  Uiso   1.00
C205   C     0.37541   0.03107   0.53210   0.00000  Uiso   1.00
C206   C     0.34509   0.04945   0.46621   0.00000  Uiso   1.00
C207   C     0.32522   0.09233   0.56412   0.00000  Uiso   1.00
H208   H     0.42748   0.04657   0.86068   0.00000  Uiso   1.00
H209   H     0.47830   0.11098   0.73948   0.00000  Uiso   1.00
H210   H     0.43343   0.91947   0.97625   0.00000  Uiso   1.00
H211   H     0.37354   0.11582   0.91057   0.00000  Uiso   1.00
H212   H     0.53018   0.17195   0.53539   0.00000  Uiso   1.00
H213   H     0.43556   0.76815   0.03466   0.00000  Uiso   1.00
H214   H     0.30928   0.18219   0.89616   0.00000  Uiso   1.00
H215   H     0.39309   0.96631   0.32345   0.00000  Uiso   1.00
H216   H     0.44202   0.02632   0.17276   0.00000  Uiso   1.00
H217   H     0.39715   0.83481   0.40955   0.00000  Uiso   1.00
H218   H     0.33726   0.03116   0.34386   0.00000  Uiso   1.00
H219   H     0.50074   0.10323   0.07543   0.00000  Uiso   1.00
H220   H     0.40611   0.69943   0.57471   0.00000  Uiso   1.00
H221   H     0.27983   0.11347   0.43620   0.00000  Uiso   1.00
O222   O     0.54828   0.17849   0.21598   0.00000  Uiso   1.00
O223   O     0.42413   0.64873   0.87103   0.00000  Uiso   1.00
O224   O     0.25845   0.19194   0.68931   0.00000  Uiso   1.00
N225   N     0.51653   0.14755   0.44781   0.00000  Uiso   1.00
N226   N     0.42807   0.77002   0.91460   0.00000  Uiso   1.00
N227   N     0.31000   0.15710   0.78513   0.00000  Uiso   1.00
N228   N     0.50069   0.11058   0.20031   0.00000  Uiso   1.00
N229   N     0.41223   0.73305   0.66710   0.00000  Uiso   1.00
N230   N     0.29416   0.12013   0.53763   0.00000  Uiso   1.00
C231   C     0.91325   0.98016   0.15108   0.00000  Uiso   1.00
C232   C     0.93537   0.94902   0.28626   0.00000  Uiso   1.00
C233   C     0.95921   0.89785   0.26138   0.00000  Uiso   1.00
C234   C     0.97686   0.87632   0.40115   0.00000  Uiso   1.00
C235   C     0.01214   0.82363   0.58688   0.00000  Uiso   1.00
C236   C     0.91865   0.05968   0.15688   0.00000  Uiso   1.00
C237   C     0.92842   0.10155   0.02321   0.00000  Uiso   1.00
C238   C     0.93199   0.17318   0.05407   0.00000  Uiso   1.00
C239   C     0.94128   0.29231   0.03889   0.00000  Uiso   1.00
C240   C     0.87816   0.96796   0.21053   0.00000  Uiso   1.00
C241   C     0.85387   0.93272   0.12195   0.00000  Uiso   1.00
C242   C     0.82335   0.92715   0.19796   0.00000  Uiso   1.00
C243   C     0.76977   0.90385   0.26607   0.00000  Uiso   1.00
C244   C     0.90221   0.03294   0.44356   0.00000  Uiso   1.00
C245   C     0.92938   0.97769   0.44512   0.00000  Uiso   1.00
C246   C     0.94700   0.95624   0.58497   0.00000  Uiso   1.00
C247   C     0.97085   0.90504   0.56030   0.00000  Uiso   1.00
C248   C     0.91265   0.08835   0.31574   0.00000  Uiso   1.00
C249   C     0.91620   0.15994   0.34680   0.00000  Uiso   1.00
C250   C     0.92598   0.20191   0.21321   0.00000  Uiso   1.00
C251   C     0.87216   0.99663   0.36939   0.00000  Uiso   1.00
C252   C     0.84166   0.99111   0.44554   0.00000  Uiso   1.00
C253   C     0.81734   0.95587   0.35710   0.00000  Uiso   1.00
H254   H     0.91791   0.95785   0.02740   0.00000  Uiso   1.00
H255   H     0.96384   0.87568   0.13842   0.00000  Uiso   1.00
H256   H     0.93305   0.07935   0.90028   0.00000  Uiso   1.00
H257   H     0.85852   0.91054   0.99902   0.00000  Uiso   1.00
H258   H     0.01213   0.79724   0.33155   0.00000  Uiso   1.00
H259   H     0.94720   0.22669   0.82941   0.00000  Uiso   1.00
H260   H     0.79003   0.87073   0.03760   0.00000  Uiso   1.00
H261   H     0.89754   0.05526   0.56724   0.00000  Uiso   1.00
H262   H     0.94235   0.97843   0.70789   0.00000  Uiso   1.00
H263   H     0.91156   0.18211   0.46975   0.00000  Uiso   1.00
H264   H     0.83703   0.01330   0.56848   0.00000  Uiso   1.00
H265   H     0.99469   0.88064   0.79375   0.00000  Uiso   1.00
H266   H     0.92975   0.31010   0.29161   0.00000  Uiso   1.00
H267   H     0.77259   0.95414   0.49980   0.00000  Uiso   1.00
O268   O     0.03326   0.78666   0.64543   0.00000  Uiso   1.00
O269   O     0.94806   0.35009   0.98663   0.00000  Uiso   1.00
O270   O     0.74187   0.88308   0.25977   0.00000  Uiso   1.00
N271   N     0.00187   0.82740   0.42104   0.00000  Uiso   1.00
N272   N     0.94117   0.22892   0.95157   0.00000  Uiso   1.00
N273   N     0.79423   0.89614   0.14619   0.00000  Uiso   1.00
N274   N     0.99248   0.87228   0.66974   0.00000  Uiso   1.00
N275   N     0.93178   0.27379   0.20028   0.00000  Uiso   1.00
N276   N     0.78484   0.94102   0.39490   0.00000  Uiso   1.00
C277   C     0.58040   0.97182   0.73759   0.00000  Uiso   1.00
C278   C     0.55756   0.94794   0.59724   0.00000  Uiso   1.00
C279   C     0.52953   0.90729   0.61711   0.00000  Uiso   1.00
C280   C     0.51195   0.89106   0.47311   0.00000  Uiso   1.00
C281   C     0.47494   0.85043   0.27924   0.00000  Uiso   1.00
C282   C     0.58194   0.05200   0.72589   0.00000  Uiso   1.00
C283   C     0.57440   0.09882   0.85392   0.00000  Uiso   1.00
C284   C     0.57735   0.17019   0.81821   0.00000  Uiso   1.00
C285   C     0.57820   0.29110   0.82410   0.00000  Uiso   1.00
C286   C     0.61447   0.94531   0.69019   0.00000  Uiso   1.00
C287   C     0.63430   0.90245   0.78824   0.00000  Uiso   1.00
C288   C     0.66464   0.88400   0.72249   0.00000  Uiso   1.00
C289   C     0.71601   0.83927   0.67297   0.00000  Uiso   1.00
C290   C     0.59903   0.01530   0.44654   0.00000  Uiso   1.00
C291   C     0.56768   0.97157   0.43916   0.00000  Uiso   1.00
C292   C     0.55014   0.95539   0.29509   0.00000  Uiso   1.00
C293   C     0.52209   0.91472   0.31473   0.00000  Uiso   1.00
C294   C     0.59206   0.07562   0.56780   0.00000  Uiso   1.00
C295   C     0.59502   0.14693   0.53190   0.00000  Uiso   1.00
C296   C     0.58749   0.19385   0.65984   0.00000  Uiso   1.00
C297   C     0.62459   0.96893   0.53210   0.00000  Uiso   1.00
C298   C     0.65491   0.95055   0.46621   0.00000  Uiso   1.00
C299   C     0.67478   0.90767   0.56412   0.00000  Uiso   1.00
H300   H     0.57252   0.95343   0.86068   0.00000  Uiso   1.00
H301   H     0.52170   0.88902   0.73948   0.00000  Uiso   1.00
H302   H     0.56657   0.08053   0.97625   0.00000  Uiso   1.00
H303   H     0.62646   0.88418   0.91057   0.00000  Uiso   1.00
H304   H     0.46982   0.82805   0.53539   0.00000  Uiso   1.00
H305   H     0.56444   0.23185   0.03466   0.00000  Uiso   1.00
H306   H     0.69072   0.81781   0.89616   0.00000  Uiso   1.00
H307   H     0.60691   0.03369   0.32345   0.00000  Uiso   1.00
H308   H     0.55798   0.97368   0.17276   0.00000  Uiso   1.00
H309   H     0.60285   0.16519   0.40955   0.00000  Uiso   1.00
H310   H     0.66274   0.96884   0.34386   0.00000  Uiso   1.00
H311   H     0.49926   0.89677   0.07543   0.00000  Uiso   1.00
H312   H     0.59389   0.30057   0.57471   0.00000  Uiso   1.00
H313   H     0.72017   0.88653   0.43620   0.00000  Uiso   1.00
O314   O     0.45172   0.82151   0.21598   0.00000  Uiso   1.00
O315   O     0.57587   0.35127   0.87103   0.00000  Uiso   1.00
O316   O     0.74155   0.80806   0.68931   0.00000  Uiso   1.00
N317   N     0.48347   0.85245   0.44781   0.00000  Uiso   1.00
N318   N     0.57193   0.22998   0.91460   0.00000  Uiso   1.00
N319   N     0.69000   0.84290   0.78513   0.00000  Uiso   1.00
N320   N     0.49931   0.88942   0.20031   0.00000  Uiso   1.00
N321   N     0.58777   0.26695   0.66710   0.00000  Uiso   1.00
N322   N     0.70584   0.87987   0.53763   0.00000  Uiso   1.00
C323   C     0.08675   0.01984   0.15108   0.00000  Uiso   1.00
C324   C     0.06463   0.05098   0.28626   0.00000  Uiso   1.00
C325   C     0.04079   0.10215   0.26138   0.00000  Uiso   1.00
C326   C     0.02314   0.12368   0.40115   0.00000  Uiso   1.00
C327   C     0.98786   0.17637   0.58688   0.00000  Uiso   1.00
C328   C     0.08135   0.94032   0.15688   0.00000  Uiso   1.00
C329   C     0.07158   0.89845   0.02321   0.00000  Uiso   1.00
C330   C     0.06801   0.82682   0.05407   0.00000  Uiso   1.00
C331   C     0.05872   0.70769   0.03889   0.00000  Uiso   1.00
C332   C     0.12184   0.03204   0.21053   0.00000  Uiso   1.00
C333   C     0.14613   0.06728   0.12195   0.00000  Uiso   1.00
C334   C     0.17665   0.07285   0.19796   0.00000  Uiso   1.00
C335   C     0.23023   0.09615   0.26607   0.00000  Uiso   1.00
C336   C     0.09779   0.96706   0.44356   0.00000  Uiso   1.00
C337   C     0.07062   0.02231   0.44512   0.00000  Uiso   1.00
C338   C     0.05300   0.04376   0.58497   0.00000  Uiso   1.00
C339   C     0.02915   0.09496   0.56030   0.00000  Uiso   1.00
C340   C     0.08735   0.91165   0.31574   0.00000  Uiso   1.00
C341   C     0.08380   0.84006   0.34680   0.00000  Uiso   1.00
C342   C     0.07402   0.79809   0.21321   0.00000  Uiso   1.00
C343   C     0.12784   0.00337   0.36939   0.00000  Uiso   1.00
C344   C     0.15834   0.00889   0.44554   0.00000  Uiso   1.00
C345   C     0.18266   0.04413   0.35710   0.00000  Uiso   1.00
H346   H     0.08209   0.04215   0.02740   0.00000  Uiso   1.00
H347   H     0.03616   0.12432   0.13842   0.00000  Uiso   1.00
H348   H     0.06695   0.92065   0.90028   0.00000  Uiso   1.00
H349   H     0.14148   0.08946   0.99902   0.00000  Uiso   1.00
H350   H     0.98787   0.20276   0.33155   0.00000  Uiso   1.00
H351   H     0.05280   0.77331   0.82941   0.00000  Uiso   1.00
H352   H     0.20997   0.12927   0.03760   0.00000  Uiso   1.00
H353   H     0.10246   0.94474   0.56724   0.00000  Uiso   1.00
H354   H     0.05765   0.02157   0.70789   0.00000  Uiso   1.00
H355   H     0.08844   0.81789   0.46975   0.00000  Uiso   1.00
H356   H     0.16297   0.98670   0.56848   0.00000  Uiso   1.00
H357   H     0.00531   0.11936   0.79375   0.00000  Uiso   1.00
H358   H     0.07025   0.68990   0.29161   0.00000  Uiso   1.00
H359   H     0.22741   0.04586   0.49980   0.00000  Uiso   1.00
O360   O     0.96674   0.21334   0.64543   0.00000  Uiso   1.00
O361   O     0.05194   0.64991   0.98663   0.00000  Uiso   1.00
O362   O     0.25813   0.11692   0.25977   0.00000  Uiso   1.00
N363   N     0.99813   0.17260   0.42104   0.00000  Uiso   1.00
N364   N     0.05883   0.77108   0.95157   0.00000  Uiso   1.00
N365   N     0.20577   0.10386   0.14619   0.00000  Uiso   1.00
N366   N     0.00752   0.12772   0.66974   0.00000  Uiso   1.00
N367   N     0.06822   0.72621   0.20028   0.00000  Uiso   1.00
N368   N     0.21516   0.05898   0.39490   0.00000  Uiso   1.00
