data_job_04683
_audit_creation_date              2018-12-19
_audit_creation_method            'Materials Studio'
_symmetry_space_group_name_H-M    'P1'
_symmetry_Int_Tables_number       1
_symmetry_cell_setting            triclinic
loop_
_symmetry_equiv_pos_as_xyz
  x,y,z
_cell_length_a                    10.4583
_cell_length_b                    8.4532
_cell_length_c                    29.4621
_cell_angle_alpha                 90.0000
_cell_angle_beta                  114.6682
_cell_angle_gamma                 90.0000
loop_
_atom_site_label
_atom_site_type_symbol
_atom_site_fract_x
_atom_site_fract_y
_atom_site_fract_z
_atom_site_U_iso_or_equiv
_atom_site_adp_type
_atom_site_occupancy
C1     C     0.77788   0.12893   0.62497   0.00000  Uiso   1.00
C2     C     0.79675   0.12063   0.57642   0.00000  Uiso   1.00
C3     C     0.78486   0.98529   0.54827   0.00000  Uiso   1.00
C4     C     0.80598   0.00236   0.50503   0.00000  Uiso   1.00
C5     C     0.83050   0.96707   0.43187   0.00000  Uiso   1.00
C6     C     0.91360   0.19986   0.66373   0.00000  Uiso   1.00
C7     C     0.99994   0.13115   0.70900   0.00000  Uiso   1.00
C8     C     0.11940   0.21494   0.73926   0.00000  Uiso   1.00
C9     C     0.32528   0.30272   0.80167   0.00000  Uiso   1.00
C10    C     0.66350   0.25199   0.61643   0.00000  Uiso   1.00
C11    C     0.53956   0.22712   0.62193   0.00000  Uiso   1.00
C12    C     0.44848   0.35481   0.61238   0.00000  Uiso   1.00
C13    C     0.26604   0.52351   0.60134   0.00000  Uiso   1.00
C14    C     0.83653   0.39991   0.59822   0.00000  Uiso   1.00
C15    C     0.82861   0.26782   0.56189   0.00000  Uiso   1.00
C16    C     0.84974   0.28510   0.51868   0.00000  Uiso   1.00
C17    C     0.83788   0.14981   0.49047   0.00000  Uiso   1.00
C18    C     0.94545   0.34704   0.64921   0.00000  Uiso   1.00
C19    C     0.06482   0.43096   0.67941   0.00000  Uiso   1.00
C20    C     0.15132   0.36239   0.72471   0.00000  Uiso   1.00
C21    C     0.69535   0.39918   0.60190   0.00000  Uiso   1.00
C22    C     0.60445   0.52693   0.59234   0.00000  Uiso   1.00
C23    C     0.48039   0.50226   0.59783   0.00000  Uiso   1.00
H24    H     0.75309   0.01434   0.63628   0.00000  Uiso   1.00
H25    H     0.76022   0.87140   0.55953   0.00000  Uiso   1.00
H26    H     0.97525   0.01726   0.72023   0.00000  Uiso   1.00
H27    H     0.51495   0.11321   0.63318   0.00000  Uiso   1.00
H28    H     0.78223   0.77783   0.46804   0.00000  Uiso   1.00
H29    H     0.23560   0.08539   0.80690   0.00000  Uiso   1.00
H30    H     0.26497   0.28772   0.62333   0.00000  Uiso   1.00
H31    H     0.86133   0.51451   0.58691   0.00000  Uiso   1.00
H32    H     0.87439   0.39902   0.50745   0.00000  Uiso   1.00
H33    H     0.08943   0.54486   0.66816   0.00000  Uiso   1.00
H34    H     0.62913   0.64081   0.58110   0.00000  Uiso   1.00
H35    H     0.87490   0.20606   0.42577   0.00000  Uiso   1.00
H36    H     0.32827   0.51362   0.76463   0.00000  Uiso   1.00
H37    H     0.35764   0.71595   0.58106   0.00000  Uiso   1.00
O38    O     0.83525   0.90694   0.39553   0.00000  Uiso   1.00
O39    O     0.43004   0.31046   0.84011   0.00000  Uiso   1.00
O40    O     0.15660   0.57590   0.59926   0.00000  Uiso   1.00
N41    N     0.80221   0.89447   0.46899   0.00000  Uiso   1.00
N42    N     0.22611   0.18201   0.78580   0.00000  Uiso   1.00
N43    N     0.31866   0.37118   0.61419   0.00000  Uiso   1.00
N44    N     0.85208   0.12490   0.44625   0.00000  Uiso   1.00
N45    N     0.27597   0.41243   0.76306   0.00000  Uiso   1.00
N46    N     0.36853   0.60161   0.59144   0.00000  Uiso   1.00
C47    C     0.22212   0.62893   0.87503   0.00000  Uiso   1.00
C48    C     0.20325   0.62063   0.92358   0.00000  Uiso   1.00
C49    C     0.21514   0.48529   0.95173   0.00000  Uiso   1.00
C50    C     0.19402   0.50236   0.99497   0.00000  Uiso   1.00
C51    C     0.16950   0.46707   0.06813   0.00000  Uiso   1.00
C52    C     0.08640   0.69986   0.83627   0.00000  Uiso   1.00
C53    C     0.00006   0.63115   0.79100   0.00000  Uiso   1.00
C54    C     0.88060   0.71494   0.76074   0.00000  Uiso   1.00
C55    C     0.67472   0.80272   0.69833   0.00000  Uiso   1.00
C56    C     0.33650   0.75199   0.88357   0.00000  Uiso   1.00
C57    C     0.46044   0.72712   0.87807   0.00000  Uiso   1.00
C58    C     0.55152   0.85481   0.88762   0.00000  Uiso   1.00
C59    C     0.73396   0.02351   0.89866   0.00000  Uiso   1.00
C60    C     0.16347   0.89991   0.90178   0.00000  Uiso   1.00
C61    C     0.17139   0.76782   0.93811   0.00000  Uiso   1.00
C62    C     0.15026   0.78510   0.98132   0.00000  Uiso   1.00
C63    C     0.16212   0.64981   0.00953   0.00000  Uiso   1.00
C64    C     0.05455   0.84704   0.85079   0.00000  Uiso   1.00
C65    C     0.93518   0.93096   0.82059   0.00000  Uiso   1.00
C66    C     0.84868   0.86239   0.77529   0.00000  Uiso   1.00
C67    C     0.30465   0.89918   0.89810   0.00000  Uiso   1.00
C68    C     0.39555   0.02693   0.90766   0.00000  Uiso   1.00
C69    C     0.51961   0.00226   0.90217   0.00000  Uiso   1.00
H70    H     0.24691   0.51434   0.86372   0.00000  Uiso   1.00
H71    H     0.23978   0.37140   0.94047   0.00000  Uiso   1.00
H72    H     0.02475   0.51726   0.77977   0.00000  Uiso   1.00
H73    H     0.48505   0.61321   0.86682   0.00000  Uiso   1.00
H74    H     0.21777   0.27783   0.03196   0.00000  Uiso   1.00
H75    H     0.76440   0.58539   0.69310   0.00000  Uiso   1.00
H76    H     0.73503   0.78772   0.87667   0.00000  Uiso   1.00
H77    H     0.13867   0.01451   0.91309   0.00000  Uiso   1.00
H78    H     0.12561   0.89902   0.99255   0.00000  Uiso   1.00
H79    H     0.91057   0.04486   0.83184   0.00000  Uiso   1.00
H80    H     0.37087   0.14081   0.91890   0.00000  Uiso   1.00
H81    H     0.12510   0.70606   0.07423   0.00000  Uiso   1.00
H82    H     0.67173   0.01362   0.73537   0.00000  Uiso   1.00
H83    H     0.64236   0.21595   0.91894   0.00000  Uiso   1.00
O84    O     0.16475   0.40694   0.10447   0.00000  Uiso   1.00
O85    O     0.56996   0.81046   0.65989   0.00000  Uiso   1.00
O86    O     0.84340   0.07590   0.90074   0.00000  Uiso   1.00
N87    N     0.19779   0.39447   0.03101   0.00000  Uiso   1.00
N88    N     0.77389   0.68201   0.71420   0.00000  Uiso   1.00
N89    N     0.68134   0.87118   0.88581   0.00000  Uiso   1.00
N90    N     0.14792   0.62490   0.05375   0.00000  Uiso   1.00
N91    N     0.72403   0.91243   0.73694   0.00000  Uiso   1.00
N92    N     0.63147   0.10161   0.90856   0.00000  Uiso   1.00
C93    C     0.22212   0.87107   0.37503   0.00000  Uiso   1.00
C94    C     0.20325   0.87937   0.42358   0.00000  Uiso   1.00
C95    C     0.21514   0.01471   0.45173   0.00000  Uiso   1.00
C96    C     0.19402   0.99764   0.49497   0.00000  Uiso   1.00
C97    C     0.16950   0.03293   0.56813   0.00000  Uiso   1.00
C98    C     0.08640   0.80014   0.33627   0.00000  Uiso   1.00
C99    C     0.00006   0.86885   0.29100   0.00000  Uiso   1.00
C100   C     0.88060   0.78506   0.26074   0.00000  Uiso   1.00
C101   C     0.67472   0.69728   0.19833   0.00000  Uiso   1.00
C102   C     0.33650   0.74801   0.38357   0.00000  Uiso   1.00
C103   C     0.46044   0.77288   0.37807   0.00000  Uiso   1.00
C104   C     0.55152   0.64519   0.38762   0.00000  Uiso   1.00
C105   C     0.73396   0.47649   0.39866   0.00000  Uiso   1.00
C106   C     0.16347   0.60009   0.40178   0.00000  Uiso   1.00
C107   C     0.17139   0.73218   0.43811   0.00000  Uiso   1.00
C108   C     0.15026   0.71490   0.48132   0.00000  Uiso   1.00
C109   C     0.16212   0.85019   0.50953   0.00000  Uiso   1.00
C110   C     0.05455   0.65296   0.35079   0.00000  Uiso   1.00
C111   C     0.93518   0.56904   0.32059   0.00000  Uiso   1.00
C112   C     0.84868   0.63761   0.27529   0.00000  Uiso   1.00
C113   C     0.30465   0.60082   0.39810   0.00000  Uiso   1.00
C114   C     0.39555   0.47307   0.40766   0.00000  Uiso   1.00
C115   C     0.51961   0.49774   0.40217   0.00000  Uiso   1.00
H116   H     0.24691   0.98566   0.36372   0.00000  Uiso   1.00
H117   H     0.23978   0.12860   0.44047   0.00000  Uiso   1.00
H118   H     0.02475   0.98274   0.27977   0.00000  Uiso   1.00
H119   H     0.48505   0.88679   0.36682   0.00000  Uiso   1.00
H120   H     0.21777   0.22217   0.53196   0.00000  Uiso   1.00
H121   H     0.76440   0.91461   0.19310   0.00000  Uiso   1.00
H122   H     0.73503   0.71228   0.37667   0.00000  Uiso   1.00
H123   H     0.13867   0.48549   0.41309   0.00000  Uiso   1.00
H124   H     0.12561   0.60098   0.49255   0.00000  Uiso   1.00
H125   H     0.91057   0.45514   0.33184   0.00000  Uiso   1.00
H126   H     0.37087   0.35919   0.41890   0.00000  Uiso   1.00
H127   H     0.12510   0.79394   0.57423   0.00000  Uiso   1.00
H128   H     0.67173   0.48638   0.23537   0.00000  Uiso   1.00
H129   H     0.64236   0.28405   0.41894   0.00000  Uiso   1.00
O130   O     0.16475   0.09306   0.60447   0.00000  Uiso   1.00
O131   O     0.56996   0.68954   0.15989   0.00000  Uiso   1.00
O132   O     0.84340   0.42410   0.40074   0.00000  Uiso   1.00
N133   N     0.19779   0.10553   0.53101   0.00000  Uiso   1.00
N134   N     0.77389   0.81799   0.21420   0.00000  Uiso   1.00
N135   N     0.68134   0.62882   0.38581   0.00000  Uiso   1.00
N136   N     0.14792   0.87510   0.55375   0.00000  Uiso   1.00
N137   N     0.72403   0.58757   0.23694   0.00000  Uiso   1.00
N138   N     0.63147   0.39839   0.40856   0.00000  Uiso   1.00
C139   C     0.77788   0.37107   0.12497   0.00000  Uiso   1.00
C140   C     0.79675   0.37937   0.07642   0.00000  Uiso   1.00
C141   C     0.78486   0.51471   0.04827   0.00000  Uiso   1.00
C142   C     0.80598   0.49764   0.00503   0.00000  Uiso   1.00
C143   C     0.83050   0.53293   0.93187   0.00000  Uiso   1.00
C144   C     0.91360   0.30014   0.16373   0.00000  Uiso   1.00
C145   C     0.99994   0.36885   0.20900   0.00000  Uiso   1.00
C146   C     0.11940   0.28506   0.23926   0.00000  Uiso   1.00
C147   C     0.32528   0.19728   0.30167   0.00000  Uiso   1.00
C148   C     0.66350   0.24801   0.11643   0.00000  Uiso   1.00
C149   C     0.53956   0.27288   0.12193   0.00000  Uiso   1.00
C150   C     0.44848   0.14519   0.11238   0.00000  Uiso   1.00
C151   C     0.26604   0.97649   0.10134   0.00000  Uiso   1.00
C152   C     0.83653   0.10009   0.09822   0.00000  Uiso   1.00
C153   C     0.82861   0.23218   0.06189   0.00000  Uiso   1.00
C154   C     0.84974   0.21490   0.01868   0.00000  Uiso   1.00
C155   C     0.83788   0.35019   0.99047   0.00000  Uiso   1.00
C156   C     0.94545   0.15296   0.14921   0.00000  Uiso   1.00
C157   C     0.06482   0.06904   0.17941   0.00000  Uiso   1.00
C158   C     0.15132   0.13761   0.22471   0.00000  Uiso   1.00
C159   C     0.69535   0.10082   0.10190   0.00000  Uiso   1.00
C160   C     0.60445   0.97307   0.09234   0.00000  Uiso   1.00
C161   C     0.48039   0.99774   0.09783   0.00000  Uiso   1.00
H162   H     0.75309   0.48566   0.13628   0.00000  Uiso   1.00
H163   H     0.76022   0.62860   0.05953   0.00000  Uiso   1.00
H164   H     0.97525   0.48274   0.22023   0.00000  Uiso   1.00
H165   H     0.51495   0.38679   0.13318   0.00000  Uiso   1.00
H166   H     0.78223   0.72217   0.96804   0.00000  Uiso   1.00
H167   H     0.23560   0.41461   0.30690   0.00000  Uiso   1.00
H168   H     0.26497   0.21228   0.12333   0.00000  Uiso   1.00
H169   H     0.86133   0.98549   0.08691   0.00000  Uiso   1.00
H170   H     0.87439   0.10098   0.00745   0.00000  Uiso   1.00
H171   H     0.08943   0.95514   0.16816   0.00000  Uiso   1.00
H172   H     0.62913   0.85919   0.08110   0.00000  Uiso   1.00
H173   H     0.87490   0.29394   0.92577   0.00000  Uiso   1.00
H174   H     0.32827   0.98638   0.26463   0.00000  Uiso   1.00
H175   H     0.35764   0.78405   0.08106   0.00000  Uiso   1.00
O176   O     0.83525   0.59306   0.89553   0.00000  Uiso   1.00
O177   O     0.43004   0.18954   0.34011   0.00000  Uiso   1.00
O178   O     0.15660   0.92410   0.09926   0.00000  Uiso   1.00
N179   N     0.80221   0.60553   0.96899   0.00000  Uiso   1.00
N180   N     0.22611   0.31799   0.28580   0.00000  Uiso   1.00
N181   N     0.31866   0.12882   0.11419   0.00000  Uiso   1.00
N182   N     0.85208   0.37510   0.94625   0.00000  Uiso   1.00
N183   N     0.27597   0.08757   0.26306   0.00000  Uiso   1.00
N184   N     0.36853   0.89839   0.09144   0.00000  Uiso   1.00
