data_job_03719
_audit_creation_date              2018-12-19
_audit_creation_method            'Materials Studio'
_symmetry_space_group_name_H-M    'P1'
_symmetry_Int_Tables_number       1
_symmetry_cell_setting            triclinic
loop_
_symmetry_equiv_pos_as_xyz
  x,y,z
_cell_length_a                    23.8848
_cell_length_b                    13.2732
_cell_length_c                    23.1000
_cell_angle_alpha                 90.0000
_cell_angle_beta                  90.0000
_cell_angle_gamma                 90.0000
loop_
_atom_site_label
_atom_site_type_symbol
_atom_site_fract_x
_atom_site_fract_y
_atom_site_fract_z
_atom_site_U_iso_or_equiv
_atom_site_adp_type
_atom_site_occupancy
C1     C     0.38116   0.08552   0.09829   0.00000  Uiso   1.00
C2     C     0.39875   0.13219   0.04077   0.00000  Uiso   1.00
C3     C     0.39948   0.08335   0.98766   0.00000  Uiso   1.00
C4     C     0.41693   0.13914   0.94013   0.00000  Uiso   1.00
C5     C     0.44181   0.19623   0.85000   0.00000  Uiso   1.00
C6     C     0.43067   0.09960   0.13917   0.00000  Uiso   1.00
C7     C     0.45825   0.02336   0.16880   0.00000  Uiso   1.00
C8     C     0.50257   0.05173   0.20411   0.00000  Uiso   1.00
C9     C     0.57699   0.05823   0.26678   0.00000  Uiso   1.00
C10    C     0.33441   0.15218   0.12180   0.00000  Uiso   1.00
C11    C     0.28104   0.12016   0.13684   0.00000  Uiso   1.00
C12    C     0.24431   0.19280   0.15754   0.00000  Uiso   1.00
C13    C     0.16926   0.28095   0.19324   0.00000  Uiso   1.00
C14    C     0.41084   0.27146   0.10833   0.00000  Uiso   1.00
C15    C     0.41487   0.23318   0.04623   0.00000  Uiso   1.00
C16    C     0.43232   0.28907   0.99877   0.00000  Uiso   1.00
C17    C     0.43308   0.24032   0.94559   0.00000  Uiso   1.00
C18    C     0.44679   0.20059   0.14463   0.00000  Uiso   1.00
C19    C     0.49108   0.22909   0.17991   0.00000  Uiso   1.00
C20    C     0.51872   0.15291   0.20957   0.00000  Uiso   1.00
C21    C     0.35052   0.25319   0.12726   0.00000  Uiso   1.00
C22    C     0.31387   0.32589   0.14794   0.00000  Uiso   1.00
C23    C     0.26046   0.29398   0.16300   0.00000  Uiso   1.00
H24    H     0.36862   0.00688   0.09405   0.00000  Uiso   1.00
H25    H     0.38701   0.00518   0.98346   0.00000  Uiso   1.00
H26    H     0.44576   0.94521   0.16457   0.00000  Uiso   1.00
H27    H     0.26858   0.04200   0.13261   0.00000  Uiso   1.00
H28    H     0.41454   0.04782   0.86326   0.00000  Uiso   1.00
H29    H     0.53840   0.92137   0.24517   0.00000  Uiso   1.00
H30    H     0.16478   0.12546   0.17778   0.00000  Uiso   1.00
H31    H     0.42339   0.35010   0.11258   0.00000  Uiso   1.00
H32    H     0.44479   0.36723   0.00300   0.00000  Uiso   1.00
H33    H     0.50354   0.30725   0.18412   0.00000  Uiso   1.00
H34    H     0.32636   0.40404   0.15216   0.00000  Uiso   1.00
H35    H     0.46143   0.34167   0.87912   0.00000  Uiso   1.00
H36    H     0.58530   0.21522   0.26103   0.00000  Uiso   1.00
H37    H     0.21168   0.41931   0.19364   0.00000  Uiso   1.00
O38    O     0.45109   0.19982   0.79877   0.00000  Uiso   1.00
O39    O     0.61359   0.03391   0.29983   0.00000  Uiso   1.00
O40    O     0.12341   0.30168   0.21142   0.00000  Uiso   1.00
N41    N     0.42262   0.11464   0.88202   0.00000  Uiso   1.00
N42    N     0.53844   0.99641   0.23908   0.00000  Uiso   1.00
N43    N     0.18914   0.18721   0.17609   0.00000  Uiso   1.00
N44    N     0.44786   0.27275   0.89056   0.00000  Uiso   1.00
N45    N     0.56367   0.15452   0.24762   0.00000  Uiso   1.00
N46    N     0.21437   0.34533   0.18463   0.00000  Uiso   1.00
C47    C     0.11884   0.91448   0.59829   0.00000  Uiso   1.00
C48    C     0.10125   0.86781   0.54077   0.00000  Uiso   1.00
C49    C     0.10052   0.91665   0.48766   0.00000  Uiso   1.00
C50    C     0.08307   0.86086   0.44013   0.00000  Uiso   1.00
C51    C     0.05819   0.80377   0.35000   0.00000  Uiso   1.00
C52    C     0.06933   0.90040   0.63917   0.00000  Uiso   1.00
C53    C     0.04175   0.97664   0.66880   0.00000  Uiso   1.00
C54    C     0.99743   0.94827   0.70411   0.00000  Uiso   1.00
C55    C     0.92301   0.94177   0.76678   0.00000  Uiso   1.00
C56    C     0.16559   0.84782   0.62180   0.00000  Uiso   1.00
C57    C     0.21896   0.87984   0.63684   0.00000  Uiso   1.00
C58    C     0.25569   0.80720   0.65754   0.00000  Uiso   1.00
C59    C     0.33074   0.71905   0.69324   0.00000  Uiso   1.00
C60    C     0.08916   0.72854   0.60833   0.00000  Uiso   1.00
C61    C     0.08513   0.76682   0.54623   0.00000  Uiso   1.00
C62    C     0.06768   0.71093   0.49877   0.00000  Uiso   1.00
C63    C     0.06692   0.75968   0.44559   0.00000  Uiso   1.00
C64    C     0.05321   0.79941   0.64463   0.00000  Uiso   1.00
C65    C     0.00892   0.77091   0.67991   0.00000  Uiso   1.00
C66    C     0.98128   0.84709   0.70957   0.00000  Uiso   1.00
C67    C     0.14948   0.74681   0.62726   0.00000  Uiso   1.00
C68    C     0.18613   0.67411   0.64794   0.00000  Uiso   1.00
C69    C     0.23954   0.70602   0.66300   0.00000  Uiso   1.00
H70    H     0.13138   0.99312   0.59405   0.00000  Uiso   1.00
H71    H     0.11299   0.99482   0.48346   0.00000  Uiso   1.00
H72    H     0.05424   0.05479   0.66457   0.00000  Uiso   1.00
H73    H     0.23142   0.95800   0.63261   0.00000  Uiso   1.00
H74    H     0.08546   0.95218   0.36326   0.00000  Uiso   1.00
H75    H     0.96160   0.07863   0.74517   0.00000  Uiso   1.00
H76    H     0.33522   0.87454   0.67778   0.00000  Uiso   1.00
H77    H     0.07661   0.64990   0.61258   0.00000  Uiso   1.00
H78    H     0.05521   0.63277   0.50300   0.00000  Uiso   1.00
H79    H     0.99646   0.69275   0.68412   0.00000  Uiso   1.00
H80    H     0.17364   0.59596   0.65216   0.00000  Uiso   1.00
H81    H     0.03857   0.65833   0.37912   0.00000  Uiso   1.00
H82    H     0.91470   0.78478   0.76103   0.00000  Uiso   1.00
H83    H     0.28832   0.58069   0.69364   0.00000  Uiso   1.00
O84    O     0.04891   0.80018   0.29877   0.00000  Uiso   1.00
O85    O     0.88641   0.96609   0.79983   0.00000  Uiso   1.00
O86    O     0.37659   0.69832   0.71142   0.00000  Uiso   1.00
N87    N     0.07738   0.88536   0.38202   0.00000  Uiso   1.00
N88    N     0.96156   0.00359   0.73908   0.00000  Uiso   1.00
N89    N     0.31086   0.81279   0.67609   0.00000  Uiso   1.00
N90    N     0.05214   0.72725   0.39056   0.00000  Uiso   1.00
N91    N     0.93633   0.84548   0.74762   0.00000  Uiso   1.00
N92    N     0.28563   0.65467   0.68463   0.00000  Uiso   1.00
C93    C     0.61884   0.58552   0.40171   0.00000  Uiso   1.00
C94    C     0.60125   0.63219   0.45923   0.00000  Uiso   1.00
C95    C     0.60052   0.58335   0.51234   0.00000  Uiso   1.00
C96    C     0.58307   0.63914   0.55987   0.00000  Uiso   1.00
C97    C     0.55819   0.69623   0.65000   0.00000  Uiso   1.00
C98    C     0.56933   0.59960   0.36083   0.00000  Uiso   1.00
C99    C     0.54175   0.52336   0.33120   0.00000  Uiso   1.00
C100   C     0.49743   0.55173   0.29589   0.00000  Uiso   1.00
C101   C     0.42301   0.55823   0.23322   0.00000  Uiso   1.00
C102   C     0.66559   0.65218   0.37820   0.00000  Uiso   1.00
C103   C     0.71896   0.62016   0.36316   0.00000  Uiso   1.00
C104   C     0.75569   0.69280   0.34246   0.00000  Uiso   1.00
C105   C     0.83074   0.78095   0.30676   0.00000  Uiso   1.00
C106   C     0.58916   0.77146   0.39167   0.00000  Uiso   1.00
C107   C     0.58513   0.73318   0.45377   0.00000  Uiso   1.00
C108   C     0.56768   0.78907   0.50123   0.00000  Uiso   1.00
C109   C     0.56692   0.74032   0.55441   0.00000  Uiso   1.00
C110   C     0.55321   0.70059   0.35537   0.00000  Uiso   1.00
C111   C     0.50892   0.72909   0.32009   0.00000  Uiso   1.00
C112   C     0.48128   0.65291   0.29043   0.00000  Uiso   1.00
C113   C     0.64948   0.75319   0.37274   0.00000  Uiso   1.00
C114   C     0.68613   0.82589   0.35206   0.00000  Uiso   1.00
C115   C     0.73954   0.79398   0.33700   0.00000  Uiso   1.00
H116   H     0.63138   0.50688   0.40595   0.00000  Uiso   1.00
H117   H     0.61299   0.50518   0.51654   0.00000  Uiso   1.00
H118   H     0.55424   0.44521   0.33543   0.00000  Uiso   1.00
H119   H     0.73142   0.54200   0.36739   0.00000  Uiso   1.00
H120   H     0.58546   0.54782   0.63674   0.00000  Uiso   1.00
H121   H     0.46160   0.42137   0.25483   0.00000  Uiso   1.00
H122   H     0.83522   0.62546   0.32222   0.00000  Uiso   1.00
H123   H     0.57661   0.85010   0.38742   0.00000  Uiso   1.00
H124   H     0.55521   0.86723   0.49700   0.00000  Uiso   1.00
H125   H     0.49646   0.80725   0.31588   0.00000  Uiso   1.00
H126   H     0.67364   0.90404   0.34784   0.00000  Uiso   1.00
H127   H     0.53857   0.84167   0.62088   0.00000  Uiso   1.00
H128   H     0.41470   0.71522   0.23897   0.00000  Uiso   1.00
H129   H     0.78832   0.91931   0.30636   0.00000  Uiso   1.00
O130   O     0.54891   0.69982   0.70123   0.00000  Uiso   1.00
O131   O     0.38641   0.53391   0.20017   0.00000  Uiso   1.00
O132   O     0.87659   0.80168   0.28858   0.00000  Uiso   1.00
N133   N     0.57738   0.61464   0.61798   0.00000  Uiso   1.00
N134   N     0.46156   0.49641   0.26092   0.00000  Uiso   1.00
N135   N     0.81086   0.68721   0.32391   0.00000  Uiso   1.00
N136   N     0.55214   0.77275   0.60944   0.00000  Uiso   1.00
N137   N     0.43633   0.65452   0.25238   0.00000  Uiso   1.00
N138   N     0.78563   0.84533   0.31537   0.00000  Uiso   1.00
C139   C     0.88116   0.41448   0.90171   0.00000  Uiso   1.00
C140   C     0.89875   0.36781   0.95923   0.00000  Uiso   1.00
C141   C     0.89948   0.41665   0.01234   0.00000  Uiso   1.00
C142   C     0.91693   0.36086   0.05987   0.00000  Uiso   1.00
C143   C     0.94181   0.30377   0.15000   0.00000  Uiso   1.00
C144   C     0.93067   0.40040   0.86083   0.00000  Uiso   1.00
C145   C     0.95825   0.47664   0.83120   0.00000  Uiso   1.00
C146   C     0.00257   0.44827   0.79589   0.00000  Uiso   1.00
C147   C     0.07699   0.44177   0.73322   0.00000  Uiso   1.00
C148   C     0.83441   0.34782   0.87820   0.00000  Uiso   1.00
C149   C     0.78104   0.37984   0.86316   0.00000  Uiso   1.00
C150   C     0.74431   0.30720   0.84246   0.00000  Uiso   1.00
C151   C     0.66926   0.21905   0.80676   0.00000  Uiso   1.00
C152   C     0.91084   0.22854   0.89167   0.00000  Uiso   1.00
C153   C     0.91487   0.26682   0.95377   0.00000  Uiso   1.00
C154   C     0.93232   0.21093   0.00123   0.00000  Uiso   1.00
C155   C     0.93308   0.25968   0.05441   0.00000  Uiso   1.00
C156   C     0.94679   0.29941   0.85537   0.00000  Uiso   1.00
C157   C     0.99108   0.27091   0.82009   0.00000  Uiso   1.00
C158   C     0.01872   0.34709   0.79043   0.00000  Uiso   1.00
C159   C     0.85052   0.24681   0.87274   0.00000  Uiso   1.00
C160   C     0.81387   0.17411   0.85206   0.00000  Uiso   1.00
C161   C     0.76046   0.20602   0.83700   0.00000  Uiso   1.00
H162   H     0.86862   0.49312   0.90595   0.00000  Uiso   1.00
H163   H     0.88701   0.49482   0.01654   0.00000  Uiso   1.00
H164   H     0.94576   0.55479   0.83543   0.00000  Uiso   1.00
H165   H     0.76858   0.45800   0.86739   0.00000  Uiso   1.00
H166   H     0.91454   0.45218   0.13674   0.00000  Uiso   1.00
H167   H     0.03840   0.57863   0.75483   0.00000  Uiso   1.00
H168   H     0.66478   0.37454   0.82222   0.00000  Uiso   1.00
H169   H     0.92339   0.14990   0.88742   0.00000  Uiso   1.00
H170   H     0.94479   0.13277   0.99700   0.00000  Uiso   1.00
H171   H     0.00354   0.19275   0.81588   0.00000  Uiso   1.00
H172   H     0.82636   0.09596   0.84784   0.00000  Uiso   1.00
H173   H     0.96143   0.15833   0.12088   0.00000  Uiso   1.00
H174   H     0.08530   0.28478   0.73897   0.00000  Uiso   1.00
H175   H     0.71168   0.08069   0.80636   0.00000  Uiso   1.00
O176   O     0.95109   0.30018   0.20123   0.00000  Uiso   1.00
O177   O     0.11359   0.46609   0.70017   0.00000  Uiso   1.00
O178   O     0.62341   0.19832   0.78858   0.00000  Uiso   1.00
N179   N     0.92262   0.38536   0.11798   0.00000  Uiso   1.00
N180   N     0.03844   0.50359   0.76092   0.00000  Uiso   1.00
N181   N     0.68914   0.31279   0.82391   0.00000  Uiso   1.00
N182   N     0.94786   0.22725   0.10944   0.00000  Uiso   1.00
N183   N     0.06367   0.34548   0.75238   0.00000  Uiso   1.00
N184   N     0.71437   0.15467   0.81537   0.00000  Uiso   1.00
C185   C     0.61884   0.91448   0.90171   0.00000  Uiso   1.00
C186   C     0.60125   0.86781   0.95923   0.00000  Uiso   1.00
C187   C     0.60052   0.91665   0.01234   0.00000  Uiso   1.00
C188   C     0.58307   0.86086   0.05987   0.00000  Uiso   1.00
C189   C     0.55819   0.80377   0.15000   0.00000  Uiso   1.00
C190   C     0.56933   0.90040   0.86083   0.00000  Uiso   1.00
C191   C     0.54175   0.97664   0.83120   0.00000  Uiso   1.00
C192   C     0.49743   0.94827   0.79589   0.00000  Uiso   1.00
C193   C     0.42301   0.94177   0.73322   0.00000  Uiso   1.00
C194   C     0.66559   0.84782   0.87820   0.00000  Uiso   1.00
C195   C     0.71896   0.87984   0.86316   0.00000  Uiso   1.00
C196   C     0.75569   0.80720   0.84246   0.00000  Uiso   1.00
C197   C     0.83074   0.71905   0.80676   0.00000  Uiso   1.00
C198   C     0.58916   0.72854   0.89167   0.00000  Uiso   1.00
C199   C     0.58513   0.76682   0.95377   0.00000  Uiso   1.00
C200   C     0.56768   0.71093   0.00123   0.00000  Uiso   1.00
C201   C     0.56692   0.75968   0.05441   0.00000  Uiso   1.00
C202   C     0.55321   0.79941   0.85537   0.00000  Uiso   1.00
C203   C     0.50892   0.77091   0.82009   0.00000  Uiso   1.00
C204   C     0.48128   0.84709   0.79043   0.00000  Uiso   1.00
C205   C     0.64948   0.74681   0.87274   0.00000  Uiso   1.00
C206   C     0.68613   0.67411   0.85206   0.00000  Uiso   1.00
C207   C     0.73954   0.70602   0.83700   0.00000  Uiso   1.00
H208   H     0.63138   0.99312   0.90595   0.00000  Uiso   1.00
H209   H     0.61299   0.99482   0.01654   0.00000  Uiso   1.00
H210   H     0.55424   0.05479   0.83543   0.00000  Uiso   1.00
H211   H     0.73142   0.95800   0.86739   0.00000  Uiso   1.00
H212   H     0.58546   0.95218   0.13674   0.00000  Uiso   1.00
H213   H     0.46160   0.07863   0.75483   0.00000  Uiso   1.00
H214   H     0.83522   0.87454   0.82222   0.00000  Uiso   1.00
H215   H     0.57661   0.64990   0.88742   0.00000  Uiso   1.00
H216   H     0.55521   0.63277   0.99700   0.00000  Uiso   1.00
H217   H     0.49646   0.69275   0.81588   0.00000  Uiso   1.00
H218   H     0.67364   0.59596   0.84784   0.00000  Uiso   1.00
H219   H     0.53857   0.65833   0.12088   0.00000  Uiso   1.00
H220   H     0.41470   0.78478   0.73897   0.00000  Uiso   1.00
H221   H     0.78832   0.58069   0.80636   0.00000  Uiso   1.00
O222   O     0.54891   0.80018   0.20123   0.00000  Uiso   1.00
O223   O     0.38641   0.96609   0.70017   0.00000  Uiso   1.00
O224   O     0.87659   0.69832   0.78858   0.00000  Uiso   1.00
N225   N     0.57738   0.88536   0.11798   0.00000  Uiso   1.00
N226   N     0.46156   0.00359   0.76092   0.00000  Uiso   1.00
N227   N     0.81086   0.81279   0.82391   0.00000  Uiso   1.00
N228   N     0.55214   0.72725   0.10944   0.00000  Uiso   1.00
N229   N     0.43633   0.84548   0.75238   0.00000  Uiso   1.00
N230   N     0.78563   0.65467   0.81537   0.00000  Uiso   1.00
C231   C     0.88116   0.08552   0.40171   0.00000  Uiso   1.00
C232   C     0.89875   0.13219   0.45923   0.00000  Uiso   1.00
C233   C     0.89948   0.08335   0.51234   0.00000  Uiso   1.00
C234   C     0.91693   0.13914   0.55987   0.00000  Uiso   1.00
C235   C     0.94181   0.19623   0.65000   0.00000  Uiso   1.00
C236   C     0.93067   0.09960   0.36083   0.00000  Uiso   1.00
C237   C     0.95825   0.02336   0.33120   0.00000  Uiso   1.00
C238   C     0.00257   0.05173   0.29589   0.00000  Uiso   1.00
C239   C     0.07699   0.05823   0.23322   0.00000  Uiso   1.00
C240   C     0.83441   0.15218   0.37820   0.00000  Uiso   1.00
C241   C     0.78104   0.12016   0.36316   0.00000  Uiso   1.00
C242   C     0.74431   0.19280   0.34246   0.00000  Uiso   1.00
C243   C     0.66926   0.28095   0.30676   0.00000  Uiso   1.00
C244   C     0.91084   0.27146   0.39167   0.00000  Uiso   1.00
C245   C     0.91487   0.23318   0.45377   0.00000  Uiso   1.00
C246   C     0.93232   0.28907   0.50123   0.00000  Uiso   1.00
C247   C     0.93308   0.24032   0.55441   0.00000  Uiso   1.00
C248   C     0.94679   0.20059   0.35537   0.00000  Uiso   1.00
C249   C     0.99108   0.22909   0.32009   0.00000  Uiso   1.00
C250   C     0.01872   0.15291   0.29043   0.00000  Uiso   1.00
C251   C     0.85052   0.25319   0.37274   0.00000  Uiso   1.00
C252   C     0.81387   0.32589   0.35206   0.00000  Uiso   1.00
C253   C     0.76046   0.29398   0.33700   0.00000  Uiso   1.00
H254   H     0.86862   0.00688   0.40595   0.00000  Uiso   1.00
H255   H     0.88701   0.00518   0.51654   0.00000  Uiso   1.00
H256   H     0.94576   0.94521   0.33543   0.00000  Uiso   1.00
H257   H     0.76858   0.04200   0.36739   0.00000  Uiso   1.00
H258   H     0.91454   0.04782   0.63674   0.00000  Uiso   1.00
H259   H     0.03840   0.92137   0.25483   0.00000  Uiso   1.00
H260   H     0.66478   0.12546   0.32222   0.00000  Uiso   1.00
H261   H     0.92339   0.35010   0.38742   0.00000  Uiso   1.00
H262   H     0.94479   0.36723   0.49700   0.00000  Uiso   1.00
H263   H     0.00354   0.30725   0.31588   0.00000  Uiso   1.00
H264   H     0.82636   0.40404   0.34784   0.00000  Uiso   1.00
H265   H     0.96143   0.34167   0.62088   0.00000  Uiso   1.00
H266   H     0.08530   0.21522   0.23897   0.00000  Uiso   1.00
H267   H     0.71168   0.41931   0.30636   0.00000  Uiso   1.00
O268   O     0.95109   0.19982   0.70123   0.00000  Uiso   1.00
O269   O     0.11359   0.03391   0.20017   0.00000  Uiso   1.00
O270   O     0.62341   0.30168   0.28858   0.00000  Uiso   1.00
N271   N     0.92262   0.11464   0.61798   0.00000  Uiso   1.00
N272   N     0.03844   0.99641   0.26092   0.00000  Uiso   1.00
N273   N     0.68914   0.18721   0.32391   0.00000  Uiso   1.00
N274   N     0.94786   0.27275   0.60944   0.00000  Uiso   1.00
N275   N     0.06367   0.15452   0.25238   0.00000  Uiso   1.00
N276   N     0.71437   0.34533   0.31537   0.00000  Uiso   1.00
C277   C     0.38116   0.41448   0.59829   0.00000  Uiso   1.00
C278   C     0.39875   0.36781   0.54077   0.00000  Uiso   1.00
C279   C     0.39948   0.41665   0.48766   0.00000  Uiso   1.00
C280   C     0.41693   0.36086   0.44013   0.00000  Uiso   1.00
C281   C     0.44181   0.30377   0.35000   0.00000  Uiso   1.00
C282   C     0.43067   0.40040   0.63917   0.00000  Uiso   1.00
C283   C     0.45825   0.47664   0.66880   0.00000  Uiso   1.00
C284   C     0.50257   0.44827   0.70411   0.00000  Uiso   1.00
C285   C     0.57699   0.44177   0.76678   0.00000  Uiso   1.00
C286   C     0.33441   0.34782   0.62180   0.00000  Uiso   1.00
C287   C     0.28104   0.37984   0.63684   0.00000  Uiso   1.00
C288   C     0.24431   0.30720   0.65754   0.00000  Uiso   1.00
C289   C     0.16926   0.21905   0.69324   0.00000  Uiso   1.00
C290   C     0.41084   0.22854   0.60833   0.00000  Uiso   1.00
C291   C     0.41487   0.26682   0.54623   0.00000  Uiso   1.00
C292   C     0.43232   0.21093   0.49877   0.00000  Uiso   1.00
C293   C     0.43308   0.25968   0.44559   0.00000  Uiso   1.00
C294   C     0.44679   0.29941   0.64463   0.00000  Uiso   1.00
C295   C     0.49108   0.27091   0.67991   0.00000  Uiso   1.00
C296   C     0.51872   0.34709   0.70957   0.00000  Uiso   1.00
C297   C     0.35052   0.24681   0.62726   0.00000  Uiso   1.00
C298   C     0.31387   0.17411   0.64794   0.00000  Uiso   1.00
C299   C     0.26046   0.20602   0.66300   0.00000  Uiso   1.00
H300   H     0.36862   0.49312   0.59405   0.00000  Uiso   1.00
H301   H     0.38701   0.49482   0.48346   0.00000  Uiso   1.00
H302   H     0.44576   0.55479   0.66457   0.00000  Uiso   1.00
H303   H     0.26858   0.45800   0.63261   0.00000  Uiso   1.00
H304   H     0.41454   0.45218   0.36326   0.00000  Uiso   1.00
H305   H     0.53840   0.57863   0.74517   0.00000  Uiso   1.00
H306   H     0.16478   0.37454   0.67778   0.00000  Uiso   1.00
H307   H     0.42339   0.14990   0.61258   0.00000  Uiso   1.00
H308   H     0.44479   0.13277   0.50300   0.00000  Uiso   1.00
H309   H     0.50354   0.19275   0.68412   0.00000  Uiso   1.00
H310   H     0.32636   0.09596   0.65216   0.00000  Uiso   1.00
H311   H     0.46143   0.15833   0.37912   0.00000  Uiso   1.00
H312   H     0.58530   0.28478   0.76103   0.00000  Uiso   1.00
H313   H     0.21168   0.08069   0.69364   0.00000  Uiso   1.00
O314   O     0.45109   0.30018   0.29877   0.00000  Uiso   1.00
O315   O     0.61359   0.46609   0.79983   0.00000  Uiso   1.00
O316   O     0.12341   0.19832   0.71142   0.00000  Uiso   1.00
N317   N     0.42262   0.38536   0.38202   0.00000  Uiso   1.00
N318   N     0.53844   0.50359   0.73908   0.00000  Uiso   1.00
N319   N     0.18914   0.31279   0.67609   0.00000  Uiso   1.00
N320   N     0.44786   0.22725   0.39056   0.00000  Uiso   1.00
N321   N     0.56367   0.34548   0.74762   0.00000  Uiso   1.00
N322   N     0.21437   0.15467   0.68463   0.00000  Uiso   1.00
C323   C     0.11884   0.58552   0.09829   0.00000  Uiso   1.00
C324   C     0.10125   0.63219   0.04077   0.00000  Uiso   1.00
C325   C     0.10052   0.58335   0.98766   0.00000  Uiso   1.00
C326   C     0.08307   0.63914   0.94013   0.00000  Uiso   1.00
C327   C     0.05819   0.69623   0.85000   0.00000  Uiso   1.00
C328   C     0.06933   0.59960   0.13917   0.00000  Uiso   1.00
C329   C     0.04175   0.52336   0.16880   0.00000  Uiso   1.00
C330   C     0.99743   0.55173   0.20411   0.00000  Uiso   1.00
C331   C     0.92301   0.55823   0.26678   0.00000  Uiso   1.00
C332   C     0.16559   0.65218   0.12180   0.00000  Uiso   1.00
C333   C     0.21896   0.62016   0.13684   0.00000  Uiso   1.00
C334   C     0.25569   0.69280   0.15754   0.00000  Uiso   1.00
C335   C     0.33074   0.78095   0.19324   0.00000  Uiso   1.00
C336   C     0.08916   0.77146   0.10833   0.00000  Uiso   1.00
C337   C     0.08513   0.73318   0.04623   0.00000  Uiso   1.00
C338   C     0.06768   0.78907   0.99877   0.00000  Uiso   1.00
C339   C     0.06692   0.74032   0.94559   0.00000  Uiso   1.00
C340   C     0.05321   0.70059   0.14463   0.00000  Uiso   1.00
C341   C     0.00892   0.72909   0.17991   0.00000  Uiso   1.00
C342   C     0.98128   0.65291   0.20957   0.00000  Uiso   1.00
C343   C     0.14948   0.75319   0.12726   0.00000  Uiso   1.00
C344   C     0.18613   0.82589   0.14794   0.00000  Uiso   1.00
C345   C     0.23954   0.79398   0.16300   0.00000  Uiso   1.00
H346   H     0.13138   0.50688   0.09405   0.00000  Uiso   1.00
H347   H     0.11299   0.50518   0.98346   0.00000  Uiso   1.00
H348   H     0.05424   0.44521   0.16457   0.00000  Uiso   1.00
H349   H     0.23142   0.54200   0.13261   0.00000  Uiso   1.00
H350   H     0.08546   0.54782   0.86326   0.00000  Uiso   1.00
H351   H     0.96160   0.42137   0.24517   0.00000  Uiso   1.00
H352   H     0.33522   0.62546   0.17778   0.00000  Uiso   1.00
H353   H     0.07661   0.85010   0.11258   0.00000  Uiso   1.00
H354   H     0.05521   0.86723   0.00300   0.00000  Uiso   1.00
H355   H     0.99646   0.80725   0.18412   0.00000  Uiso   1.00
H356   H     0.17364   0.90404   0.15216   0.00000  Uiso   1.00
H357   H     0.03857   0.84167   0.87912   0.00000  Uiso   1.00
H358   H     0.91470   0.71522   0.26103   0.00000  Uiso   1.00
H359   H     0.28832   0.91931   0.19364   0.00000  Uiso   1.00
O360   O     0.04891   0.69982   0.79877   0.00000  Uiso   1.00
O361   O     0.88641   0.53391   0.29983   0.00000  Uiso   1.00
O362   O     0.37659   0.80168   0.21142   0.00000  Uiso   1.00
N363   N     0.07738   0.61464   0.88202   0.00000  Uiso   1.00
N364   N     0.96156   0.49641   0.23908   0.00000  Uiso   1.00
N365   N     0.31086   0.68721   0.17609   0.00000  Uiso   1.00
N366   N     0.05214   0.77275   0.89056   0.00000  Uiso   1.00
N367   N     0.93633   0.65452   0.24762   0.00000  Uiso   1.00
N368   N     0.28563   0.84533   0.18463   0.00000  Uiso   1.00
