data_job_00388
_audit_creation_date              2018-12-19
_audit_creation_method            'Materials Studio'
_symmetry_space_group_name_H-M    'P1'
_symmetry_Int_Tables_number       1
_symmetry_cell_setting            triclinic
loop_
_symmetry_equiv_pos_as_xyz
  x,y,z
_cell_length_a                    17.5971
_cell_length_b                    21.5425
_cell_length_c                    14.9321
_cell_angle_alpha                 90.0000
_cell_angle_beta                  90.0000
_cell_angle_gamma                 90.0000
loop_
_atom_site_label
_atom_site_type_symbol
_atom_site_fract_x
_atom_site_fract_y
_atom_site_fract_z
_atom_site_U_iso_or_equiv
_atom_site_adp_type
_atom_site_occupancy
C1     C     0.56414   0.41974   0.70290   0.00000  Uiso   1.00
C2     C     0.56779   0.37296   0.77943   0.00000  Uiso   1.00
C3     C     0.63003   0.33641   0.80123   0.00000  Uiso   1.00
C4     C     0.62201   0.29649   0.87362   0.00000  Uiso   1.00
C5     C     0.63798   0.22431   0.98499   0.00000  Uiso   1.00
C6     C     0.49648   0.40060   0.64538   0.00000  Uiso   1.00
C7     C     0.49878   0.38729   0.55448   0.00000  Uiso   1.00
C8     C     0.43073   0.37065   0.51402   0.00000  Uiso   1.00
C9     C     0.33599   0.34143   0.41726   0.00000  Uiso   1.00
C10    C     0.54252   0.48163   0.74542   0.00000  Uiso   1.00
C11    C     0.58351   0.53646   0.73862   0.00000  Uiso   1.00
C12    C     0.55420   0.58805   0.78238   0.00000  Uiso   1.00
C13    C     0.53095   0.68463   0.84097   0.00000  Uiso   1.00
C14    C     0.43919   0.41385   0.79268   0.00000  Uiso   1.00
C15    C     0.49992   0.36976   0.82818   0.00000  Uiso   1.00
C16    C     0.49179   0.32989   0.90056   0.00000  Uiso   1.00
C17    C     0.55402   0.29329   0.92247   0.00000  Uiso   1.00
C18    C     0.42862   0.39740   0.69413   0.00000  Uiso   1.00
C19    C     0.36054   0.38078   0.65380   0.00000  Uiso   1.00
C20    C     0.36273   0.36745   0.56286   0.00000  Uiso   1.00
C21    C     0.47465   0.47843   0.79419   0.00000  Uiso   1.00
C22    C     0.44527   0.52994   0.83795   0.00000  Uiso   1.00
C23    C     0.48621   0.58484   0.83123   0.00000  Uiso   1.00
H24    H     0.61698   0.42223   0.66494   0.00000  Uiso   1.00
H25    H     0.68255   0.33889   0.76348   0.00000  Uiso   1.00
H26    H     0.55131   0.38978   0.51676   0.00000  Uiso   1.00
H27    H     0.63603   0.53892   0.70089   0.00000  Uiso   1.00
H28    H     0.72530   0.24507   0.89421   0.00000  Uiso   1.00
H29    H     0.44858   0.35238   0.37398   0.00000  Uiso   1.00
H30    H     0.62723   0.66688   0.76225   0.00000  Uiso   1.00
H31    H     0.38635   0.41136   0.83064   0.00000  Uiso   1.00
H32    H     0.43926   0.32742   0.93828   0.00000  Uiso   1.00
H33    H     0.30803   0.37831   0.69155   0.00000  Uiso   1.00
H34    H     0.39275   0.52745   0.87568   0.00000  Uiso   1.00
H35    H     0.52784   0.23576   0.03608   0.00000  Uiso   1.00
H36    H     0.25112   0.34308   0.51585   0.00000  Uiso   1.00
H37    H     0.42977   0.65757   0.90412   0.00000  Uiso   1.00
O38    O     0.66553   0.18538   0.03294   0.00000  Uiso   1.00
O39    O     0.30249   0.32619   0.35042   0.00000  Uiso   1.00
O40    O     0.53687   0.73879   0.85982   0.00000  Uiso   1.00
N41    N     0.67157   0.25440   0.91284   0.00000  Uiso   1.00
N42    N     0.41286   0.35473   0.42646   0.00000  Uiso   1.00
N43    N     0.57987   0.64876   0.78943   0.00000  Uiso   1.00
N44    N     0.56532   0.24940   0.98918   0.00000  Uiso   1.00
N45    N     0.30661   0.34972   0.50280   0.00000  Uiso   1.00
N46    N     0.47362   0.64375   0.86577   0.00000  Uiso   1.00
C47    C     0.93586   0.58026   0.70290   0.00000  Uiso   1.00
C48    C     0.93221   0.62704   0.77943   0.00000  Uiso   1.00
C49    C     0.86997   0.66359   0.80123   0.00000  Uiso   1.00
C50    C     0.87799   0.70351   0.87362   0.00000  Uiso   1.00
C51    C     0.86202   0.77569   0.98499   0.00000  Uiso   1.00
C52    C     0.00352   0.59940   0.64538   0.00000  Uiso   1.00
C53    C     0.00122   0.61271   0.55448   0.00000  Uiso   1.00
C54    C     0.06927   0.62935   0.51402   0.00000  Uiso   1.00
C55    C     0.16401   0.65857   0.41726   0.00000  Uiso   1.00
C56    C     0.95748   0.51837   0.74542   0.00000  Uiso   1.00
C57    C     0.91649   0.46354   0.73862   0.00000  Uiso   1.00
C58    C     0.94580   0.41195   0.78238   0.00000  Uiso   1.00
C59    C     0.96905   0.31537   0.84097   0.00000  Uiso   1.00
C60    C     0.06081   0.58615   0.79268   0.00000  Uiso   1.00
C61    C     0.00008   0.63024   0.82818   0.00000  Uiso   1.00
C62    C     0.00821   0.67011   0.90056   0.00000  Uiso   1.00
C63    C     0.94598   0.70671   0.92247   0.00000  Uiso   1.00
C64    C     0.07138   0.60260   0.69413   0.00000  Uiso   1.00
C65    C     0.13946   0.61922   0.65380   0.00000  Uiso   1.00
C66    C     0.13727   0.63255   0.56286   0.00000  Uiso   1.00
C67    C     0.02535   0.52157   0.79419   0.00000  Uiso   1.00
C68    C     0.05473   0.47006   0.83795   0.00000  Uiso   1.00
C69    C     0.01379   0.41516   0.83123   0.00000  Uiso   1.00
H70    H     0.88302   0.57777   0.66494   0.00000  Uiso   1.00
H71    H     0.81745   0.66111   0.76348   0.00000  Uiso   1.00
H72    H     0.94869   0.61022   0.51676   0.00000  Uiso   1.00
H73    H     0.86397   0.46108   0.70089   0.00000  Uiso   1.00
H74    H     0.77470   0.75493   0.89421   0.00000  Uiso   1.00
H75    H     0.05142   0.64762   0.37398   0.00000  Uiso   1.00
H76    H     0.87277   0.33312   0.76225   0.00000  Uiso   1.00
H77    H     0.11365   0.58864   0.83064   0.00000  Uiso   1.00
H78    H     0.06074   0.67258   0.93828   0.00000  Uiso   1.00
H79    H     0.19197   0.62169   0.69155   0.00000  Uiso   1.00
H80    H     0.10725   0.47255   0.87568   0.00000  Uiso   1.00
H81    H     0.97216   0.76424   0.03608   0.00000  Uiso   1.00
H82    H     0.24888   0.65692   0.51585   0.00000  Uiso   1.00
H83    H     0.07023   0.34243   0.90412   0.00000  Uiso   1.00
O84    O     0.83447   0.81462   0.03294   0.00000  Uiso   1.00
O85    O     0.19751   0.67381   0.35042   0.00000  Uiso   1.00
O86    O     0.96313   0.26121   0.85982   0.00000  Uiso   1.00
N87    N     0.82843   0.74560   0.91284   0.00000  Uiso   1.00
N88    N     0.08714   0.64527   0.42646   0.00000  Uiso   1.00
N89    N     0.92013   0.35124   0.78943   0.00000  Uiso   1.00
N90    N     0.93468   0.75060   0.98918   0.00000  Uiso   1.00
N91    N     0.19339   0.65028   0.50280   0.00000  Uiso   1.00
N92    N     0.02638   0.35625   0.86577   0.00000  Uiso   1.00
C93    C     0.93586   0.91974   0.79710   0.00000  Uiso   1.00
C94    C     0.93221   0.87296   0.72057   0.00000  Uiso   1.00
C95    C     0.86997   0.83641   0.69877   0.00000  Uiso   1.00
C96    C     0.87799   0.79649   0.62638   0.00000  Uiso   1.00
C97    C     0.86202   0.72431   0.51501   0.00000  Uiso   1.00
C98    C     0.00352   0.90060   0.85462   0.00000  Uiso   1.00
C99    C     0.00122   0.88729   0.94552   0.00000  Uiso   1.00
C100   C     0.06927   0.87065   0.98598   0.00000  Uiso   1.00
C101   C     0.16401   0.84143   0.08274   0.00000  Uiso   1.00
C102   C     0.95748   0.98163   0.75458   0.00000  Uiso   1.00
C103   C     0.91649   0.03646   0.76138   0.00000  Uiso   1.00
C104   C     0.94580   0.08805   0.71762   0.00000  Uiso   1.00
C105   C     0.96905   0.18463   0.65903   0.00000  Uiso   1.00
C106   C     0.06081   0.91385   0.70732   0.00000  Uiso   1.00
C107   C     0.00008   0.86976   0.67182   0.00000  Uiso   1.00
C108   C     0.00821   0.82989   0.59944   0.00000  Uiso   1.00
C109   C     0.94598   0.79329   0.57753   0.00000  Uiso   1.00
C110   C     0.07138   0.89740   0.80587   0.00000  Uiso   1.00
C111   C     0.13946   0.88078   0.84620   0.00000  Uiso   1.00
C112   C     0.13727   0.86745   0.93714   0.00000  Uiso   1.00
C113   C     0.02535   0.97843   0.70581   0.00000  Uiso   1.00
C114   C     0.05473   0.02994   0.66205   0.00000  Uiso   1.00
C115   C     0.01379   0.08484   0.66877   0.00000  Uiso   1.00
H116   H     0.88302   0.92223   0.83506   0.00000  Uiso   1.00
H117   H     0.81745   0.83889   0.73652   0.00000  Uiso   1.00
H118   H     0.94869   0.88978   0.98324   0.00000  Uiso   1.00
H119   H     0.86397   0.03892   0.79911   0.00000  Uiso   1.00
H120   H     0.77470   0.74507   0.60579   0.00000  Uiso   1.00
H121   H     0.05142   0.85238   0.12602   0.00000  Uiso   1.00
H122   H     0.87277   0.16688   0.73775   0.00000  Uiso   1.00
H123   H     0.11365   0.91136   0.66936   0.00000  Uiso   1.00
H124   H     0.06074   0.82742   0.56172   0.00000  Uiso   1.00
H125   H     0.19197   0.87831   0.80845   0.00000  Uiso   1.00
H126   H     0.10725   0.02745   0.62432   0.00000  Uiso   1.00
H127   H     0.97216   0.73576   0.46392   0.00000  Uiso   1.00
H128   H     0.24888   0.84308   0.98415   0.00000  Uiso   1.00
H129   H     0.07023   0.15757   0.59588   0.00000  Uiso   1.00
O130   O     0.83447   0.68538   0.46706   0.00000  Uiso   1.00
O131   O     0.19751   0.82619   0.14958   0.00000  Uiso   1.00
O132   O     0.96313   0.23879   0.64018   0.00000  Uiso   1.00
N133   N     0.82843   0.75440   0.58716   0.00000  Uiso   1.00
N134   N     0.08714   0.85473   0.07354   0.00000  Uiso   1.00
N135   N     0.92013   0.14876   0.71057   0.00000  Uiso   1.00
N136   N     0.93468   0.74940   0.51082   0.00000  Uiso   1.00
N137   N     0.19339   0.84972   0.99720   0.00000  Uiso   1.00
N138   N     0.02638   0.14375   0.63423   0.00000  Uiso   1.00
C139   C     0.56414   0.08026   0.79710   0.00000  Uiso   1.00
C140   C     0.56779   0.12704   0.72057   0.00000  Uiso   1.00
C141   C     0.63003   0.16359   0.69877   0.00000  Uiso   1.00
C142   C     0.62201   0.20351   0.62638   0.00000  Uiso   1.00
C143   C     0.63798   0.27569   0.51501   0.00000  Uiso   1.00
C144   C     0.49648   0.09940   0.85462   0.00000  Uiso   1.00
C145   C     0.49878   0.11271   0.94552   0.00000  Uiso   1.00
C146   C     0.43073   0.12935   0.98598   0.00000  Uiso   1.00
C147   C     0.33599   0.15857   0.08274   0.00000  Uiso   1.00
C148   C     0.54252   0.01837   0.75458   0.00000  Uiso   1.00
C149   C     0.58351   0.96354   0.76138   0.00000  Uiso   1.00
C150   C     0.55420   0.91195   0.71762   0.00000  Uiso   1.00
C151   C     0.53095   0.81537   0.65903   0.00000  Uiso   1.00
C152   C     0.43919   0.08615   0.70732   0.00000  Uiso   1.00
C153   C     0.49992   0.13024   0.67182   0.00000  Uiso   1.00
C154   C     0.49179   0.17011   0.59944   0.00000  Uiso   1.00
C155   C     0.55402   0.20671   0.57753   0.00000  Uiso   1.00
C156   C     0.42862   0.10260   0.80587   0.00000  Uiso   1.00
C157   C     0.36054   0.11922   0.84620   0.00000  Uiso   1.00
C158   C     0.36273   0.13255   0.93714   0.00000  Uiso   1.00
C159   C     0.47465   0.02157   0.70581   0.00000  Uiso   1.00
C160   C     0.44527   0.97006   0.66205   0.00000  Uiso   1.00
C161   C     0.48621   0.91516   0.66877   0.00000  Uiso   1.00
H162   H     0.61698   0.07777   0.83506   0.00000  Uiso   1.00
H163   H     0.68255   0.16111   0.73652   0.00000  Uiso   1.00
H164   H     0.55131   0.11022   0.98324   0.00000  Uiso   1.00
H165   H     0.63603   0.96108   0.79911   0.00000  Uiso   1.00
H166   H     0.72530   0.25493   0.60579   0.00000  Uiso   1.00
H167   H     0.44858   0.14762   0.12602   0.00000  Uiso   1.00
H168   H     0.62723   0.83312   0.73775   0.00000  Uiso   1.00
H169   H     0.38635   0.08864   0.66936   0.00000  Uiso   1.00
H170   H     0.43926   0.17258   0.56172   0.00000  Uiso   1.00
H171   H     0.30803   0.12169   0.80845   0.00000  Uiso   1.00
H172   H     0.39275   0.97255   0.62432   0.00000  Uiso   1.00
H173   H     0.52784   0.26424   0.46392   0.00000  Uiso   1.00
H174   H     0.25112   0.15692   0.98415   0.00000  Uiso   1.00
H175   H     0.42977   0.84243   0.59588   0.00000  Uiso   1.00
O176   O     0.66553   0.31462   0.46706   0.00000  Uiso   1.00
O177   O     0.30249   0.17381   0.14958   0.00000  Uiso   1.00
O178   O     0.53687   0.76121   0.64018   0.00000  Uiso   1.00
N179   N     0.67157   0.24560   0.58716   0.00000  Uiso   1.00
N180   N     0.41286   0.14527   0.07354   0.00000  Uiso   1.00
N181   N     0.57987   0.85124   0.71057   0.00000  Uiso   1.00
N182   N     0.56532   0.25060   0.51082   0.00000  Uiso   1.00
N183   N     0.30661   0.15028   0.99720   0.00000  Uiso   1.00
N184   N     0.47362   0.85625   0.63423   0.00000  Uiso   1.00
C185   C     0.43586   0.58026   0.29710   0.00000  Uiso   1.00
C186   C     0.43221   0.62704   0.22057   0.00000  Uiso   1.00
C187   C     0.36997   0.66359   0.19877   0.00000  Uiso   1.00
C188   C     0.37799   0.70351   0.12638   0.00000  Uiso   1.00
C189   C     0.36202   0.77569   0.01501   0.00000  Uiso   1.00
C190   C     0.50352   0.59940   0.35462   0.00000  Uiso   1.00
C191   C     0.50122   0.61271   0.44552   0.00000  Uiso   1.00
C192   C     0.56927   0.62935   0.48598   0.00000  Uiso   1.00
C193   C     0.66401   0.65857   0.58274   0.00000  Uiso   1.00
C194   C     0.45748   0.51837   0.25458   0.00000  Uiso   1.00
C195   C     0.41649   0.46354   0.26138   0.00000  Uiso   1.00
C196   C     0.44580   0.41195   0.21762   0.00000  Uiso   1.00
C197   C     0.46905   0.31537   0.15903   0.00000  Uiso   1.00
C198   C     0.56081   0.58615   0.20732   0.00000  Uiso   1.00
C199   C     0.50008   0.63024   0.17182   0.00000  Uiso   1.00
C200   C     0.50821   0.67011   0.09944   0.00000  Uiso   1.00
C201   C     0.44598   0.70671   0.07753   0.00000  Uiso   1.00
C202   C     0.57138   0.60260   0.30587   0.00000  Uiso   1.00
C203   C     0.63946   0.61922   0.34620   0.00000  Uiso   1.00
C204   C     0.63727   0.63255   0.43714   0.00000  Uiso   1.00
C205   C     0.52535   0.52157   0.20581   0.00000  Uiso   1.00
C206   C     0.55473   0.47006   0.16205   0.00000  Uiso   1.00
C207   C     0.51379   0.41516   0.16877   0.00000  Uiso   1.00
H208   H     0.38302   0.57777   0.33506   0.00000  Uiso   1.00
H209   H     0.31745   0.66111   0.23652   0.00000  Uiso   1.00
H210   H     0.44869   0.61022   0.48324   0.00000  Uiso   1.00
H211   H     0.36397   0.46108   0.29911   0.00000  Uiso   1.00
H212   H     0.27470   0.75493   0.10579   0.00000  Uiso   1.00
H213   H     0.55142   0.64762   0.62602   0.00000  Uiso   1.00
H214   H     0.37277   0.33312   0.23775   0.00000  Uiso   1.00
H215   H     0.61365   0.58864   0.16936   0.00000  Uiso   1.00
H216   H     0.56074   0.67258   0.06172   0.00000  Uiso   1.00
H217   H     0.69197   0.62169   0.30845   0.00000  Uiso   1.00
H218   H     0.60725   0.47255   0.12432   0.00000  Uiso   1.00
H219   H     0.47216   0.76424   0.96392   0.00000  Uiso   1.00
H220   H     0.74888   0.65692   0.48415   0.00000  Uiso   1.00
H221   H     0.57023   0.34243   0.09588   0.00000  Uiso   1.00
O222   O     0.33447   0.81462   0.96706   0.00000  Uiso   1.00
O223   O     0.69751   0.67381   0.64958   0.00000  Uiso   1.00
O224   O     0.46313   0.26121   0.14018   0.00000  Uiso   1.00
N225   N     0.32843   0.74560   0.08716   0.00000  Uiso   1.00
N226   N     0.58714   0.64527   0.57354   0.00000  Uiso   1.00
N227   N     0.42013   0.35124   0.21057   0.00000  Uiso   1.00
N228   N     0.43468   0.75060   0.01082   0.00000  Uiso   1.00
N229   N     0.69339   0.65028   0.49720   0.00000  Uiso   1.00
N230   N     0.52638   0.35625   0.13423   0.00000  Uiso   1.00
C231   C     0.06414   0.41974   0.29710   0.00000  Uiso   1.00
C232   C     0.06779   0.37296   0.22057   0.00000  Uiso   1.00
C233   C     0.13003   0.33641   0.19877   0.00000  Uiso   1.00
C234   C     0.12201   0.29649   0.12638   0.00000  Uiso   1.00
C235   C     0.13798   0.22431   0.01501   0.00000  Uiso   1.00
C236   C     0.99648   0.40060   0.35462   0.00000  Uiso   1.00
C237   C     0.99878   0.38729   0.44552   0.00000  Uiso   1.00
C238   C     0.93073   0.37065   0.48598   0.00000  Uiso   1.00
C239   C     0.83599   0.34143   0.58274   0.00000  Uiso   1.00
C240   C     0.04252   0.48163   0.25458   0.00000  Uiso   1.00
C241   C     0.08351   0.53646   0.26138   0.00000  Uiso   1.00
C242   C     0.05420   0.58805   0.21762   0.00000  Uiso   1.00
C243   C     0.03095   0.68463   0.15903   0.00000  Uiso   1.00
C244   C     0.93919   0.41385   0.20732   0.00000  Uiso   1.00
C245   C     0.99992   0.36976   0.17182   0.00000  Uiso   1.00
C246   C     0.99179   0.32989   0.09944   0.00000  Uiso   1.00
C247   C     0.05402   0.29329   0.07753   0.00000  Uiso   1.00
C248   C     0.92862   0.39740   0.30587   0.00000  Uiso   1.00
C249   C     0.86054   0.38078   0.34620   0.00000  Uiso   1.00
C250   C     0.86273   0.36745   0.43714   0.00000  Uiso   1.00
C251   C     0.97465   0.47843   0.20581   0.00000  Uiso   1.00
C252   C     0.94527   0.52994   0.16205   0.00000  Uiso   1.00
C253   C     0.98621   0.58484   0.16877   0.00000  Uiso   1.00
H254   H     0.11698   0.42223   0.33506   0.00000  Uiso   1.00
H255   H     0.18255   0.33889   0.23652   0.00000  Uiso   1.00
H256   H     0.05131   0.38978   0.48324   0.00000  Uiso   1.00
H257   H     0.13603   0.53892   0.29911   0.00000  Uiso   1.00
H258   H     0.22530   0.24507   0.10579   0.00000  Uiso   1.00
H259   H     0.94858   0.35238   0.62602   0.00000  Uiso   1.00
H260   H     0.12723   0.66688   0.23775   0.00000  Uiso   1.00
H261   H     0.88635   0.41136   0.16936   0.00000  Uiso   1.00
H262   H     0.93926   0.32742   0.06172   0.00000  Uiso   1.00
H263   H     0.80803   0.37831   0.30845   0.00000  Uiso   1.00
H264   H     0.89275   0.52745   0.12432   0.00000  Uiso   1.00
H265   H     0.02784   0.23576   0.96392   0.00000  Uiso   1.00
H266   H     0.75112   0.34308   0.48415   0.00000  Uiso   1.00
H267   H     0.92977   0.65757   0.09588   0.00000  Uiso   1.00
O268   O     0.16553   0.18538   0.96706   0.00000  Uiso   1.00
O269   O     0.80249   0.32619   0.64958   0.00000  Uiso   1.00
O270   O     0.03687   0.73879   0.14018   0.00000  Uiso   1.00
N271   N     0.17157   0.25440   0.08716   0.00000  Uiso   1.00
N272   N     0.91286   0.35473   0.57354   0.00000  Uiso   1.00
N273   N     0.07987   0.64876   0.21057   0.00000  Uiso   1.00
N274   N     0.06532   0.24940   0.01082   0.00000  Uiso   1.00
N275   N     0.80661   0.34972   0.49720   0.00000  Uiso   1.00
N276   N     0.97362   0.64375   0.13423   0.00000  Uiso   1.00
C277   C     0.06414   0.08026   0.20290   0.00000  Uiso   1.00
C278   C     0.06779   0.12704   0.27943   0.00000  Uiso   1.00
C279   C     0.13003   0.16359   0.30123   0.00000  Uiso   1.00
C280   C     0.12201   0.20351   0.37362   0.00000  Uiso   1.00
C281   C     0.13798   0.27569   0.48499   0.00000  Uiso   1.00
C282   C     0.99648   0.09940   0.14538   0.00000  Uiso   1.00
C283   C     0.99878   0.11271   0.05448   0.00000  Uiso   1.00
C284   C     0.93073   0.12935   0.01402   0.00000  Uiso   1.00
C285   C     0.83599   0.15857   0.91726   0.00000  Uiso   1.00
C286   C     0.04252   0.01837   0.24542   0.00000  Uiso   1.00
C287   C     0.08351   0.96354   0.23862   0.00000  Uiso   1.00
C288   C     0.05420   0.91195   0.28238   0.00000  Uiso   1.00
C289   C     0.03095   0.81537   0.34097   0.00000  Uiso   1.00
C290   C     0.93919   0.08615   0.29268   0.00000  Uiso   1.00
C291   C     0.99992   0.13024   0.32818   0.00000  Uiso   1.00
C292   C     0.99179   0.17011   0.40056   0.00000  Uiso   1.00
C293   C     0.05402   0.20671   0.42247   0.00000  Uiso   1.00
C294   C     0.92862   0.10260   0.19413   0.00000  Uiso   1.00
C295   C     0.86054   0.11922   0.15380   0.00000  Uiso   1.00
C296   C     0.86273   0.13255   0.06286   0.00000  Uiso   1.00
C297   C     0.97465   0.02157   0.29419   0.00000  Uiso   1.00
C298   C     0.94527   0.97006   0.33795   0.00000  Uiso   1.00
C299   C     0.98621   0.91516   0.33123   0.00000  Uiso   1.00
H300   H     0.11698   0.07777   0.16494   0.00000  Uiso   1.00
H301   H     0.18255   0.16111   0.26348   0.00000  Uiso   1.00
H302   H     0.05131   0.11022   0.01676   0.00000  Uiso   1.00
H303   H     0.13603   0.96108   0.20089   0.00000  Uiso   1.00
H304   H     0.22530   0.25493   0.39421   0.00000  Uiso   1.00
H305   H     0.94858   0.14762   0.87398   0.00000  Uiso   1.00
H306   H     0.12723   0.83312   0.26225   0.00000  Uiso   1.00
H307   H     0.88635   0.08864   0.33064   0.00000  Uiso   1.00
H308   H     0.93926   0.17258   0.43828   0.00000  Uiso   1.00
H309   H     0.80803   0.12169   0.19155   0.00000  Uiso   1.00
H310   H     0.89275   0.97255   0.37568   0.00000  Uiso   1.00
H311   H     0.02784   0.26424   0.53608   0.00000  Uiso   1.00
H312   H     0.75112   0.15692   0.01585   0.00000  Uiso   1.00
H313   H     0.92977   0.84243   0.40412   0.00000  Uiso   1.00
O314   O     0.16553   0.31462   0.53294   0.00000  Uiso   1.00
O315   O     0.80249   0.17381   0.85042   0.00000  Uiso   1.00
O316   O     0.03687   0.76121   0.35982   0.00000  Uiso   1.00
N317   N     0.17157   0.24560   0.41284   0.00000  Uiso   1.00
N318   N     0.91286   0.14527   0.92646   0.00000  Uiso   1.00
N319   N     0.07987   0.85124   0.28943   0.00000  Uiso   1.00
N320   N     0.06532   0.25060   0.48918   0.00000  Uiso   1.00
N321   N     0.80661   0.15028   0.00280   0.00000  Uiso   1.00
N322   N     0.97362   0.85625   0.36577   0.00000  Uiso   1.00
C323   C     0.43586   0.91974   0.20290   0.00000  Uiso   1.00
C324   C     0.43221   0.87296   0.27943   0.00000  Uiso   1.00
C325   C     0.36997   0.83641   0.30123   0.00000  Uiso   1.00
C326   C     0.37799   0.79649   0.37362   0.00000  Uiso   1.00
C327   C     0.36202   0.72431   0.48499   0.00000  Uiso   1.00
C328   C     0.50352   0.90060   0.14538   0.00000  Uiso   1.00
C329   C     0.50122   0.88729   0.05448   0.00000  Uiso   1.00
C330   C     0.56927   0.87065   0.01402   0.00000  Uiso   1.00
C331   C     0.66401   0.84143   0.91726   0.00000  Uiso   1.00
C332   C     0.45748   0.98163   0.24542   0.00000  Uiso   1.00
C333   C     0.41649   0.03646   0.23862   0.00000  Uiso   1.00
C334   C     0.44580   0.08805   0.28238   0.00000  Uiso   1.00
C335   C     0.46905   0.18463   0.34097   0.00000  Uiso   1.00
C336   C     0.56081   0.91385   0.29268   0.00000  Uiso   1.00
C337   C     0.50008   0.86976   0.32818   0.00000  Uiso   1.00
C338   C     0.50821   0.82989   0.40056   0.00000  Uiso   1.00
C339   C     0.44598   0.79329   0.42247   0.00000  Uiso   1.00
C340   C     0.57138   0.89740   0.19413   0.00000  Uiso   1.00
C341   C     0.63946   0.88078   0.15380   0.00000  Uiso   1.00
C342   C     0.63727   0.86745   0.06286   0.00000  Uiso   1.00
C343   C     0.52535   0.97843   0.29419   0.00000  Uiso   1.00
C344   C     0.55473   0.02994   0.33795   0.00000  Uiso   1.00
C345   C     0.51379   0.08484   0.33123   0.00000  Uiso   1.00
H346   H     0.38302   0.92223   0.16494   0.00000  Uiso   1.00
H347   H     0.31745   0.83889   0.26348   0.00000  Uiso   1.00
H348   H     0.44869   0.88978   0.01676   0.00000  Uiso   1.00
H349   H     0.36397   0.03892   0.20089   0.00000  Uiso   1.00
H350   H     0.27470   0.74507   0.39421   0.00000  Uiso   1.00
H351   H     0.55142   0.85238   0.87398   0.00000  Uiso   1.00
H352   H     0.37277   0.16688   0.26225   0.00000  Uiso   1.00
H353   H     0.61365   0.91136   0.33064   0.00000  Uiso   1.00
H354   H     0.56074   0.82742   0.43828   0.00000  Uiso   1.00
H355   H     0.69197   0.87831   0.19155   0.00000  Uiso   1.00
H356   H     0.60725   0.02745   0.37568   0.00000  Uiso   1.00
H357   H     0.47216   0.73576   0.53608   0.00000  Uiso   1.00
H358   H     0.74888   0.84308   0.01585   0.00000  Uiso   1.00
H359   H     0.57023   0.15757   0.40412   0.00000  Uiso   1.00
O360   O     0.33447   0.68538   0.53294   0.00000  Uiso   1.00
O361   O     0.69751   0.82619   0.85042   0.00000  Uiso   1.00
O362   O     0.46313   0.23879   0.35982   0.00000  Uiso   1.00
N363   N     0.32843   0.75440   0.41284   0.00000  Uiso   1.00
N364   N     0.58714   0.85473   0.92646   0.00000  Uiso   1.00
N365   N     0.42013   0.14876   0.28943   0.00000  Uiso   1.00
N366   N     0.43468   0.74940   0.48918   0.00000  Uiso   1.00
N367   N     0.69339   0.84972   0.00280   0.00000  Uiso   1.00
N368   N     0.52638   0.14375   0.36577   0.00000  Uiso   1.00
