data_job_05888
_audit_creation_date              2018-12-19
_audit_creation_method            'Materials Studio'
_symmetry_space_group_name_H-M    'P1'
_symmetry_Int_Tables_number       1
_symmetry_cell_setting            triclinic
loop_
_symmetry_equiv_pos_as_xyz
  x,y,z
_cell_length_a                    14.8348
_cell_length_b                    14.8348
_cell_length_c                    9.8807
_cell_angle_alpha                 90.0000
_cell_angle_beta                  90.0000
_cell_angle_gamma                 90.0000
loop_
_atom_site_label
_atom_site_type_symbol
_atom_site_fract_x
_atom_site_fract_y
_atom_site_fract_z
_atom_site_U_iso_or_equiv
_atom_site_adp_type
_atom_site_occupancy
C1     C     0.44210   0.81255   0.14118   0.00000  Uiso   1.00
C2     C     0.43460   0.79311   0.29231   0.00000  Uiso   1.00
C3     C     0.40851   0.71177   0.34957   0.00000  Uiso   1.00
C4     C     0.40588   0.70759   0.48989   0.00000  Uiso   1.00
C5     C     0.39074   0.66608   0.71238   0.00000  Uiso   1.00
C6     C     0.38182   0.89389   0.11449   0.00000  Uiso   1.00
C7     C     0.31136   0.89729   0.02222   0.00000  Uiso   1.00
C8     C     0.26431   0.97796   0.01284   0.00000  Uiso   1.00
C9     C     0.16727   0.09294   0.95919   0.00000  Uiso   1.00
C10    C     0.53848   0.84469   0.11774   0.00000  Uiso   1.00
C11    C     0.59975   0.80674   0.02818   0.00000  Uiso   1.00
C12    C     0.68459   0.84599   0.02151   0.00000  Uiso   1.00
C13    C     0.83080   0.88457   0.97290   0.00000  Uiso   1.00
C14    C     0.48384   0.94977   0.28856   0.00000  Uiso   1.00
C15    C     0.45727   0.86765   0.37236   0.00000  Uiso   1.00
C16    C     0.45468   0.86359   0.51263   0.00000  Uiso   1.00
C17    C     0.42860   0.78226   0.57009   0.00000  Uiso   1.00
C18    C     0.40449   0.96842   0.19453   0.00000  Uiso   1.00
C19    C     0.35754   0.04911   0.18528   0.00000  Uiso   1.00
C20    C     0.28702   0.05263   0.09303   0.00000  Uiso   1.00
C21    C     0.56116   0.91922   0.19779   0.00000  Uiso   1.00
C22    C     0.64592   0.95855   0.19124   0.00000  Uiso   1.00
C23    C     0.70730   0.92066   0.10170   0.00000  Uiso   1.00
H24    H     0.42445   0.75453   0.07886   0.00000  Uiso   1.00
H25    H     0.39096   0.65411   0.28759   0.00000  Uiso   1.00
H26    H     0.29384   0.83961   0.96028   0.00000  Uiso   1.00
H27    H     0.58218   0.74906   0.96625   0.00000  Uiso   1.00
H28    H     0.36380   0.57566   0.55431   0.00000  Uiso   1.00
H29    H     0.15903   0.96679   0.86414   0.00000  Uiso   1.00
H30    H     0.76705   0.77586   0.87670   0.00000  Uiso   1.00
H31    H     0.50149   0.00780   0.35088   0.00000  Uiso   1.00
H32    H     0.47223   0.92128   0.57455   0.00000  Uiso   1.00
H33    H     0.37510   0.10677   0.24724   0.00000  Uiso   1.00
H34    H     0.66344   0.01623   0.25320   0.00000  Uiso   1.00
H35    H     0.42975   0.79250   0.78721   0.00000  Uiso   1.00
H36    H     0.22499   0.18364   0.09703   0.00000  Uiso   1.00
H37    H     0.83301   0.99271   0.10961   0.00000  Uiso   1.00
O38    O     0.37611   0.62260   0.81298   0.00000  Uiso   1.00
O39    O     0.10747   0.13576   0.90749   0.00000  Uiso   1.00
O40    O     0.90518   0.88526   0.92398   0.00000  Uiso   1.00
N41    N     0.38335   0.63856   0.57843   0.00000  Uiso   1.00
N42    N     0.19190   0.00424   0.93317   0.00000  Uiso   1.00
N43    N     0.76034   0.82575   0.94490   0.00000  Uiso   1.00
N44    N     0.41885   0.75524   0.70375   0.00000  Uiso   1.00
N45    N     0.22739   0.12093   0.05850   0.00000  Uiso   1.00
N46    N     0.79583   0.94244   0.07022   0.00000  Uiso   1.00
C47    C     0.55790   0.18745   0.64118   0.00000  Uiso   1.00
C48    C     0.56540   0.20689   0.79231   0.00000  Uiso   1.00
C49    C     0.59149   0.28823   0.84957   0.00000  Uiso   1.00
C50    C     0.59412   0.29241   0.98989   0.00000  Uiso   1.00
C51    C     0.60926   0.33392   0.21238   0.00000  Uiso   1.00
C52    C     0.61818   0.10611   0.61449   0.00000  Uiso   1.00
C53    C     0.68864   0.10271   0.52222   0.00000  Uiso   1.00
C54    C     0.73569   0.02204   0.51284   0.00000  Uiso   1.00
C55    C     0.83273   0.90706   0.45919   0.00000  Uiso   1.00
C56    C     0.46152   0.15531   0.61774   0.00000  Uiso   1.00
C57    C     0.40025   0.19326   0.52818   0.00000  Uiso   1.00
C58    C     0.31541   0.15401   0.52151   0.00000  Uiso   1.00
C59    C     0.16920   0.11543   0.47290   0.00000  Uiso   1.00
C60    C     0.51616   0.05023   0.78856   0.00000  Uiso   1.00
C61    C     0.54273   0.13235   0.87236   0.00000  Uiso   1.00
C62    C     0.54532   0.13641   0.01263   0.00000  Uiso   1.00
C63    C     0.57140   0.21774   0.07009   0.00000  Uiso   1.00
C64    C     0.59551   0.03158   0.69453   0.00000  Uiso   1.00
C65    C     0.64246   0.95089   0.68528   0.00000  Uiso   1.00
C66    C     0.71298   0.94737   0.59303   0.00000  Uiso   1.00
C67    C     0.43884   0.08078   0.69779   0.00000  Uiso   1.00
C68    C     0.35408   0.04145   0.69124   0.00000  Uiso   1.00
C69    C     0.29270   0.07934   0.60170   0.00000  Uiso   1.00
H70    H     0.57555   0.24547   0.57886   0.00000  Uiso   1.00
H71    H     0.60904   0.34589   0.78759   0.00000  Uiso   1.00
H72    H     0.70616   0.16039   0.46028   0.00000  Uiso   1.00
H73    H     0.41782   0.25094   0.46625   0.00000  Uiso   1.00
H74    H     0.63620   0.42434   0.05431   0.00000  Uiso   1.00
H75    H     0.84097   0.03321   0.36414   0.00000  Uiso   1.00
H76    H     0.23295   0.22414   0.37670   0.00000  Uiso   1.00
H77    H     0.49851   0.99220   0.85088   0.00000  Uiso   1.00
H78    H     0.52777   0.07872   0.07455   0.00000  Uiso   1.00
H79    H     0.62490   0.89323   0.74724   0.00000  Uiso   1.00
H80    H     0.33656   0.98377   0.75320   0.00000  Uiso   1.00
H81    H     0.57025   0.20750   0.28721   0.00000  Uiso   1.00
H82    H     0.77501   0.81636   0.59703   0.00000  Uiso   1.00
H83    H     0.16699   0.00729   0.60961   0.00000  Uiso   1.00
O84    O     0.62389   0.37740   0.31298   0.00000  Uiso   1.00
O85    O     0.89253   0.86424   0.40749   0.00000  Uiso   1.00
O86    O     0.09482   0.11474   0.42398   0.00000  Uiso   1.00
N87    N     0.61665   0.36144   0.07843   0.00000  Uiso   1.00
N88    N     0.80810   0.99576   0.43317   0.00000  Uiso   1.00
N89    N     0.23966   0.17425   0.44490   0.00000  Uiso   1.00
N90    N     0.58115   0.24476   0.20375   0.00000  Uiso   1.00
N91    N     0.77261   0.87907   0.55850   0.00000  Uiso   1.00
N92    N     0.20417   0.05756   0.57022   0.00000  Uiso   1.00
C93    C     0.18745   0.44210   0.39118   0.00000  Uiso   1.00
C94    C     0.20689   0.43460   0.54231   0.00000  Uiso   1.00
C95    C     0.28823   0.40851   0.59957   0.00000  Uiso   1.00
C96    C     0.29241   0.40588   0.73989   0.00000  Uiso   1.00
C97    C     0.33392   0.39074   0.96238   0.00000  Uiso   1.00
C98    C     0.10611   0.38182   0.36449   0.00000  Uiso   1.00
C99    C     0.10271   0.31136   0.27222   0.00000  Uiso   1.00
C100   C     0.02204   0.26431   0.26284   0.00000  Uiso   1.00
C101   C     0.90706   0.16727   0.20919   0.00000  Uiso   1.00
C102   C     0.15531   0.53848   0.36774   0.00000  Uiso   1.00
C103   C     0.19326   0.59975   0.27818   0.00000  Uiso   1.00
C104   C     0.15401   0.68459   0.27151   0.00000  Uiso   1.00
C105   C     0.11543   0.83080   0.22290   0.00000  Uiso   1.00
C106   C     0.05023   0.48384   0.53856   0.00000  Uiso   1.00
C107   C     0.13235   0.45727   0.62236   0.00000  Uiso   1.00
C108   C     0.13641   0.45468   0.76263   0.00000  Uiso   1.00
C109   C     0.21774   0.42860   0.82009   0.00000  Uiso   1.00
C110   C     0.03158   0.40449   0.44453   0.00000  Uiso   1.00
C111   C     0.95089   0.35754   0.43528   0.00000  Uiso   1.00
C112   C     0.94737   0.28702   0.34303   0.00000  Uiso   1.00
C113   C     0.08078   0.56116   0.44779   0.00000  Uiso   1.00
C114   C     0.04145   0.64592   0.44124   0.00000  Uiso   1.00
C115   C     0.07934   0.70730   0.35170   0.00000  Uiso   1.00
H116   H     0.24547   0.42445   0.32886   0.00000  Uiso   1.00
H117   H     0.34589   0.39096   0.53759   0.00000  Uiso   1.00
H118   H     0.16039   0.29384   0.21028   0.00000  Uiso   1.00
H119   H     0.25094   0.58218   0.21625   0.00000  Uiso   1.00
H120   H     0.42434   0.36380   0.80431   0.00000  Uiso   1.00
H121   H     0.03321   0.15903   0.11414   0.00000  Uiso   1.00
H122   H     0.22414   0.76705   0.12670   0.00000  Uiso   1.00
H123   H     0.99220   0.50149   0.60088   0.00000  Uiso   1.00
H124   H     0.07872   0.47223   0.82455   0.00000  Uiso   1.00
H125   H     0.89323   0.37510   0.49724   0.00000  Uiso   1.00
H126   H     0.98377   0.66344   0.50320   0.00000  Uiso   1.00
H127   H     0.20750   0.42975   0.03721   0.00000  Uiso   1.00
H128   H     0.81636   0.22499   0.34703   0.00000  Uiso   1.00
H129   H     0.00729   0.83301   0.35961   0.00000  Uiso   1.00
O130   O     0.37740   0.37611   0.06298   0.00000  Uiso   1.00
O131   O     0.86424   0.10747   0.15749   0.00000  Uiso   1.00
O132   O     0.11474   0.90518   0.17398   0.00000  Uiso   1.00
N133   N     0.36144   0.38335   0.82843   0.00000  Uiso   1.00
N134   N     0.99576   0.19190   0.18317   0.00000  Uiso   1.00
N135   N     0.17425   0.76034   0.19490   0.00000  Uiso   1.00
N136   N     0.24476   0.41885   0.95375   0.00000  Uiso   1.00
N137   N     0.87907   0.22739   0.30850   0.00000  Uiso   1.00
N138   N     0.05756   0.79583   0.32022   0.00000  Uiso   1.00
C139   C     0.81255   0.55790   0.89118   0.00000  Uiso   1.00
C140   C     0.79311   0.56540   0.04231   0.00000  Uiso   1.00
C141   C     0.71177   0.59149   0.09957   0.00000  Uiso   1.00
C142   C     0.70759   0.59412   0.23989   0.00000  Uiso   1.00
C143   C     0.66608   0.60926   0.46238   0.00000  Uiso   1.00
C144   C     0.89389   0.61818   0.86449   0.00000  Uiso   1.00
C145   C     0.89729   0.68864   0.77222   0.00000  Uiso   1.00
C146   C     0.97796   0.73569   0.76284   0.00000  Uiso   1.00
C147   C     0.09294   0.83273   0.70919   0.00000  Uiso   1.00
C148   C     0.84469   0.46152   0.86774   0.00000  Uiso   1.00
C149   C     0.80674   0.40025   0.77818   0.00000  Uiso   1.00
C150   C     0.84599   0.31541   0.77151   0.00000  Uiso   1.00
C151   C     0.88457   0.16920   0.72290   0.00000  Uiso   1.00
C152   C     0.94977   0.51616   0.03856   0.00000  Uiso   1.00
C153   C     0.86765   0.54273   0.12236   0.00000  Uiso   1.00
C154   C     0.86359   0.54532   0.26263   0.00000  Uiso   1.00
C155   C     0.78226   0.57140   0.32009   0.00000  Uiso   1.00
C156   C     0.96842   0.59551   0.94453   0.00000  Uiso   1.00
C157   C     0.04911   0.64246   0.93528   0.00000  Uiso   1.00
C158   C     0.05263   0.71298   0.84303   0.00000  Uiso   1.00
C159   C     0.91922   0.43884   0.94779   0.00000  Uiso   1.00
C160   C     0.95855   0.35408   0.94124   0.00000  Uiso   1.00
C161   C     0.92066   0.29270   0.85170   0.00000  Uiso   1.00
H162   H     0.75453   0.57555   0.82886   0.00000  Uiso   1.00
H163   H     0.65411   0.60904   0.03759   0.00000  Uiso   1.00
H164   H     0.83961   0.70616   0.71028   0.00000  Uiso   1.00
H165   H     0.74906   0.41782   0.71625   0.00000  Uiso   1.00
H166   H     0.57566   0.63620   0.30431   0.00000  Uiso   1.00
H167   H     0.96679   0.84097   0.61414   0.00000  Uiso   1.00
H168   H     0.77586   0.23295   0.62670   0.00000  Uiso   1.00
H169   H     0.00780   0.49851   0.10088   0.00000  Uiso   1.00
H170   H     0.92128   0.52777   0.32455   0.00000  Uiso   1.00
H171   H     0.10677   0.62490   0.99724   0.00000  Uiso   1.00
H172   H     0.01623   0.33656   0.00320   0.00000  Uiso   1.00
H173   H     0.79250   0.57025   0.53721   0.00000  Uiso   1.00
H174   H     0.18364   0.77501   0.84703   0.00000  Uiso   1.00
H175   H     0.99271   0.16699   0.85961   0.00000  Uiso   1.00
O176   O     0.62260   0.62389   0.56298   0.00000  Uiso   1.00
O177   O     0.13576   0.89253   0.65749   0.00000  Uiso   1.00
O178   O     0.88526   0.09482   0.67398   0.00000  Uiso   1.00
N179   N     0.63856   0.61665   0.32843   0.00000  Uiso   1.00
N180   N     0.00424   0.80810   0.68317   0.00000  Uiso   1.00
N181   N     0.82575   0.23966   0.69490   0.00000  Uiso   1.00
N182   N     0.75524   0.58115   0.45375   0.00000  Uiso   1.00
N183   N     0.12093   0.77261   0.80850   0.00000  Uiso   1.00
N184   N     0.94244   0.20417   0.82022   0.00000  Uiso   1.00
