data_job_00321
_audit_creation_date              2018-12-19
_audit_creation_method            'Materials Studio'
_symmetry_space_group_name_H-M    'P1'
_symmetry_Int_Tables_number       1
_symmetry_cell_setting            triclinic
loop_
_symmetry_equiv_pos_as_xyz
  x,y,z
_cell_length_a                    26.7839
_cell_length_b                    7.0398
_cell_length_c                    24.0514
_cell_angle_alpha                 90.0000
_cell_angle_beta                  83.0531
_cell_angle_gamma                 90.0000
loop_
_atom_site_label
_atom_site_type_symbol
_atom_site_fract_x
_atom_site_fract_y
_atom_site_fract_z
_atom_site_U_iso_or_equiv
_atom_site_adp_type
_atom_site_occupancy
C1     C     0.09956   0.23008   0.63088   0.00000  Uiso   1.00
C2     C     0.12967   0.25967   0.68009   0.00000  Uiso   1.00
C3     C     0.14029   0.12123   0.71802   0.00000  Uiso   1.00
C4     C     0.16839   0.17677   0.76010   0.00000  Uiso   1.00
C5     C     0.21256   0.19425   0.83592   0.00000  Uiso   1.00
C6     C     0.05657   0.37330   0.63870   0.00000  Uiso   1.00
C7     C     0.00573   0.33040   0.64183   0.00000  Uiso   1.00
C8     C     0.97229   0.48160   0.64907   0.00000  Uiso   1.00
C9     C     0.90297   0.67550   0.66060   0.00000  Uiso   1.00
C10    C     0.13369   0.29356   0.57883   0.00000  Uiso   1.00
C11    C     0.14768   0.18364   0.53161   0.00000  Uiso   1.00
C12    C     0.17915   0.26773   0.48844   0.00000  Uiso   1.00
C13    C     0.22957   0.33783   0.40701   0.00000  Uiso   1.00
C14    C     0.13057   0.57489   0.63815   0.00000  Uiso   1.00
C15    C     0.14651   0.44696   0.68404   0.00000  Uiso   1.00
C16    C     0.17460   0.50272   0.72607   0.00000  Uiso   1.00
C17    C     0.18526   0.36439   0.76406   0.00000  Uiso   1.00
C18    C     0.07341   0.56058   0.64265   0.00000  Uiso   1.00
C19    C     0.04004   0.71188   0.64988   0.00000  Uiso   1.00
C20    C     0.98916   0.66922   0.65303   0.00000  Uiso   1.00
C21    C     0.15053   0.48085   0.58278   0.00000  Uiso   1.00
C22    C     0.18198   0.56513   0.53967   0.00000  Uiso   1.00
C23    C     0.19602   0.45535   0.49240   0.00000  Uiso   1.00
H24    H     0.08645   0.08428   0.62780   0.00000  Uiso   1.00
H25    H     0.12725   0.97631   0.71495   0.00000  Uiso   1.00
H26    H     0.99271   0.18545   0.63877   0.00000  Uiso   1.00
H27    H     0.13464   0.03872   0.52857   0.00000  Uiso   1.00
H28    H     0.17990   0.93923   0.81333   0.00000  Uiso   1.00
H29    H     0.89622   0.38021   0.65267   0.00000  Uiso   1.00
H30    H     0.19549   0.07079   0.42030   0.00000  Uiso   1.00
H31    H     0.14368   0.72070   0.64123   0.00000  Uiso   1.00
H32    H     0.18763   0.64766   0.72912   0.00000  Uiso   1.00
H33    H     0.05309   0.85680   0.65294   0.00000  Uiso   1.00
H34    H     0.19501   0.71006   0.54274   0.00000  Uiso   1.00
H35    H     0.22890   0.48412   0.82483   0.00000  Uiso   1.00
H36    H     0.94522   0.92510   0.66417   0.00000  Uiso   1.00
H37    H     0.24450   0.61569   0.43180   0.00000  Uiso   1.00
O38    O     0.23226   0.15216   0.87666   0.00000  Uiso   1.00
O39    O     0.86009   0.73070   0.66588   0.00000  Uiso   1.00
O40    O     0.25273   0.32476   0.36101   0.00000  Uiso   1.00
N41    N     0.18541   0.07749   0.80396   0.00000  Uiso   1.00
N42    N     0.92018   0.48977   0.65377   0.00000  Uiso   1.00
N43    N     0.19997   0.20051   0.43652   0.00000  Uiso   1.00
N44    N     0.21178   0.37069   0.81015   0.00000  Uiso   1.00
N45    N     0.94655   0.78297   0.65996   0.00000  Uiso   1.00
N46    N     0.22634   0.49371   0.44270   0.00000  Uiso   1.00
C47    C     0.59956   0.73008   0.63088   0.00000  Uiso   1.00
C48    C     0.62967   0.75967   0.68009   0.00000  Uiso   1.00
C49    C     0.64029   0.62123   0.71802   0.00000  Uiso   1.00
C50    C     0.66839   0.67677   0.76010   0.00000  Uiso   1.00
C51    C     0.71256   0.69425   0.83592   0.00000  Uiso   1.00
C52    C     0.55657   0.87330   0.63870   0.00000  Uiso   1.00
C53    C     0.50573   0.83040   0.64183   0.00000  Uiso   1.00
C54    C     0.47229   0.98160   0.64907   0.00000  Uiso   1.00
C55    C     0.40297   0.17550   0.66060   0.00000  Uiso   1.00
C56    C     0.63369   0.79356   0.57883   0.00000  Uiso   1.00
C57    C     0.64768   0.68364   0.53161   0.00000  Uiso   1.00
C58    C     0.67915   0.76773   0.48844   0.00000  Uiso   1.00
C59    C     0.72957   0.83783   0.40701   0.00000  Uiso   1.00
C60    C     0.63057   0.07489   0.63815   0.00000  Uiso   1.00
C61    C     0.64651   0.94696   0.68404   0.00000  Uiso   1.00
C62    C     0.67460   0.00272   0.72607   0.00000  Uiso   1.00
C63    C     0.68526   0.86439   0.76406   0.00000  Uiso   1.00
C64    C     0.57341   0.06058   0.64265   0.00000  Uiso   1.00
C65    C     0.54004   0.21188   0.64988   0.00000  Uiso   1.00
C66    C     0.48916   0.16922   0.65303   0.00000  Uiso   1.00
C67    C     0.65053   0.98085   0.58278   0.00000  Uiso   1.00
C68    C     0.68198   0.06513   0.53967   0.00000  Uiso   1.00
C69    C     0.69602   0.95535   0.49240   0.00000  Uiso   1.00
H70    H     0.58645   0.58428   0.62780   0.00000  Uiso   1.00
H71    H     0.62725   0.47631   0.71495   0.00000  Uiso   1.00
H72    H     0.49271   0.68545   0.63877   0.00000  Uiso   1.00
H73    H     0.63464   0.53872   0.52857   0.00000  Uiso   1.00
H74    H     0.67990   0.43923   0.81333   0.00000  Uiso   1.00
H75    H     0.39622   0.88021   0.65267   0.00000  Uiso   1.00
H76    H     0.69549   0.57079   0.42030   0.00000  Uiso   1.00
H77    H     0.64368   0.22070   0.64123   0.00000  Uiso   1.00
H78    H     0.68763   0.14766   0.72912   0.00000  Uiso   1.00
H79    H     0.55309   0.35680   0.65294   0.00000  Uiso   1.00
H80    H     0.69501   0.21006   0.54274   0.00000  Uiso   1.00
H81    H     0.72890   0.98412   0.82483   0.00000  Uiso   1.00
H82    H     0.44522   0.42510   0.66417   0.00000  Uiso   1.00
H83    H     0.74450   0.11569   0.43180   0.00000  Uiso   1.00
O84    O     0.73226   0.65216   0.87666   0.00000  Uiso   1.00
O85    O     0.36009   0.23070   0.66588   0.00000  Uiso   1.00
O86    O     0.75273   0.82476   0.36101   0.00000  Uiso   1.00
N87    N     0.68541   0.57749   0.80396   0.00000  Uiso   1.00
N88    N     0.42018   0.98977   0.65377   0.00000  Uiso   1.00
N89    N     0.69997   0.70051   0.43652   0.00000  Uiso   1.00
N90    N     0.71178   0.87069   0.81015   0.00000  Uiso   1.00
N91    N     0.44655   0.28297   0.65996   0.00000  Uiso   1.00
N92    N     0.72634   0.99371   0.44270   0.00000  Uiso   1.00
C93    C     0.90044   0.23008   0.86912   0.00000  Uiso   1.00
C94    C     0.87033   0.25967   0.81991   0.00000  Uiso   1.00
C95    C     0.85971   0.12123   0.78198   0.00000  Uiso   1.00
C96    C     0.83161   0.17677   0.73990   0.00000  Uiso   1.00
C97    C     0.78744   0.19425   0.66408   0.00000  Uiso   1.00
C98    C     0.94343   0.37330   0.86130   0.00000  Uiso   1.00
C99    C     0.99427   0.33040   0.85817   0.00000  Uiso   1.00
C100   C     0.02771   0.48160   0.85093   0.00000  Uiso   1.00
C101   C     0.09703   0.67550   0.83940   0.00000  Uiso   1.00
C102   C     0.86631   0.29356   0.92117   0.00000  Uiso   1.00
C103   C     0.85232   0.18364   0.96839   0.00000  Uiso   1.00
C104   C     0.82085   0.26773   0.01156   0.00000  Uiso   1.00
C105   C     0.77043   0.33783   0.09299   0.00000  Uiso   1.00
C106   C     0.86943   0.57489   0.86185   0.00000  Uiso   1.00
C107   C     0.85349   0.44696   0.81596   0.00000  Uiso   1.00
C108   C     0.82540   0.50272   0.77393   0.00000  Uiso   1.00
C109   C     0.81474   0.36439   0.73594   0.00000  Uiso   1.00
C110   C     0.92659   0.56058   0.85735   0.00000  Uiso   1.00
C111   C     0.95996   0.71188   0.85012   0.00000  Uiso   1.00
C112   C     0.01084   0.66922   0.84697   0.00000  Uiso   1.00
C113   C     0.84947   0.48085   0.91722   0.00000  Uiso   1.00
C114   C     0.81802   0.56513   0.96033   0.00000  Uiso   1.00
C115   C     0.80398   0.45535   0.00760   0.00000  Uiso   1.00
H116   H     0.91355   0.08428   0.87220   0.00000  Uiso   1.00
H117   H     0.87275   0.97631   0.78505   0.00000  Uiso   1.00
H118   H     0.00729   0.18545   0.86123   0.00000  Uiso   1.00
H119   H     0.86536   0.03872   0.97143   0.00000  Uiso   1.00
H120   H     0.82010   0.93923   0.68667   0.00000  Uiso   1.00
H121   H     0.10378   0.38021   0.84733   0.00000  Uiso   1.00
H122   H     0.80451   0.07079   0.07970   0.00000  Uiso   1.00
H123   H     0.85632   0.72070   0.85877   0.00000  Uiso   1.00
H124   H     0.81237   0.64766   0.77088   0.00000  Uiso   1.00
H125   H     0.94691   0.85680   0.84706   0.00000  Uiso   1.00
H126   H     0.80499   0.71006   0.95726   0.00000  Uiso   1.00
H127   H     0.77110   0.48412   0.67517   0.00000  Uiso   1.00
H128   H     0.05478   0.92510   0.83583   0.00000  Uiso   1.00
H129   H     0.75550   0.61569   0.06820   0.00000  Uiso   1.00
O130   O     0.76774   0.15216   0.62334   0.00000  Uiso   1.00
O131   O     0.13991   0.73070   0.83412   0.00000  Uiso   1.00
O132   O     0.74727   0.32476   0.13899   0.00000  Uiso   1.00
N133   N     0.81459   0.07749   0.69604   0.00000  Uiso   1.00
N134   N     0.07982   0.48977   0.84623   0.00000  Uiso   1.00
N135   N     0.80003   0.20051   0.06348   0.00000  Uiso   1.00
N136   N     0.78822   0.37069   0.68985   0.00000  Uiso   1.00
N137   N     0.05345   0.78297   0.84004   0.00000  Uiso   1.00
N138   N     0.77366   0.49371   0.05730   0.00000  Uiso   1.00
C139   C     0.40044   0.73008   0.86912   0.00000  Uiso   1.00
C140   C     0.37033   0.75967   0.81991   0.00000  Uiso   1.00
C141   C     0.35971   0.62123   0.78198   0.00000  Uiso   1.00
C142   C     0.33161   0.67677   0.73990   0.00000  Uiso   1.00
C143   C     0.28744   0.69425   0.66408   0.00000  Uiso   1.00
C144   C     0.44343   0.87330   0.86130   0.00000  Uiso   1.00
C145   C     0.49427   0.83040   0.85817   0.00000  Uiso   1.00
C146   C     0.52771   0.98160   0.85093   0.00000  Uiso   1.00
C147   C     0.59703   0.17550   0.83940   0.00000  Uiso   1.00
C148   C     0.36631   0.79356   0.92117   0.00000  Uiso   1.00
C149   C     0.35232   0.68364   0.96839   0.00000  Uiso   1.00
C150   C     0.32085   0.76773   0.01156   0.00000  Uiso   1.00
C151   C     0.27043   0.83783   0.09299   0.00000  Uiso   1.00
C152   C     0.36943   0.07489   0.86185   0.00000  Uiso   1.00
C153   C     0.35349   0.94696   0.81596   0.00000  Uiso   1.00
C154   C     0.32540   0.00272   0.77393   0.00000  Uiso   1.00
C155   C     0.31474   0.86439   0.73594   0.00000  Uiso   1.00
C156   C     0.42659   0.06058   0.85735   0.00000  Uiso   1.00
C157   C     0.45996   0.21188   0.85012   0.00000  Uiso   1.00
C158   C     0.51084   0.16922   0.84697   0.00000  Uiso   1.00
C159   C     0.34947   0.98085   0.91722   0.00000  Uiso   1.00
C160   C     0.31802   0.06513   0.96033   0.00000  Uiso   1.00
C161   C     0.30398   0.95535   0.00760   0.00000  Uiso   1.00
H162   H     0.41355   0.58428   0.87220   0.00000  Uiso   1.00
H163   H     0.37275   0.47631   0.78505   0.00000  Uiso   1.00
H164   H     0.50729   0.68545   0.86123   0.00000  Uiso   1.00
H165   H     0.36536   0.53872   0.97143   0.00000  Uiso   1.00
H166   H     0.32010   0.43923   0.68667   0.00000  Uiso   1.00
H167   H     0.60378   0.88021   0.84733   0.00000  Uiso   1.00
H168   H     0.30451   0.57079   0.07970   0.00000  Uiso   1.00
H169   H     0.35632   0.22070   0.85877   0.00000  Uiso   1.00
H170   H     0.31237   0.14766   0.77088   0.00000  Uiso   1.00
H171   H     0.44691   0.35680   0.84706   0.00000  Uiso   1.00
H172   H     0.30499   0.21006   0.95726   0.00000  Uiso   1.00
H173   H     0.27110   0.98412   0.67517   0.00000  Uiso   1.00
H174   H     0.55478   0.42510   0.83583   0.00000  Uiso   1.00
H175   H     0.25550   0.11569   0.06820   0.00000  Uiso   1.00
O176   O     0.26774   0.65216   0.62334   0.00000  Uiso   1.00
O177   O     0.63991   0.23070   0.83412   0.00000  Uiso   1.00
O178   O     0.24727   0.82476   0.13899   0.00000  Uiso   1.00
N179   N     0.31459   0.57749   0.69604   0.00000  Uiso   1.00
N180   N     0.57982   0.98977   0.84623   0.00000  Uiso   1.00
N181   N     0.30003   0.70051   0.06348   0.00000  Uiso   1.00
N182   N     0.28822   0.87069   0.68985   0.00000  Uiso   1.00
N183   N     0.55345   0.28297   0.84004   0.00000  Uiso   1.00
N184   N     0.27366   0.99371   0.05730   0.00000  Uiso   1.00
C185   C     0.90044   0.76992   0.36912   0.00000  Uiso   1.00
C186   C     0.87033   0.74033   0.31991   0.00000  Uiso   1.00
C187   C     0.85971   0.87877   0.28198   0.00000  Uiso   1.00
C188   C     0.83161   0.82323   0.23990   0.00000  Uiso   1.00
C189   C     0.78744   0.80575   0.16408   0.00000  Uiso   1.00
C190   C     0.94343   0.62670   0.36130   0.00000  Uiso   1.00
C191   C     0.99427   0.66960   0.35817   0.00000  Uiso   1.00
C192   C     0.02771   0.51840   0.35093   0.00000  Uiso   1.00
C193   C     0.09703   0.32450   0.33940   0.00000  Uiso   1.00
C194   C     0.86631   0.70644   0.42117   0.00000  Uiso   1.00
C195   C     0.85232   0.81636   0.46839   0.00000  Uiso   1.00
C196   C     0.82085   0.73227   0.51156   0.00000  Uiso   1.00
C197   C     0.77043   0.66217   0.59299   0.00000  Uiso   1.00
C198   C     0.86943   0.42511   0.36185   0.00000  Uiso   1.00
C199   C     0.85349   0.55304   0.31596   0.00000  Uiso   1.00
C200   C     0.82540   0.49728   0.27393   0.00000  Uiso   1.00
C201   C     0.81474   0.63561   0.23594   0.00000  Uiso   1.00
C202   C     0.92659   0.43942   0.35735   0.00000  Uiso   1.00
C203   C     0.95996   0.28812   0.35012   0.00000  Uiso   1.00
C204   C     0.01084   0.33078   0.34697   0.00000  Uiso   1.00
C205   C     0.84947   0.51915   0.41722   0.00000  Uiso   1.00
C206   C     0.81802   0.43487   0.46033   0.00000  Uiso   1.00
C207   C     0.80398   0.54465   0.50760   0.00000  Uiso   1.00
H208   H     0.91355   0.91572   0.37220   0.00000  Uiso   1.00
H209   H     0.87275   0.02369   0.28505   0.00000  Uiso   1.00
H210   H     0.00729   0.81455   0.36123   0.00000  Uiso   1.00
H211   H     0.86536   0.96128   0.47143   0.00000  Uiso   1.00
H212   H     0.82010   0.06077   0.18667   0.00000  Uiso   1.00
H213   H     0.10378   0.61979   0.34733   0.00000  Uiso   1.00
H214   H     0.80451   0.92921   0.57970   0.00000  Uiso   1.00
H215   H     0.85632   0.27930   0.35877   0.00000  Uiso   1.00
H216   H     0.81237   0.35234   0.27088   0.00000  Uiso   1.00
H217   H     0.94691   0.14320   0.34706   0.00000  Uiso   1.00
H218   H     0.80499   0.28994   0.45726   0.00000  Uiso   1.00
H219   H     0.77110   0.51588   0.17517   0.00000  Uiso   1.00
H220   H     0.05478   0.07490   0.33583   0.00000  Uiso   1.00
H221   H     0.75550   0.38431   0.56820   0.00000  Uiso   1.00
O222   O     0.76774   0.84784   0.12334   0.00000  Uiso   1.00
O223   O     0.13991   0.26930   0.33412   0.00000  Uiso   1.00
O224   O     0.74727   0.67524   0.63899   0.00000  Uiso   1.00
N225   N     0.81459   0.92251   0.19604   0.00000  Uiso   1.00
N226   N     0.07982   0.51023   0.34623   0.00000  Uiso   1.00
N227   N     0.80003   0.79949   0.56348   0.00000  Uiso   1.00
N228   N     0.78822   0.62931   0.18985   0.00000  Uiso   1.00
N229   N     0.05345   0.21703   0.34004   0.00000  Uiso   1.00
N230   N     0.77366   0.50629   0.55730   0.00000  Uiso   1.00
C231   C     0.40044   0.26992   0.36912   0.00000  Uiso   1.00
C232   C     0.37033   0.24033   0.31991   0.00000  Uiso   1.00
C233   C     0.35971   0.37877   0.28198   0.00000  Uiso   1.00
C234   C     0.33161   0.32323   0.23990   0.00000  Uiso   1.00
C235   C     0.28744   0.30575   0.16408   0.00000  Uiso   1.00
C236   C     0.44343   0.12670   0.36130   0.00000  Uiso   1.00
C237   C     0.49427   0.16960   0.35817   0.00000  Uiso   1.00
C238   C     0.52771   0.01840   0.35093   0.00000  Uiso   1.00
C239   C     0.59703   0.82450   0.33940   0.00000  Uiso   1.00
C240   C     0.36631   0.20644   0.42117   0.00000  Uiso   1.00
C241   C     0.35232   0.31636   0.46839   0.00000  Uiso   1.00
C242   C     0.32085   0.23227   0.51156   0.00000  Uiso   1.00
C243   C     0.27043   0.16217   0.59299   0.00000  Uiso   1.00
C244   C     0.36943   0.92511   0.36185   0.00000  Uiso   1.00
C245   C     0.35349   0.05304   0.31596   0.00000  Uiso   1.00
C246   C     0.32540   0.99728   0.27393   0.00000  Uiso   1.00
C247   C     0.31474   0.13561   0.23594   0.00000  Uiso   1.00
C248   C     0.42659   0.93942   0.35735   0.00000  Uiso   1.00
C249   C     0.45996   0.78812   0.35012   0.00000  Uiso   1.00
C250   C     0.51084   0.83078   0.34697   0.00000  Uiso   1.00
C251   C     0.34947   0.01915   0.41722   0.00000  Uiso   1.00
C252   C     0.31802   0.93487   0.46033   0.00000  Uiso   1.00
C253   C     0.30398   0.04465   0.50760   0.00000  Uiso   1.00
H254   H     0.41355   0.41572   0.37220   0.00000  Uiso   1.00
H255   H     0.37275   0.52369   0.28505   0.00000  Uiso   1.00
H256   H     0.50729   0.31455   0.36123   0.00000  Uiso   1.00
H257   H     0.36536   0.46128   0.47143   0.00000  Uiso   1.00
H258   H     0.32010   0.56077   0.18667   0.00000  Uiso   1.00
H259   H     0.60378   0.11979   0.34733   0.00000  Uiso   1.00
H260   H     0.30451   0.42921   0.57970   0.00000  Uiso   1.00
H261   H     0.35632   0.77930   0.35877   0.00000  Uiso   1.00
H262   H     0.31237   0.85234   0.27088   0.00000  Uiso   1.00
H263   H     0.44691   0.64320   0.34706   0.00000  Uiso   1.00
H264   H     0.30499   0.78994   0.45726   0.00000  Uiso   1.00
H265   H     0.27110   0.01588   0.17517   0.00000  Uiso   1.00
H266   H     0.55478   0.57490   0.33583   0.00000  Uiso   1.00
H267   H     0.25550   0.88431   0.56820   0.00000  Uiso   1.00
O268   O     0.26774   0.34784   0.12334   0.00000  Uiso   1.00
O269   O     0.63991   0.76930   0.33412   0.00000  Uiso   1.00
O270   O     0.24727   0.17524   0.63899   0.00000  Uiso   1.00
N271   N     0.31459   0.42251   0.19604   0.00000  Uiso   1.00
N272   N     0.57982   0.01023   0.34623   0.00000  Uiso   1.00
N273   N     0.30003   0.29949   0.56348   0.00000  Uiso   1.00
N274   N     0.28822   0.12931   0.18985   0.00000  Uiso   1.00
N275   N     0.55345   0.71703   0.34004   0.00000  Uiso   1.00
N276   N     0.27366   0.00629   0.55730   0.00000  Uiso   1.00
C277   C     0.09956   0.76992   0.13088   0.00000  Uiso   1.00
C278   C     0.12967   0.74033   0.18009   0.00000  Uiso   1.00
C279   C     0.14029   0.87877   0.21802   0.00000  Uiso   1.00
C280   C     0.16839   0.82323   0.26010   0.00000  Uiso   1.00
C281   C     0.21256   0.80575   0.33592   0.00000  Uiso   1.00
C282   C     0.05657   0.62670   0.13870   0.00000  Uiso   1.00
C283   C     0.00573   0.66960   0.14183   0.00000  Uiso   1.00
C284   C     0.97229   0.51840   0.14907   0.00000  Uiso   1.00
C285   C     0.90297   0.32450   0.16060   0.00000  Uiso   1.00
C286   C     0.13369   0.70644   0.07883   0.00000  Uiso   1.00
C287   C     0.14768   0.81636   0.03161   0.00000  Uiso   1.00
C288   C     0.17915   0.73227   0.98844   0.00000  Uiso   1.00
C289   C     0.22957   0.66217   0.90701   0.00000  Uiso   1.00
C290   C     0.13057   0.42511   0.13815   0.00000  Uiso   1.00
C291   C     0.14651   0.55304   0.18404   0.00000  Uiso   1.00
C292   C     0.17460   0.49728   0.22607   0.00000  Uiso   1.00
C293   C     0.18526   0.63561   0.26406   0.00000  Uiso   1.00
C294   C     0.07341   0.43942   0.14265   0.00000  Uiso   1.00
C295   C     0.04004   0.28812   0.14988   0.00000  Uiso   1.00
C296   C     0.98916   0.33078   0.15303   0.00000  Uiso   1.00
C297   C     0.15053   0.51915   0.08278   0.00000  Uiso   1.00
C298   C     0.18198   0.43487   0.03967   0.00000  Uiso   1.00
C299   C     0.19602   0.54465   0.99240   0.00000  Uiso   1.00
H300   H     0.08645   0.91572   0.12780   0.00000  Uiso   1.00
H301   H     0.12725   0.02369   0.21495   0.00000  Uiso   1.00
H302   H     0.99271   0.81455   0.13877   0.00000  Uiso   1.00
H303   H     0.13464   0.96128   0.02857   0.00000  Uiso   1.00
H304   H     0.17990   0.06077   0.31333   0.00000  Uiso   1.00
H305   H     0.89622   0.61979   0.15267   0.00000  Uiso   1.00
H306   H     0.19549   0.92921   0.92030   0.00000  Uiso   1.00
H307   H     0.14368   0.27930   0.14123   0.00000  Uiso   1.00
H308   H     0.18763   0.35234   0.22912   0.00000  Uiso   1.00
H309   H     0.05309   0.14320   0.15294   0.00000  Uiso   1.00
H310   H     0.19501   0.28994   0.04274   0.00000  Uiso   1.00
H311   H     0.22890   0.51588   0.32483   0.00000  Uiso   1.00
H312   H     0.94522   0.07490   0.16417   0.00000  Uiso   1.00
H313   H     0.24450   0.38431   0.93180   0.00000  Uiso   1.00
O314   O     0.23226   0.84784   0.37666   0.00000  Uiso   1.00
O315   O     0.86009   0.26930   0.16588   0.00000  Uiso   1.00
O316   O     0.25273   0.67524   0.86101   0.00000  Uiso   1.00
N317   N     0.18541   0.92251   0.30396   0.00000  Uiso   1.00
N318   N     0.92018   0.51023   0.15377   0.00000  Uiso   1.00
N319   N     0.19997   0.79949   0.93652   0.00000  Uiso   1.00
N320   N     0.21178   0.62931   0.31015   0.00000  Uiso   1.00
N321   N     0.94655   0.21703   0.15996   0.00000  Uiso   1.00
N322   N     0.22634   0.50629   0.94270   0.00000  Uiso   1.00
C323   C     0.59956   0.26992   0.13088   0.00000  Uiso   1.00
C324   C     0.62967   0.24033   0.18009   0.00000  Uiso   1.00
C325   C     0.64029   0.37877   0.21802   0.00000  Uiso   1.00
C326   C     0.66839   0.32323   0.26010   0.00000  Uiso   1.00
C327   C     0.71256   0.30575   0.33592   0.00000  Uiso   1.00
C328   C     0.55657   0.12670   0.13870   0.00000  Uiso   1.00
C329   C     0.50573   0.16960   0.14183   0.00000  Uiso   1.00
C330   C     0.47229   0.01840   0.14907   0.00000  Uiso   1.00
C331   C     0.40297   0.82450   0.16060   0.00000  Uiso   1.00
C332   C     0.63369   0.20644   0.07883   0.00000  Uiso   1.00
C333   C     0.64768   0.31636   0.03161   0.00000  Uiso   1.00
C334   C     0.67915   0.23227   0.98844   0.00000  Uiso   1.00
C335   C     0.72957   0.16217   0.90701   0.00000  Uiso   1.00
C336   C     0.63057   0.92511   0.13815   0.00000  Uiso   1.00
C337   C     0.64651   0.05304   0.18404   0.00000  Uiso   1.00
C338   C     0.67460   0.99728   0.22607   0.00000  Uiso   1.00
C339   C     0.68526   0.13561   0.26406   0.00000  Uiso   1.00
C340   C     0.57341   0.93942   0.14265   0.00000  Uiso   1.00
C341   C     0.54004   0.78812   0.14988   0.00000  Uiso   1.00
C342   C     0.48916   0.83078   0.15303   0.00000  Uiso   1.00
C343   C     0.65053   0.01915   0.08278   0.00000  Uiso   1.00
C344   C     0.68198   0.93487   0.03967   0.00000  Uiso   1.00
C345   C     0.69602   0.04465   0.99240   0.00000  Uiso   1.00
H346   H     0.58645   0.41572   0.12780   0.00000  Uiso   1.00
H347   H     0.62725   0.52369   0.21495   0.00000  Uiso   1.00
H348   H     0.49271   0.31455   0.13877   0.00000  Uiso   1.00
H349   H     0.63464   0.46128   0.02857   0.00000  Uiso   1.00
H350   H     0.67990   0.56077   0.31333   0.00000  Uiso   1.00
H351   H     0.39622   0.11979   0.15267   0.00000  Uiso   1.00
H352   H     0.69549   0.42921   0.92030   0.00000  Uiso   1.00
H353   H     0.64368   0.77930   0.14123   0.00000  Uiso   1.00
H354   H     0.68763   0.85234   0.22912   0.00000  Uiso   1.00
H355   H     0.55309   0.64320   0.15294   0.00000  Uiso   1.00
H356   H     0.69501   0.78994   0.04274   0.00000  Uiso   1.00
H357   H     0.72890   0.01588   0.32483   0.00000  Uiso   1.00
H358   H     0.44522   0.57490   0.16417   0.00000  Uiso   1.00
H359   H     0.74450   0.88431   0.93180   0.00000  Uiso   1.00
O360   O     0.73226   0.34784   0.37666   0.00000  Uiso   1.00
O361   O     0.36009   0.76930   0.16588   0.00000  Uiso   1.00
O362   O     0.75273   0.17524   0.86101   0.00000  Uiso   1.00
N363   N     0.68541   0.42251   0.30396   0.00000  Uiso   1.00
N364   N     0.42018   0.01023   0.15377   0.00000  Uiso   1.00
N365   N     0.69997   0.29949   0.93652   0.00000  Uiso   1.00
N366   N     0.71178   0.12931   0.31015   0.00000  Uiso   1.00
N367   N     0.44655   0.71703   0.15996   0.00000  Uiso   1.00
N368   N     0.72634   0.00629   0.94270   0.00000  Uiso   1.00
