data_job_02970
_audit_creation_date              2018-12-19
_audit_creation_method            'Materials Studio'
_symmetry_space_group_name_H-M    'P1'
_symmetry_Int_Tables_number       1
_symmetry_cell_setting            triclinic
loop_
_symmetry_equiv_pos_as_xyz
  x,y,z
_cell_length_a                    22.2514
_cell_length_b                    22.2514
_cell_length_c                    12.5484
_cell_angle_alpha                 90.0000
_cell_angle_beta                  90.0000
_cell_angle_gamma                 90.0000
loop_
_atom_site_label
_atom_site_type_symbol
_atom_site_fract_x
_atom_site_fract_y
_atom_site_fract_z
_atom_site_U_iso_or_equiv
_atom_site_adp_type
_atom_site_occupancy
C1     C     0.07753   0.70788   0.81186   0.00000  Uiso   1.00
C2     C     0.09154   0.77444   0.82666   0.00000  Uiso   1.00
C3     C     0.05115   0.82137   0.81345   0.00000  Uiso   1.00
C4     C     0.07272   0.87911   0.83069   0.00000  Uiso   1.00
C5     C     0.08538   0.98089   0.84914   0.00000  Uiso   1.00
C6     C     0.12226   0.68480   0.72939   0.00000  Uiso   1.00
C7     C     0.10770   0.65637   0.63440   0.00000  Uiso   1.00
C8     C     0.15514   0.63864   0.56976   0.00000  Uiso   1.00
C9     C     0.21550   0.60122   0.43723   0.00000  Uiso   1.00
C10    C     0.09427   0.67745   0.91662   0.00000  Uiso   1.00
C11    C     0.05619   0.64281   0.97906   0.00000  Uiso   1.00
C12    C     0.08007   0.61888   0.07206   0.00000  Uiso   1.00
C13    C     0.09696   0.57005   0.23024   0.00000  Uiso   1.00
C14    C     0.18767   0.72694   0.86599   0.00000  Uiso   1.00
C15    C     0.15137   0.78479   0.85605   0.00000  Uiso   1.00
C16    C     0.17301   0.84247   0.87333   0.00000  Uiso   1.00
C17    C     0.13266   0.88948   0.86015   0.00000  Uiso   1.00
C18    C     0.18209   0.69516   0.75878   0.00000  Uiso   1.00
C19    C     0.22956   0.67747   0.69428   0.00000  Uiso   1.00
C20    C     0.21508   0.64901   0.59921   0.00000  Uiso   1.00
C21    C     0.15410   0.68781   0.94603   0.00000  Uiso   1.00
C22    C     0.17804   0.66392   0.03894   0.00000  Uiso   1.00
C23    C     0.14000   0.62926   0.10151   0.00000  Uiso   1.00
H24    H     0.03096   0.69981   0.78897   0.00000  Uiso   1.00
H25    H     0.00486   0.81334   0.79069   0.00000  Uiso   1.00
H26    H     0.06140   0.64835   0.61167   0.00000  Uiso   1.00
H27    H     0.00989   0.63481   0.95628   0.00000  Uiso   1.00
H28    H     0.00231   0.94378   0.80552   0.00000  Uiso   1.00
H29    H     0.12154   0.59588   0.42807   0.00000  Uiso   1.00
H30    H     0.01292   0.56731   0.15475   0.00000  Uiso   1.00
H31    H     0.23425   0.73501   0.88887   0.00000  Uiso   1.00
H32    H     0.21930   0.85047   0.89608   0.00000  Uiso   1.00
H33    H     0.27585   0.68549   0.71705   0.00000  Uiso   1.00
H34    H     0.22434   0.67194   0.06167   0.00000  Uiso   1.00
H35    H     0.17636   0.97392   0.89105   0.00000  Uiso   1.00
H36    H     0.29559   0.62601   0.51360   0.00000  Uiso   1.00
H37    H     0.18697   0.59745   0.24028   0.00000  Uiso   1.00
O38    O     0.07584   0.03417   0.85118   0.00000  Uiso   1.00
O39    O     0.23226   0.57773   0.35600   0.00000  Uiso   1.00
O40    O     0.08976   0.54026   0.30938   0.00000  Uiso   1.00
N41    N     0.04532   0.93503   0.82468   0.00000  Uiso   1.00
N42    N     0.15679   0.60977   0.47178   0.00000  Uiso   1.00
N43    N     0.05525   0.58305   0.15115   0.00000  Uiso   1.00
N44    N     0.13898   0.95124   0.87070   0.00000  Uiso   1.00
N45    N     0.25045   0.62598   0.51780   0.00000  Uiso   1.00
N46    N     0.14890   0.59927   0.19717   0.00000  Uiso   1.00
C47    C     0.92247   0.29212   0.81186   0.00000  Uiso   1.00
C48    C     0.90846   0.22556   0.82666   0.00000  Uiso   1.00
C49    C     0.94885   0.17863   0.81345   0.00000  Uiso   1.00
C50    C     0.92728   0.12089   0.83069   0.00000  Uiso   1.00
C51    C     0.91462   0.01911   0.84914   0.00000  Uiso   1.00
C52    C     0.87774   0.31520   0.72939   0.00000  Uiso   1.00
C53    C     0.89230   0.34363   0.63440   0.00000  Uiso   1.00
C54    C     0.84486   0.36136   0.56976   0.00000  Uiso   1.00
C55    C     0.78450   0.39878   0.43723   0.00000  Uiso   1.00
C56    C     0.90573   0.32255   0.91662   0.00000  Uiso   1.00
C57    C     0.94381   0.35719   0.97906   0.00000  Uiso   1.00
C58    C     0.91993   0.38112   0.07206   0.00000  Uiso   1.00
C59    C     0.90304   0.42995   0.23024   0.00000  Uiso   1.00
C60    C     0.81233   0.27306   0.86599   0.00000  Uiso   1.00
C61    C     0.84863   0.21521   0.85605   0.00000  Uiso   1.00
C62    C     0.82699   0.15753   0.87333   0.00000  Uiso   1.00
C63    C     0.86734   0.11052   0.86015   0.00000  Uiso   1.00
C64    C     0.81791   0.30484   0.75878   0.00000  Uiso   1.00
C65    C     0.77044   0.32253   0.69428   0.00000  Uiso   1.00
C66    C     0.78492   0.35099   0.59921   0.00000  Uiso   1.00
C67    C     0.84590   0.31219   0.94603   0.00000  Uiso   1.00
C68    C     0.82196   0.33608   0.03894   0.00000  Uiso   1.00
C69    C     0.86000   0.37074   0.10151   0.00000  Uiso   1.00
H70    H     0.96904   0.30019   0.78897   0.00000  Uiso   1.00
H71    H     0.99514   0.18666   0.79069   0.00000  Uiso   1.00
H72    H     0.93860   0.35165   0.61167   0.00000  Uiso   1.00
H73    H     0.99011   0.36519   0.95628   0.00000  Uiso   1.00
H74    H     0.99769   0.05622   0.80552   0.00000  Uiso   1.00
H75    H     0.87846   0.40412   0.42807   0.00000  Uiso   1.00
H76    H     0.98708   0.43269   0.15475   0.00000  Uiso   1.00
H77    H     0.76575   0.26499   0.88887   0.00000  Uiso   1.00
H78    H     0.78070   0.14953   0.89608   0.00000  Uiso   1.00
H79    H     0.72415   0.31451   0.71705   0.00000  Uiso   1.00
H80    H     0.77566   0.32806   0.06167   0.00000  Uiso   1.00
H81    H     0.82364   0.02608   0.89105   0.00000  Uiso   1.00
H82    H     0.70441   0.37399   0.51360   0.00000  Uiso   1.00
H83    H     0.81303   0.40255   0.24028   0.00000  Uiso   1.00
O84    O     0.92416   0.96583   0.85118   0.00000  Uiso   1.00
O85    O     0.76774   0.42227   0.35600   0.00000  Uiso   1.00
O86    O     0.91024   0.45974   0.30938   0.00000  Uiso   1.00
N87    N     0.95468   0.06497   0.82468   0.00000  Uiso   1.00
N88    N     0.84321   0.39023   0.47178   0.00000  Uiso   1.00
N89    N     0.94475   0.41695   0.15115   0.00000  Uiso   1.00
N90    N     0.86102   0.04876   0.87070   0.00000  Uiso   1.00
N91    N     0.74955   0.37402   0.51780   0.00000  Uiso   1.00
N92    N     0.85110   0.40073   0.19717   0.00000  Uiso   1.00
C93    C     0.79212   0.57753   0.31186   0.00000  Uiso   1.00
C94    C     0.72556   0.59154   0.32666   0.00000  Uiso   1.00
C95    C     0.67863   0.55115   0.31345   0.00000  Uiso   1.00
C96    C     0.62089   0.57272   0.33069   0.00000  Uiso   1.00
C97    C     0.51911   0.58538   0.34914   0.00000  Uiso   1.00
C98    C     0.81520   0.62226   0.22939   0.00000  Uiso   1.00
C99    C     0.84363   0.60770   0.13440   0.00000  Uiso   1.00
C100   C     0.86136   0.65514   0.06976   0.00000  Uiso   1.00
C101   C     0.89878   0.71550   0.93723   0.00000  Uiso   1.00
C102   C     0.82255   0.59427   0.41662   0.00000  Uiso   1.00
C103   C     0.85719   0.55619   0.47906   0.00000  Uiso   1.00
C104   C     0.88112   0.58007   0.57206   0.00000  Uiso   1.00
C105   C     0.92995   0.59696   0.73024   0.00000  Uiso   1.00
C106   C     0.77306   0.68767   0.36599   0.00000  Uiso   1.00
C107   C     0.71521   0.65137   0.35605   0.00000  Uiso   1.00
C108   C     0.65753   0.67301   0.37333   0.00000  Uiso   1.00
C109   C     0.61052   0.63266   0.36015   0.00000  Uiso   1.00
C110   C     0.80484   0.68209   0.25878   0.00000  Uiso   1.00
C111   C     0.82253   0.72956   0.19428   0.00000  Uiso   1.00
C112   C     0.85099   0.71508   0.09921   0.00000  Uiso   1.00
C113   C     0.81219   0.65410   0.44603   0.00000  Uiso   1.00
C114   C     0.83608   0.67804   0.53894   0.00000  Uiso   1.00
C115   C     0.87074   0.64000   0.60151   0.00000  Uiso   1.00
H116   H     0.80019   0.53096   0.28897   0.00000  Uiso   1.00
H117   H     0.68666   0.50486   0.29069   0.00000  Uiso   1.00
H118   H     0.85165   0.56140   0.11167   0.00000  Uiso   1.00
H119   H     0.86519   0.50989   0.45628   0.00000  Uiso   1.00
H120   H     0.55622   0.50231   0.30552   0.00000  Uiso   1.00
H121   H     0.90412   0.62154   0.92807   0.00000  Uiso   1.00
H122   H     0.93269   0.51292   0.65475   0.00000  Uiso   1.00
H123   H     0.76499   0.73425   0.38887   0.00000  Uiso   1.00
H124   H     0.64953   0.71930   0.39608   0.00000  Uiso   1.00
H125   H     0.81451   0.77585   0.21705   0.00000  Uiso   1.00
H126   H     0.82806   0.72434   0.56167   0.00000  Uiso   1.00
H127   H     0.52608   0.67636   0.39105   0.00000  Uiso   1.00
H128   H     0.87399   0.79559   0.01360   0.00000  Uiso   1.00
H129   H     0.90255   0.68697   0.74028   0.00000  Uiso   1.00
O130   O     0.46583   0.57584   0.35118   0.00000  Uiso   1.00
O131   O     0.92227   0.73226   0.85600   0.00000  Uiso   1.00
O132   O     0.95974   0.58976   0.80938   0.00000  Uiso   1.00
N133   N     0.56497   0.54532   0.32468   0.00000  Uiso   1.00
N134   N     0.89023   0.65679   0.97178   0.00000  Uiso   1.00
N135   N     0.91695   0.55525   0.65115   0.00000  Uiso   1.00
N136   N     0.54876   0.63898   0.37070   0.00000  Uiso   1.00
N137   N     0.87402   0.75045   0.01780   0.00000  Uiso   1.00
N138   N     0.90073   0.64890   0.69717   0.00000  Uiso   1.00
C139   C     0.20788   0.42247   0.31186   0.00000  Uiso   1.00
C140   C     0.27444   0.40846   0.32666   0.00000  Uiso   1.00
C141   C     0.32137   0.44885   0.31345   0.00000  Uiso   1.00
C142   C     0.37911   0.42728   0.33069   0.00000  Uiso   1.00
C143   C     0.48089   0.41462   0.34914   0.00000  Uiso   1.00
C144   C     0.18480   0.37774   0.22939   0.00000  Uiso   1.00
C145   C     0.15637   0.39230   0.13440   0.00000  Uiso   1.00
C146   C     0.13864   0.34486   0.06976   0.00000  Uiso   1.00
C147   C     0.10122   0.28450   0.93723   0.00000  Uiso   1.00
C148   C     0.17745   0.40573   0.41662   0.00000  Uiso   1.00
C149   C     0.14281   0.44381   0.47906   0.00000  Uiso   1.00
C150   C     0.11888   0.41993   0.57206   0.00000  Uiso   1.00
C151   C     0.07005   0.40304   0.73024   0.00000  Uiso   1.00
C152   C     0.22694   0.31233   0.36599   0.00000  Uiso   1.00
C153   C     0.28479   0.34863   0.35605   0.00000  Uiso   1.00
C154   C     0.34247   0.32699   0.37333   0.00000  Uiso   1.00
C155   C     0.38948   0.36734   0.36015   0.00000  Uiso   1.00
C156   C     0.19516   0.31791   0.25878   0.00000  Uiso   1.00
C157   C     0.17747   0.27044   0.19428   0.00000  Uiso   1.00
C158   C     0.14901   0.28492   0.09921   0.00000  Uiso   1.00
C159   C     0.18781   0.34590   0.44603   0.00000  Uiso   1.00
C160   C     0.16392   0.32196   0.53894   0.00000  Uiso   1.00
C161   C     0.12926   0.36000   0.60151   0.00000  Uiso   1.00
H162   H     0.19981   0.46904   0.28897   0.00000  Uiso   1.00
H163   H     0.31334   0.49514   0.29069   0.00000  Uiso   1.00
H164   H     0.14835   0.43860   0.11167   0.00000  Uiso   1.00
H165   H     0.13481   0.49011   0.45628   0.00000  Uiso   1.00
H166   H     0.44378   0.49769   0.30552   0.00000  Uiso   1.00
H167   H     0.09588   0.37846   0.92807   0.00000  Uiso   1.00
H168   H     0.06731   0.48708   0.65475   0.00000  Uiso   1.00
H169   H     0.23501   0.26575   0.38887   0.00000  Uiso   1.00
H170   H     0.35047   0.28070   0.39608   0.00000  Uiso   1.00
H171   H     0.18549   0.22415   0.21705   0.00000  Uiso   1.00
H172   H     0.17194   0.27566   0.56167   0.00000  Uiso   1.00
H173   H     0.47392   0.32364   0.39105   0.00000  Uiso   1.00
H174   H     0.12601   0.20441   0.01360   0.00000  Uiso   1.00
H175   H     0.09745   0.31303   0.74028   0.00000  Uiso   1.00
O176   O     0.53417   0.42416   0.35118   0.00000  Uiso   1.00
O177   O     0.07773   0.26774   0.85600   0.00000  Uiso   1.00
O178   O     0.04026   0.41024   0.80938   0.00000  Uiso   1.00
N179   N     0.43503   0.45468   0.32468   0.00000  Uiso   1.00
N180   N     0.10977   0.34321   0.97178   0.00000  Uiso   1.00
N181   N     0.08305   0.44475   0.65115   0.00000  Uiso   1.00
N182   N     0.45124   0.36102   0.37070   0.00000  Uiso   1.00
N183   N     0.12598   0.24955   0.01780   0.00000  Uiso   1.00
N184   N     0.09927   0.35110   0.69717   0.00000  Uiso   1.00
C185   C     0.42247   0.20788   0.68814   0.00000  Uiso   1.00
C186   C     0.40846   0.27444   0.67334   0.00000  Uiso   1.00
C187   C     0.44885   0.32137   0.68655   0.00000  Uiso   1.00
C188   C     0.42728   0.37911   0.66931   0.00000  Uiso   1.00
C189   C     0.41462   0.48089   0.65086   0.00000  Uiso   1.00
C190   C     0.37774   0.18480   0.77061   0.00000  Uiso   1.00
C191   C     0.39230   0.15637   0.86560   0.00000  Uiso   1.00
C192   C     0.34486   0.13864   0.93024   0.00000  Uiso   1.00
C193   C     0.28450   0.10122   0.06277   0.00000  Uiso   1.00
C194   C     0.40573   0.17745   0.58338   0.00000  Uiso   1.00
C195   C     0.44381   0.14281   0.52094   0.00000  Uiso   1.00
C196   C     0.41993   0.11888   0.42794   0.00000  Uiso   1.00
C197   C     0.40304   0.07005   0.26976   0.00000  Uiso   1.00
C198   C     0.31233   0.22694   0.63401   0.00000  Uiso   1.00
C199   C     0.34863   0.28479   0.64395   0.00000  Uiso   1.00
C200   C     0.32699   0.34247   0.62667   0.00000  Uiso   1.00
C201   C     0.36734   0.38948   0.63985   0.00000  Uiso   1.00
C202   C     0.31791   0.19516   0.74122   0.00000  Uiso   1.00
C203   C     0.27044   0.17747   0.80572   0.00000  Uiso   1.00
C204   C     0.28492   0.14901   0.90079   0.00000  Uiso   1.00
C205   C     0.34590   0.18781   0.55397   0.00000  Uiso   1.00
C206   C     0.32196   0.16392   0.46106   0.00000  Uiso   1.00
C207   C     0.36000   0.12926   0.39849   0.00000  Uiso   1.00
H208   H     0.46904   0.19981   0.71103   0.00000  Uiso   1.00
H209   H     0.49514   0.31334   0.70931   0.00000  Uiso   1.00
H210   H     0.43860   0.14835   0.88833   0.00000  Uiso   1.00
H211   H     0.49011   0.13481   0.54372   0.00000  Uiso   1.00
H212   H     0.49769   0.44378   0.69448   0.00000  Uiso   1.00
H213   H     0.37846   0.09588   0.07193   0.00000  Uiso   1.00
H214   H     0.48708   0.06731   0.34525   0.00000  Uiso   1.00
H215   H     0.26575   0.23501   0.61113   0.00000  Uiso   1.00
H216   H     0.28070   0.35047   0.60392   0.00000  Uiso   1.00
H217   H     0.22415   0.18549   0.78295   0.00000  Uiso   1.00
H218   H     0.27566   0.17194   0.43833   0.00000  Uiso   1.00
H219   H     0.32364   0.47392   0.60895   0.00000  Uiso   1.00
H220   H     0.20441   0.12601   0.98640   0.00000  Uiso   1.00
H221   H     0.31303   0.09745   0.25972   0.00000  Uiso   1.00
O222   O     0.42416   0.53417   0.64882   0.00000  Uiso   1.00
O223   O     0.26774   0.07773   0.14400   0.00000  Uiso   1.00
O224   O     0.41024   0.04026   0.19062   0.00000  Uiso   1.00
N225   N     0.45468   0.43503   0.67532   0.00000  Uiso   1.00
N226   N     0.34321   0.10977   0.02822   0.00000  Uiso   1.00
N227   N     0.44475   0.08305   0.34885   0.00000  Uiso   1.00
N228   N     0.36102   0.45124   0.62930   0.00000  Uiso   1.00
N229   N     0.24955   0.12598   0.98220   0.00000  Uiso   1.00
N230   N     0.35110   0.09927   0.30283   0.00000  Uiso   1.00
C231   C     0.57753   0.79212   0.68814   0.00000  Uiso   1.00
C232   C     0.59154   0.72556   0.67334   0.00000  Uiso   1.00
C233   C     0.55115   0.67863   0.68655   0.00000  Uiso   1.00
C234   C     0.57272   0.62089   0.66931   0.00000  Uiso   1.00
C235   C     0.58538   0.51911   0.65086   0.00000  Uiso   1.00
C236   C     0.62226   0.81520   0.77061   0.00000  Uiso   1.00
C237   C     0.60770   0.84363   0.86560   0.00000  Uiso   1.00
C238   C     0.65514   0.86136   0.93024   0.00000  Uiso   1.00
C239   C     0.71550   0.89878   0.06277   0.00000  Uiso   1.00
C240   C     0.59427   0.82255   0.58338   0.00000  Uiso   1.00
C241   C     0.55619   0.85719   0.52094   0.00000  Uiso   1.00
C242   C     0.58007   0.88112   0.42794   0.00000  Uiso   1.00
C243   C     0.59696   0.92995   0.26976   0.00000  Uiso   1.00
C244   C     0.68767   0.77306   0.63401   0.00000  Uiso   1.00
C245   C     0.65137   0.71521   0.64395   0.00000  Uiso   1.00
C246   C     0.67301   0.65753   0.62667   0.00000  Uiso   1.00
C247   C     0.63266   0.61052   0.63985   0.00000  Uiso   1.00
C248   C     0.68209   0.80484   0.74122   0.00000  Uiso   1.00
C249   C     0.72956   0.82253   0.80572   0.00000  Uiso   1.00
C250   C     0.71508   0.85099   0.90079   0.00000  Uiso   1.00
C251   C     0.65410   0.81219   0.55397   0.00000  Uiso   1.00
C252   C     0.67804   0.83608   0.46106   0.00000  Uiso   1.00
C253   C     0.64000   0.87074   0.39849   0.00000  Uiso   1.00
H254   H     0.53096   0.80019   0.71103   0.00000  Uiso   1.00
H255   H     0.50486   0.68666   0.70931   0.00000  Uiso   1.00
H256   H     0.56140   0.85165   0.88833   0.00000  Uiso   1.00
H257   H     0.50989   0.86519   0.54372   0.00000  Uiso   1.00
H258   H     0.50231   0.55622   0.69448   0.00000  Uiso   1.00
H259   H     0.62154   0.90412   0.07193   0.00000  Uiso   1.00
H260   H     0.51292   0.93269   0.34525   0.00000  Uiso   1.00
H261   H     0.73425   0.76499   0.61113   0.00000  Uiso   1.00
H262   H     0.71930   0.64953   0.60392   0.00000  Uiso   1.00
H263   H     0.77585   0.81451   0.78295   0.00000  Uiso   1.00
H264   H     0.72434   0.82806   0.43833   0.00000  Uiso   1.00
H265   H     0.67636   0.52608   0.60895   0.00000  Uiso   1.00
H266   H     0.79559   0.87399   0.98640   0.00000  Uiso   1.00
H267   H     0.68697   0.90255   0.25972   0.00000  Uiso   1.00
O268   O     0.57584   0.46583   0.64882   0.00000  Uiso   1.00
O269   O     0.73226   0.92227   0.14400   0.00000  Uiso   1.00
O270   O     0.58976   0.95974   0.19062   0.00000  Uiso   1.00
N271   N     0.54532   0.56497   0.67532   0.00000  Uiso   1.00
N272   N     0.65679   0.89023   0.02822   0.00000  Uiso   1.00
N273   N     0.55525   0.91695   0.34885   0.00000  Uiso   1.00
N274   N     0.63898   0.54876   0.62930   0.00000  Uiso   1.00
N275   N     0.75045   0.87402   0.98220   0.00000  Uiso   1.00
N276   N     0.64890   0.90073   0.30283   0.00000  Uiso   1.00
C277   C     0.70788   0.07753   0.18814   0.00000  Uiso   1.00
C278   C     0.77444   0.09154   0.17334   0.00000  Uiso   1.00
C279   C     0.82137   0.05115   0.18655   0.00000  Uiso   1.00
C280   C     0.87911   0.07272   0.16931   0.00000  Uiso   1.00
C281   C     0.98089   0.08538   0.15086   0.00000  Uiso   1.00
C282   C     0.68480   0.12226   0.27061   0.00000  Uiso   1.00
C283   C     0.65637   0.10770   0.36560   0.00000  Uiso   1.00
C284   C     0.63864   0.15514   0.43024   0.00000  Uiso   1.00
C285   C     0.60122   0.21550   0.56277   0.00000  Uiso   1.00
C286   C     0.67745   0.09427   0.08338   0.00000  Uiso   1.00
C287   C     0.64281   0.05619   0.02094   0.00000  Uiso   1.00
C288   C     0.61888   0.08007   0.92794   0.00000  Uiso   1.00
C289   C     0.57005   0.09696   0.76976   0.00000  Uiso   1.00
C290   C     0.72694   0.18767   0.13401   0.00000  Uiso   1.00
C291   C     0.78479   0.15137   0.14395   0.00000  Uiso   1.00
C292   C     0.84247   0.17301   0.12667   0.00000  Uiso   1.00
C293   C     0.88948   0.13266   0.13985   0.00000  Uiso   1.00
C294   C     0.69516   0.18209   0.24122   0.00000  Uiso   1.00
C295   C     0.67747   0.22956   0.30572   0.00000  Uiso   1.00
C296   C     0.64901   0.21508   0.40079   0.00000  Uiso   1.00
C297   C     0.68781   0.15410   0.05397   0.00000  Uiso   1.00
C298   C     0.66392   0.17804   0.96106   0.00000  Uiso   1.00
C299   C     0.62926   0.14000   0.89849   0.00000  Uiso   1.00
H300   H     0.69981   0.03096   0.21103   0.00000  Uiso   1.00
H301   H     0.81334   0.00486   0.20931   0.00000  Uiso   1.00
H302   H     0.64835   0.06140   0.38833   0.00000  Uiso   1.00
H303   H     0.63481   0.00989   0.04372   0.00000  Uiso   1.00
H304   H     0.94378   0.00231   0.19448   0.00000  Uiso   1.00
H305   H     0.59588   0.12154   0.57193   0.00000  Uiso   1.00
H306   H     0.56731   0.01292   0.84525   0.00000  Uiso   1.00
H307   H     0.73501   0.23425   0.11113   0.00000  Uiso   1.00
H308   H     0.85047   0.21930   0.10392   0.00000  Uiso   1.00
H309   H     0.68549   0.27585   0.28295   0.00000  Uiso   1.00
H310   H     0.67194   0.22434   0.93833   0.00000  Uiso   1.00
H311   H     0.97392   0.17636   0.10895   0.00000  Uiso   1.00
H312   H     0.62601   0.29559   0.48640   0.00000  Uiso   1.00
H313   H     0.59745   0.18697   0.75972   0.00000  Uiso   1.00
O314   O     0.03417   0.07584   0.14882   0.00000  Uiso   1.00
O315   O     0.57773   0.23226   0.64400   0.00000  Uiso   1.00
O316   O     0.54026   0.08976   0.69062   0.00000  Uiso   1.00
N317   N     0.93503   0.04532   0.17532   0.00000  Uiso   1.00
N318   N     0.60977   0.15679   0.52822   0.00000  Uiso   1.00
N319   N     0.58305   0.05525   0.84885   0.00000  Uiso   1.00
N320   N     0.95124   0.13898   0.12930   0.00000  Uiso   1.00
N321   N     0.62598   0.25045   0.48220   0.00000  Uiso   1.00
N322   N     0.59927   0.14890   0.80283   0.00000  Uiso   1.00
C323   C     0.29212   0.92247   0.18814   0.00000  Uiso   1.00
C324   C     0.22556   0.90846   0.17334   0.00000  Uiso   1.00
C325   C     0.17863   0.94885   0.18655   0.00000  Uiso   1.00
C326   C     0.12089   0.92728   0.16931   0.00000  Uiso   1.00
C327   C     0.01911   0.91462   0.15086   0.00000  Uiso   1.00
C328   C     0.31520   0.87774   0.27061   0.00000  Uiso   1.00
C329   C     0.34363   0.89230   0.36560   0.00000  Uiso   1.00
C330   C     0.36136   0.84486   0.43024   0.00000  Uiso   1.00
C331   C     0.39878   0.78450   0.56277   0.00000  Uiso   1.00
C332   C     0.32255   0.90573   0.08338   0.00000  Uiso   1.00
C333   C     0.35719   0.94381   0.02094   0.00000  Uiso   1.00
C334   C     0.38112   0.91993   0.92794   0.00000  Uiso   1.00
C335   C     0.42995   0.90304   0.76976   0.00000  Uiso   1.00
C336   C     0.27306   0.81233   0.13401   0.00000  Uiso   1.00
C337   C     0.21521   0.84863   0.14395   0.00000  Uiso   1.00
C338   C     0.15753   0.82699   0.12667   0.00000  Uiso   1.00
C339   C     0.11052   0.86734   0.13985   0.00000  Uiso   1.00
C340   C     0.30484   0.81791   0.24122   0.00000  Uiso   1.00
C341   C     0.32253   0.77044   0.30572   0.00000  Uiso   1.00
C342   C     0.35099   0.78492   0.40079   0.00000  Uiso   1.00
C343   C     0.31219   0.84590   0.05397   0.00000  Uiso   1.00
C344   C     0.33608   0.82196   0.96106   0.00000  Uiso   1.00
C345   C     0.37074   0.86000   0.89849   0.00000  Uiso   1.00
H346   H     0.30019   0.96904   0.21103   0.00000  Uiso   1.00
H347   H     0.18666   0.99514   0.20931   0.00000  Uiso   1.00
H348   H     0.35165   0.93860   0.38833   0.00000  Uiso   1.00
H349   H     0.36519   0.99011   0.04372   0.00000  Uiso   1.00
H350   H     0.05622   0.99769   0.19448   0.00000  Uiso   1.00
H351   H     0.40412   0.87846   0.57193   0.00000  Uiso   1.00
H352   H     0.43269   0.98708   0.84525   0.00000  Uiso   1.00
H353   H     0.26499   0.76575   0.11113   0.00000  Uiso   1.00
H354   H     0.14953   0.78070   0.10392   0.00000  Uiso   1.00
H355   H     0.31451   0.72415   0.28295   0.00000  Uiso   1.00
H356   H     0.32806   0.77566   0.93833   0.00000  Uiso   1.00
H357   H     0.02608   0.82364   0.10895   0.00000  Uiso   1.00
H358   H     0.37399   0.70441   0.48640   0.00000  Uiso   1.00
H359   H     0.40255   0.81303   0.75972   0.00000  Uiso   1.00
O360   O     0.96583   0.92416   0.14882   0.00000  Uiso   1.00
O361   O     0.42227   0.76774   0.64400   0.00000  Uiso   1.00
O362   O     0.45974   0.91024   0.69062   0.00000  Uiso   1.00
N363   N     0.06497   0.95468   0.17532   0.00000  Uiso   1.00
N364   N     0.39023   0.84321   0.52822   0.00000  Uiso   1.00
N365   N     0.41695   0.94475   0.84885   0.00000  Uiso   1.00
N366   N     0.04876   0.86102   0.12930   0.00000  Uiso   1.00
N367   N     0.37402   0.74955   0.48220   0.00000  Uiso   1.00
N368   N     0.40073   0.85110   0.80283   0.00000  Uiso   1.00
