data_job_06681
_audit_creation_date              2018-12-19
_audit_creation_method            'Materials Studio'
_symmetry_space_group_name_H-M    'P1'
_symmetry_Int_Tables_number       1
_symmetry_cell_setting            triclinic
loop_
_symmetry_equiv_pos_as_xyz
  x,y,z
_cell_length_a                    18.5821
_cell_length_b                    19.4437
_cell_length_c                    25.6455
_cell_angle_alpha                 73.0818
_cell_angle_beta                  97.8168
_cell_angle_gamma                 115.1560
loop_
_atom_site_label
_atom_site_type_symbol
_atom_site_fract_x
_atom_site_fract_y
_atom_site_fract_z
_atom_site_U_iso_or_equiv
_atom_site_adp_type
_atom_site_occupancy
C1     C     0.42190   0.21391   0.35245   0.00000  Uiso   1.00
C2     C     0.48369   0.20824   0.39724   0.00000  Uiso   1.00
C3     C     0.49096   0.22844   0.44593   0.00000  Uiso   1.00
C4     C     0.55137   0.21901   0.48157   0.00000  Uiso   1.00
C5     C     0.63955   0.21460   0.55304   0.00000  Uiso   1.00
C6     C     0.46855   0.26569   0.30060   0.00000  Uiso   1.00
C7     C     0.46308   0.33418   0.26803   0.00000  Uiso   1.00
C8     C     0.51074   0.37310   0.22232   0.00000  Uiso   1.00
C9     C     0.57537   0.45785   0.14373   0.00000  Uiso   1.00
C10    C     0.37812   0.13171   0.34354   0.00000  Uiso   1.00
C11    C     0.29661   0.08754   0.34706   0.00000  Uiso   1.00
C12    C     0.26813   0.01366   0.33748   0.00000  Uiso   1.00
C13    C     0.19235   0.89037   0.32556   0.00000  Uiso   1.00
C14    C     0.51626   0.16124   0.32917   0.00000  Uiso   1.00
C15    C     0.53495   0.17964   0.38460   0.00000  Uiso   1.00
C16    C     0.59536   0.17016   0.42017   0.00000  Uiso   1.00
C17    C     0.60271   0.19034   0.46891   0.00000  Uiso   1.00
C18    C     0.51981   0.23708   0.28796   0.00000  Uiso   1.00
C19    C     0.56748   0.27590   0.24228   0.00000  Uiso   1.00
C20    C     0.56209   0.34444   0.20965   0.00000  Uiso   1.00
C21    C     0.42938   0.10309   0.33090   0.00000  Uiso   1.00
C22    C     0.40102   0.02927   0.32131   0.00000  Uiso   1.00
C23    C     0.31948   0.98500   0.32481   0.00000  Uiso   1.00
H24    H     0.38199   0.23619   0.36229   0.00000  Uiso   1.00
H25    H     0.45128   0.25059   0.45570   0.00000  Uiso   1.00
H26    H     0.42340   0.35630   0.27783   0.00000  Uiso   1.00
H27    H     0.25696   0.10970   0.35684   0.00000  Uiso   1.00
H28    H     0.55072   0.25396   0.55368   0.00000  Uiso   1.00
H29    H     0.49192   0.47686   0.17861   0.00000  Uiso   1.00
H30    H     0.14094   0.95685   0.34523   0.00000  Uiso   1.00
H31    H     0.55617   0.13896   0.31932   0.00000  Uiso   1.00
H32    H     0.63502   0.14802   0.41038   0.00000  Uiso   1.00
H33    H     0.60714   0.25374   0.23250   0.00000  Uiso   1.00
H34    H     0.44070   0.00714   0.31152   0.00000  Uiso   1.00
H35    H     0.69985   0.17072   0.51689   0.00000  Uiso   1.00
H36    H     0.64104   0.39362   0.14183   0.00000  Uiso   1.00
H37    H     0.29007   0.87361   0.30845   0.00000  Uiso   1.00
O38    O     0.67403   0.22008   0.59595   0.00000  Uiso   1.00
O39    O     0.59686   0.51250   0.10388   0.00000  Uiso   1.00
O40    O     0.13640   0.83027   0.32248   0.00000  Uiso   1.00
N41    N     0.57499   0.23311   0.53253   0.00000  Uiso   1.00
N42    N     0.52002   0.44151   0.18187   0.00000  Uiso   1.00
N43    N     0.19189   0.95536   0.33763   0.00000  Uiso   1.00
N44    N     0.65523   0.18832   0.51273   0.00000  Uiso   1.00
N45    N     0.60026   0.39672   0.16208   0.00000  Uiso   1.00
N46    N     0.27213   0.91057   0.31784   0.00000  Uiso   1.00
C47    C     0.85512   0.11912   0.28972   0.00000  Uiso   1.00
C48    C     0.85535   0.18561   0.30994   0.00000  Uiso   1.00
C49    C     0.92229   0.24525   0.32432   0.00000  Uiso   1.00
C50    C     0.90997   0.30053   0.34185   0.00000  Uiso   1.00
C51    C     0.92197   0.40441   0.37281   0.00000  Uiso   1.00
C52    C     0.80169   0.04284   0.32830   0.00000  Uiso   1.00
C53    C     0.82351   0.98245   0.35812   0.00000  Uiso   1.00
C54    C     0.76601   0.91753   0.39109   0.00000  Uiso   1.00
C55    C     0.69468   0.79974   0.45053   0.00000  Uiso   1.00
C56    C     0.81175   0.12348   0.23473   0.00000  Uiso   1.00
C57    C     0.84202   0.13085   0.18586   0.00000  Uiso   1.00
C58    C     0.79299   0.13380   0.14005   0.00000  Uiso   1.00
C59    C     0.73728   0.14120   0.05420   0.00000  Uiso   1.00
C60    C     0.71420   0.11122   0.29526   0.00000  Uiso   1.00
C61    C     0.77881   0.18132   0.31295   0.00000  Uiso   1.00
C62    C     0.76638   0.23652   0.33045   0.00000  Uiso   1.00
C63    C     0.83329   0.29624   0.34486   0.00000  Uiso   1.00
C64    C     0.72515   0.03856   0.33131   0.00000  Uiso   1.00
C65    C     0.66760   0.97372   0.36425   0.00000  Uiso   1.00
C66    C     0.68933   0.91324   0.39411   0.00000  Uiso   1.00
C67    C     0.73521   0.11919   0.23773   0.00000  Uiso   1.00
C68    C     0.68611   0.12212   0.19199   0.00000  Uiso   1.00
C69    C     0.71631   0.12951   0.14307   0.00000  Uiso   1.00
H70    H     0.91471   0.12245   0.28738   0.00000  Uiso   1.00
H71    H     0.98152   0.24854   0.32199   0.00000  Uiso   1.00
H72    H     0.88275   0.98578   0.35578   0.00000  Uiso   1.00
H73    H     0.90126   0.13416   0.18355   0.00000  Uiso   1.00
H74    H     0.02183   0.38644   0.36171   0.00000  Uiso   1.00
H75    H     0.81356   0.83237   0.43293   0.00000  Uiso   1.00
H76    H     0.85259   0.14527   0.06975   0.00000  Uiso   1.00
H77    H     0.65461   0.10788   0.29761   0.00000  Uiso   1.00
H78    H     0.70714   0.23319   0.33278   0.00000  Uiso   1.00
H79    H     0.60837   0.97042   0.36656   0.00000  Uiso   1.00
H80    H     0.62688   0.11881   0.19433   0.00000  Uiso   1.00
H81    H     0.79913   0.37398   0.37047   0.00000  Uiso   1.00
H82    H     0.59087   0.81990   0.44169   0.00000  Uiso   1.00
H83    H     0.62990   0.13280   0.07851   0.00000  Uiso   1.00
O84    O     0.94973   0.46288   0.38906   0.00000  Uiso   1.00
O85    O     0.67649   0.73596   0.48249   0.00000  Uiso   1.00
O86    O     0.72770   0.14648   0.00601   0.00000  Uiso   1.00
N87    N     0.96221   0.36632   0.35894   0.00000  Uiso   1.00
N88    N     0.76750   0.84830   0.42553   0.00000  Uiso   1.00
N89    N     0.80398   0.14082   0.08599   0.00000  Uiso   1.00
N90    N     0.84238   0.35961   0.36365   0.00000  Uiso   1.00
N91    N     0.64767   0.84159   0.43024   0.00000  Uiso   1.00
N92    N     0.68415   0.13411   0.09070   0.00000  Uiso   1.00
C93    C     0.86653   0.55861   0.26977   0.00000  Uiso   1.00
C94    C     0.78518   0.53338   0.29301   0.00000  Uiso   1.00
C95    C     0.76330   0.49573   0.34696   0.00000  Uiso   1.00
C96    C     0.68609   0.47755   0.36007   0.00000  Uiso   1.00
C97    C     0.56788   0.43547   0.40215   0.00000  Uiso   1.00
C98    C     0.85142   0.51950   0.22340   0.00000  Uiso   1.00
C99    C     0.88525   0.47019   0.21881   0.00000  Uiso   1.00
C100   C     0.86380   0.44034   0.17332   0.00000  Uiso   1.00
C101   C     0.84847   0.37676   0.10731   0.00000  Uiso   1.00
C102   C     0.89568   0.64670   0.24312   0.00000  Uiso   1.00
C103   C     0.96673   0.70435   0.25510   0.00000  Uiso   1.00
C104   C     0.98256   0.78160   0.22620   0.00000  Uiso   1.00
C105   C     0.03594   0.91553   0.19081   0.00000  Uiso   1.00
C106   C     0.76831   0.59329   0.19712   0.00000  Uiso   1.00
C107   C     0.73183   0.55221   0.25355   0.00000  Uiso   1.00
C108   C     0.65463   0.53409   0.26658   0.00000  Uiso   1.00
C109   C     0.63264   0.49642   0.32054   0.00000  Uiso   1.00
C110   C     0.79807   0.53833   0.18394   0.00000  Uiso   1.00
C111   C     0.77657   0.50856   0.13844   0.00000  Uiso   1.00
C112   C     0.81035   0.45921   0.13379   0.00000  Uiso   1.00
C113   C     0.84233   0.66554   0.20366   0.00000  Uiso   1.00
C114   C     0.85805   0.74272   0.17473   0.00000  Uiso   1.00
C115   C     0.92911   0.80047   0.18667   0.00000  Uiso   1.00
H116   H     0.90807   0.54394   0.30049   0.00000  Uiso   1.00
H117   H     0.80461   0.48115   0.37748   0.00000  Uiso   1.00
H118   H     0.92654   0.45563   0.24936   0.00000  Uiso   1.00
H119   H     0.00800   0.68975   0.28564   0.00000  Uiso   1.00
H120   H     0.66637   0.41982   0.44544   0.00000  Uiso   1.00
H121   H     0.92348   0.36602   0.17527   0.00000  Uiso   1.00
H122   H     0.09527   0.85972   0.25178   0.00000  Uiso   1.00
H123   H     0.72677   0.60795   0.16639   0.00000  Uiso   1.00
H124   H     0.61335   0.54868   0.23603   0.00000  Uiso   1.00
H125   H     0.73528   0.52315   0.10791   0.00000  Uiso   1.00
H126   H     0.81675   0.75727   0.14419   0.00000  Uiso   1.00
H127   H     0.51113   0.47462   0.33063   0.00000  Uiso   1.00
H128   H     0.76825   0.42083   0.06046   0.00000  Uiso   1.00
H129   H     0.94004   0.91453   0.13697   0.00000  Uiso   1.00
O130   O     0.51741   0.40705   0.43626   0.00000  Uiso   1.00
O131   O     0.85475   0.33648   0.08180   0.00000  Uiso   1.00
O132   O     0.08012   0.98420   0.18219   0.00000  Uiso   1.00
N133   N     0.64540   0.44087   0.40887   0.00000  Uiso   1.00
N134   N     0.88578   0.39056   0.15627   0.00000  Uiso   1.00
N135   N     0.04640   0.85213   0.22780   0.00000  Uiso   1.00
N136   N     0.56187   0.47036   0.34709   0.00000  Uiso   1.00
N137   N     0.80225   0.42005   0.09450   0.00000  Uiso   1.00
N138   N     0.96287   0.88162   0.16602   0.00000  Uiso   1.00
C139   C     0.55645   0.74092   0.82791   0.00000  Uiso   1.00
C140   C     0.49086   0.73079   0.86300   0.00000  Uiso   1.00
C141   C     0.46113   0.67123   0.91005   0.00000  Uiso   1.00
C142   C     0.40116   0.67228   0.93631   0.00000  Uiso   1.00
C143   C     0.30377   0.64767   0.99387   0.00000  Uiso   1.00
C144   C     0.62056   0.82341   0.82484   0.00000  Uiso   1.00
C145   C     0.69989   0.84172   0.83979   0.00000  Uiso   1.00
C146   C     0.74909   0.92073   0.83392   0.00000  Uiso   1.00
C147   C     0.85308   0.03992   0.83220   0.00000  Uiso   1.00
C148   C     0.52117   0.74242   0.77053   0.00000  Uiso   1.00
C149   C     0.51694   0.69266   0.73980   0.00000  Uiso   1.00
C150   C     0.48248   0.70350   0.68819   0.00000  Uiso   1.00
C151   C     0.43215   0.69695   0.60214   0.00000  Uiso   1.00
C152   C     0.50279   0.84870   0.79090   0.00000  Uiso   1.00
C153   C     0.46172   0.78933   0.84290   0.00000  Uiso   1.00
C154   C     0.40177   0.79047   0.86910   0.00000  Uiso   1.00
C155   C     0.37196   0.73092   0.91617   0.00000  Uiso   1.00
C156   C     0.59142   0.88195   0.80474   0.00000  Uiso   1.00
C157   C     0.64052   0.96096   0.79884   0.00000  Uiso   1.00
C158   C     0.71990   0.97938   0.81378   0.00000  Uiso   1.00
C159   C     0.49202   0.80096   0.75042   0.00000  Uiso   1.00
C160   C     0.45757   0.81190   0.69885   0.00000  Uiso   1.00
C161   C     0.45329   0.76215   0.66805   0.00000  Uiso   1.00
H162   H     0.57914   0.69535   0.84356   0.00000  Uiso   1.00
H163   H     0.48371   0.62594   0.92559   0.00000  Uiso   1.00
H164   H     0.72242   0.79640   0.85534   0.00000  Uiso   1.00
H165   H     0.53950   0.64736   0.75537   0.00000  Uiso   1.00
H166   H     0.36507   0.57482   0.00768   0.00000  Uiso   1.00
H167   H     0.86842   0.93425   0.85954   0.00000  Uiso   1.00
H168   H     0.48270   0.61997   0.64872   0.00000  Uiso   1.00
H169   H     0.48010   0.89427   0.77525   0.00000  Uiso   1.00
H170   H     0.37923   0.83578   0.85353   0.00000  Uiso   1.00
H171   H     0.61795   0.00624   0.78328   0.00000  Uiso   1.00
H172   H     0.43502   0.85720   0.68331   0.00000  Uiso   1.00
H173   H     0.28027   0.74514   0.94920   0.00000  Uiso   1.00
H174   H     0.78362   0.10457   0.80105   0.00000  Uiso   1.00
H175   H     0.39790   0.79029   0.59024   0.00000  Uiso   1.00
O176   O     0.25811   0.61793   0.03118   0.00000  Uiso   1.00
O177   O     0.91849   0.08948   0.83681   0.00000  Uiso   1.00
O178   O     0.41243   0.67715   0.56023   0.00000  Uiso   1.00
N179   N     0.35894   0.62293   0.98317   0.00000  Uiso   1.00
N180   N     0.82954   0.95897   0.84467   0.00000  Uiso   1.00
N181   N     0.46894   0.66516   0.64757   0.00000  Uiso   1.00
N182   N     0.31331   0.71457   0.95170   0.00000  Uiso   1.00
N183   N     0.78391   0.05061   0.81320   0.00000  Uiso   1.00
N184   N     0.42331   0.75680   0.61610   0.00000  Uiso   1.00
C185   C     0.05738   0.71390   0.86093   0.00000  Uiso   1.00
C186   C     0.11384   0.77751   0.88832   0.00000  Uiso   1.00
C187   C     0.09601   0.79494   0.93244   0.00000  Uiso   1.00
C188   C     0.15579   0.85523   0.95155   0.00000  Uiso   1.00
C189   C     0.23208   0.94768   0.99777   0.00000  Uiso   1.00
C190   C     0.09953   0.66081   0.86304   0.00000  Uiso   1.00
C191   C     0.06966   0.58012   0.88591   0.00000  Uiso   1.00
C192   C     0.11739   0.54218   0.88373   0.00000  Uiso   1.00
C193   C     0.17144   0.45344   0.89068   0.00000  Uiso   1.00
C194   C     0.05326   0.75553   0.80092   0.00000  Uiso   1.00
C195   C     0.98448   0.75446   0.77155   0.00000  Uiso   1.00
C196   C     0.99326   0.79625   0.71706   0.00000  Uiso   1.00
C197   C     0.97546   0.85458   0.62755   0.00000  Uiso   1.00
C198   C     0.19526   0.78999   0.81640   0.00000  Uiso   1.00
C199   C     0.18874   0.81883   0.86413   0.00000  Uiso   1.00
C200   C     0.24856   0.87912   0.88317   0.00000  Uiso   1.00
C201   C     0.23082   0.89664   0.92732   0.00000  Uiso   1.00
C202   C     0.17442   0.70213   0.83886   0.00000  Uiso   1.00
C203   C     0.22221   0.66430   0.83664   0.00000  Uiso   1.00
C204   C     0.19242   0.58358   0.85950   0.00000  Uiso   1.00
C205   C     0.12816   0.79686   0.77673   0.00000  Uiso   1.00
C206   C     0.13704   0.83865   0.72228   0.00000  Uiso   1.00
C207   C     0.06828   0.83766   0.69283   0.00000  Uiso   1.00
H208   H     0.99908   0.68172   0.87977   0.00000  Uiso   1.00
H209   H     0.03805   0.76293   0.95116   0.00000  Uiso   1.00
H210   H     0.01170   0.54815   0.90462   0.00000  Uiso   1.00
H211   H     0.92654   0.72247   0.79028   0.00000  Uiso   1.00
H212   H     0.11429   0.87118   0.01965   0.00000  Uiso   1.00
H213   H     0.05872   0.41830   0.92152   0.00000  Uiso   1.00
H214   H     0.87914   0.78588   0.68040   0.00000  Uiso   1.00
H215   H     0.25357   0.82217   0.79757   0.00000  Uiso   1.00
H216   H     0.30651   0.91109   0.86445   0.00000  Uiso   1.00
H217   H     0.28016   0.69631   0.81792   0.00000  Uiso   1.00
H218   H     0.19500   0.87063   0.70357   0.00000  Uiso   1.00
H219   H     0.33218   0.99142   0.94928   0.00000  Uiso   1.00
H220   H     0.27661   0.53854   0.85114   0.00000  Uiso   1.00
H221   H     0.09704   0.90613   0.61003   0.00000  Uiso   1.00
O222   O     0.25348   0.98724   0.02995   0.00000  Uiso   1.00
O223   O     0.18056   0.39308   0.90120   0.00000  Uiso   1.00
O224   O     0.94496   0.87535   0.58486   0.00000  Uiso   1.00
N225   N     0.15830   0.88728   0.99390   0.00000  Uiso   1.00
N226   N     0.10635   0.46387   0.90216   0.00000  Uiso   1.00
N227   N     0.93846   0.80752   0.67673   0.00000  Uiso   1.00
N228   N     0.27555   0.95199   0.95603   0.00000  Uiso   1.00
N229   N     0.22360   0.52857   0.86430   0.00000  Uiso   1.00
N230   N     0.05571   0.87222   0.63887   0.00000  Uiso   1.00
C231   C     0.35715   0.15707   0.86450   0.00000  Uiso   1.00
C232   C     0.41116   0.11375   0.87202   0.00000  Uiso   1.00
C233   C     0.45693   0.10004   0.91808   0.00000  Uiso   1.00
C234   C     0.50233   0.05930   0.91696   0.00000  Uiso   1.00
C235   C     0.58622   0.99597   0.93557   0.00000  Uiso   1.00
C236   C     0.27471   0.10033   0.85099   0.00000  Uiso   1.00
C237   C     0.20575   0.07534   0.87936   0.00000  Uiso   1.00
C238   C     0.13628   0.02331   0.86053   0.00000  Uiso   1.00
C239   C     0.00832   0.93918   0.84647   0.00000  Uiso   1.00
C240   C     0.38504   0.22425   0.81301   0.00000  Uiso   1.00
C241   C     0.40884   0.30346   0.80945   0.00000  Uiso   1.00
C242   C     0.43224   0.35576   0.75865   0.00000  Uiso   1.00
C243   C     0.47559   0.46403   0.68562   0.00000  Uiso   1.00
C244   C     0.35638   0.10910   0.78061   0.00000  Uiso   1.00
C245   C     0.41074   0.08769   0.82645   0.00000  Uiso   1.00
C246   C     0.45608   0.04697   0.82526   0.00000  Uiso   1.00
C247   C     0.50191   0.03320   0.87131   0.00000  Uiso   1.00
C248   C     0.27429   0.07427   0.80542   0.00000  Uiso   1.00
C249   C     0.20490   0.02227   0.78654   0.00000  Uiso   1.00
C250   C     0.13585   0.99720   0.81488   0.00000  Uiso   1.00
C251   C     0.38463   0.19819   0.76744   0.00000  Uiso   1.00
C252   C     0.40799   0.25038   0.71663   0.00000  Uiso   1.00
C253   C     0.43182   0.32965   0.71300   0.00000  Uiso   1.00
H254   H     0.35747   0.17735   0.89998   0.00000  Uiso   1.00
H255   H     0.45723   0.12021   0.95334   0.00000  Uiso   1.00
H256   H     0.20609   0.09552   0.91462   0.00000  Uiso   1.00
H257   H     0.40915   0.32360   0.84472   0.00000  Uiso   1.00
H258   H     0.56763   0.04534   0.99241   0.00000  Uiso   1.00
H259   H     0.03808   0.99330   0.91076   0.00000  Uiso   1.00
H260   H     0.46627   0.47425   0.76337   0.00000  Uiso   1.00
H261   H     0.35605   0.08881   0.74513   0.00000  Uiso   1.00
H262   H     0.45574   0.02681   0.78999   0.00000  Uiso   1.00
H263   H     0.20460   0.00212   0.75128   0.00000  Uiso   1.00
H264   H     0.40765   0.23020   0.68138   0.00000  Uiso   1.00
H265   H     0.56642   0.96953   0.85983   0.00000  Uiso   1.00
H266   H     0.03686   0.91749   0.77818   0.00000  Uiso   1.00
H267   H     0.46505   0.39844   0.63079   0.00000  Uiso   1.00
O268   O     0.63261   0.96823   0.95843   0.00000  Uiso   1.00
O269   O     0.93786   0.89997   0.85131   0.00000  Uiso   1.00
O270   O     0.49963   0.53096   0.65793   0.00000  Uiso   1.00
N271   N     0.55368   0.03602   0.95504   0.00000  Uiso   1.00
N272   N     0.05858   0.98736   0.87872   0.00000  Uiso   1.00
N273   N     0.45888   0.43700   0.74091   0.00000  Uiso   1.00
N274   N     0.55303   0.99523   0.88371   0.00000  Uiso   1.00
N275   N     0.05793   0.94657   0.80738   0.00000  Uiso   1.00
N276   N     0.45823   0.39621   0.66957   0.00000  Uiso   1.00
C277   C     0.15176   0.35288   0.59087   0.00000  Uiso   1.00
C278   C     0.06604   0.34478   0.58128   0.00000  Uiso   1.00
C279   C     0.03735   0.38523   0.53558   0.00000  Uiso   1.00
C280   C     0.95705   0.36955   0.53456   0.00000  Uiso   1.00
C281   C     0.83150   0.36519   0.51310   0.00000  Uiso   1.00
C282   C     0.14826   0.27026   0.60098   0.00000  Uiso   1.00
C283   C     0.18871   0.24805   0.57185   0.00000  Uiso   1.00
C284   C     0.17763   0.16963   0.58742   0.00000  Uiso   1.00
C285   C     0.17978   0.04958   0.59656   0.00000  Uiso   1.00
C286   C     0.17820   0.37521   0.64479   0.00000  Uiso   1.00
C287   C     0.24385   0.44124   0.65250   0.00000  Uiso   1.00
C288   C     0.25799   0.45117   0.70495   0.00000  Uiso   1.00
C289   C     0.30664   0.49409   0.78211   0.00000  Uiso   1.00
C290   C     0.06015   0.25310   0.67031   0.00000  Uiso   1.00
C291   C     0.01628   0.29059   0.62443   0.00000  Uiso   1.00
C292   C     0.93600   0.27484   0.62348   0.00000  Uiso   1.00
C293   C     0.90720   0.31526   0.57779   0.00000  Uiso   1.00
C294   C     0.09850   0.21606   0.64413   0.00000  Uiso   1.00
C295   C     0.08736   0.13766   0.65975   0.00000  Uiso   1.00
C296   C     0.12778   0.11534   0.63065   0.00000  Uiso   1.00
C297   C     0.12844   0.32102   0.68794   0.00000  Uiso   1.00
C298   C     0.14249   0.33085   0.74039   0.00000  Uiso   1.00
C299   C     0.20814   0.39688   0.74818   0.00000  Uiso   1.00
H300   H     0.19050   0.39506   0.55727   0.00000  Uiso   1.00
H301   H     0.07588   0.42716   0.50220   0.00000  Uiso   1.00
H302   H     0.22722   0.29000   0.53846   0.00000  Uiso   1.00
H303   H     0.28234   0.48316   0.61909   0.00000  Uiso   1.00
H304   H     0.92685   0.43882   0.46015   0.00000  Uiso   1.00
H305   H     0.24598   0.14962   0.53664   0.00000  Uiso   1.00
H306   H     0.36223   0.55694   0.70666   0.00000  Uiso   1.00
H307   H     0.02141   0.21091   0.70391   0.00000  Uiso   1.00
H308   H     0.89750   0.23290   0.65688   0.00000  Uiso   1.00
H309   H     0.04885   0.09574   0.69314   0.00000  Uiso   1.00
H310   H     0.10397   0.28890   0.77377   0.00000  Uiso   1.00
H311   H     0.78207   0.28115   0.58570   0.00000  Uiso   1.00
H312   H     0.10121   0.99195   0.66218   0.00000  Uiso   1.00
H313   H     0.21745   0.39927   0.83220   0.00000  Uiso   1.00
O314   O     0.77600   0.37775   0.48933   0.00000  Uiso   1.00
O315   O     0.19470   0.99834   0.58968   0.00000  Uiso   1.00
O316   O     0.34721   0.53274   0.81275   0.00000  Uiso   1.00
N317   N     0.90978   0.39871   0.49616   0.00000  Uiso   1.00
N318   N     0.20815   0.12832   0.56766   0.00000  Uiso   1.00
N319   N     0.31683   0.50912   0.72662   0.00000  Uiso   1.00
N320   N     0.83188   0.31387   0.56371   0.00000  Uiso   1.00
N321   N     0.13024   0.04348   0.63521   0.00000  Uiso   1.00
N322   N     0.23893   0.42428   0.79418   0.00000  Uiso   1.00
C323   C     0.90080   0.45987   0.78711   0.00000  Uiso   1.00
C324   C     0.83478   0.42216   0.74897   0.00000  Uiso   1.00
C325   C     0.76490   0.43347   0.73642   0.00000  Uiso   1.00
C326   C     0.71203   0.39368   0.70065   0.00000  Uiso   1.00
C327   C     0.60703   0.34266   0.64481   0.00000  Uiso   1.00
C328   C     0.97660   0.50312   0.75375   0.00000  Uiso   1.00
C329   C     0.02597   0.58251   0.74522   0.00000  Uiso   1.00
C330   C     0.09248   0.61086   0.71347   0.00000  Uiso   1.00
C331   C     0.20769   0.68553   0.66508   0.00000  Uiso   1.00
C332   C     0.91181   0.39210   0.83036   0.00000  Uiso   1.00
C333   C     0.90673   0.37814   0.88626   0.00000  Uiso   1.00
C334   C     0.91872   0.31303   0.91901   0.00000  Uiso   1.00
C335   C     0.93334   0.21532   0.98958   0.00000  Uiso   1.00
C336   C     0.93115   0.36907   0.74589   0.00000  Uiso   1.00
C337   C     0.85127   0.37284   0.72658   0.00000  Uiso   1.00
C338   C     0.79849   0.33302   0.69081   0.00000  Uiso   1.00
C339   C     0.72854   0.34427   0.67822   0.00000  Uiso   1.00
C340   C     0.99309   0.45381   0.73136   0.00000  Uiso   1.00
C341   C     0.05955   0.48205   0.69961   0.00000  Uiso   1.00
C342   C     0.10900   0.56146   0.69104   0.00000  Uiso   1.00
C343   C     0.92830   0.34278   0.80797   0.00000  Uiso   1.00
C344   C     0.94031   0.27768   0.84065   0.00000  Uiso   1.00
C345   C     0.93523   0.26363   0.89658   0.00000  Uiso   1.00
H346   H     0.88797   0.49827   0.80454   0.00000  Uiso   1.00
H347   H     0.75217   0.47165   0.75376   0.00000  Uiso   1.00
H348   H     0.01320   0.62066   0.76256   0.00000  Uiso   1.00
H349   H     0.89397   0.41632   0.90357   0.00000  Uiso   1.00
H350   H     0.60890   0.42041   0.68756   0.00000  Uiso   1.00
H351   H     0.15930   0.73460   0.70614   0.00000  Uiso   1.00
H352   H     0.90789   0.30372   0.00349   0.00000  Uiso   1.00
H353   H     0.94399   0.33067   0.72845   0.00000  Uiso   1.00
H354   H     0.81126   0.29486   0.67349   0.00000  Uiso   1.00
H355   H     0.07229   0.44387   0.68230   0.00000  Uiso   1.00
H356   H     0.95306   0.23953   0.82330   0.00000  Uiso   1.00
H357   H     0.65686   0.27693   0.62241   0.00000  Uiso   1.00
H358   H     0.20727   0.59111   0.64099   0.00000  Uiso   1.00
H359   H     0.95585   0.16023   0.93834   0.00000  Uiso   1.00
O360   O     0.54457   0.32815   0.62019   0.00000  Uiso   1.00
O361   O     0.26668   0.74035   0.64458   0.00000  Uiso   1.00
O362   O     0.93684   0.17505   0.03468   0.00000  Uiso   1.00
N363   N     0.63840   0.39155   0.67978   0.00000  Uiso   1.00
N364   N     0.15298   0.68529   0.69714   0.00000  Uiso   1.00
N365   N     0.91796   0.28247   0.97514   0.00000  Uiso   1.00
N366   N     0.66420   0.31434   0.64472   0.00000  Uiso   1.00
N367   N     0.17879   0.60808   0.66209   0.00000  Uiso   1.00
N368   N     0.94376   0.20526   0.94008   0.00000  Uiso   1.00
C369   C     0.67476   0.93942   0.56279   0.00000  Uiso   1.00
C370   C     0.75799   0.00336   0.54857   0.00000  Uiso   1.00
C371   C     0.79155   0.03440   0.49725   0.00000  Uiso   1.00
C372   C     0.86844   0.09250   0.49266   0.00000  Uiso   1.00
C373   C     0.99131   0.18784   0.46371   0.00000  Uiso   1.00
C374   C     0.63317   0.97409   0.58848   0.00000  Uiso   1.00
C375   C     0.56178   0.98052   0.57072   0.00000  Uiso   1.00
C376   C     0.53360   0.01396   0.59973   0.00000  Uiso   1.00
C377   C     0.46266   0.06381   0.63276   0.00000  Uiso   1.00
C378   C     0.68579   0.87370   0.60825   0.00000  Uiso   1.00
C379   C     0.65862   0.79570   0.60714   0.00000  Uiso   1.00
C380   C     0.67473   0.74463   0.65280   0.00000  Uiso   1.00
C381   C     0.68549   0.63860   0.71654   0.00000  Uiso   1.00
C382   C     0.75163   0.98740   0.64588   0.00000  Uiso   1.00
C383   C     0.79974   0.02942   0.59370   0.00000  Uiso   1.00
C384   C     0.87661   0.08748   0.58919   0.00000  Uiso   1.00
C385   C     0.91028   0.11860   0.53787   0.00000  Uiso   1.00
C386   C     0.67492   0.00015   0.63361   0.00000  Uiso   1.00
C387   C     0.64684   0.03359   0.66265   0.00000  Uiso   1.00
C388   C     0.57543   0.04007   0.64494   0.00000  Uiso   1.00
C389   C     0.72755   0.89976   0.65339   0.00000  Uiso   1.00
C390   C     0.74369   0.84879   0.69907   0.00000  Uiso   1.00
C391   C     0.71656   0.77073   0.69802   0.00000  Uiso   1.00
H392   H     0.64224   0.91914   0.52765   0.00000  Uiso   1.00
H393   H     0.75921   0.01423   0.46234   0.00000  Uiso   1.00
H394   H     0.52948   0.96034   0.53580   0.00000  Uiso   1.00
H395   H     0.62631   0.77556   0.57220   0.00000  Uiso   1.00
H396   H     0.90730   0.13116   0.40982   0.00000  Uiso   1.00
H397   H     0.42287   0.01751   0.56473   0.00000  Uiso   1.00
H398   H     0.62707   0.62787   0.64150   0.00000  Uiso   1.00
H399   H     0.78415   0.00769   0.68102   0.00000  Uiso   1.00
H400   H     0.90891   0.10763   0.62412   0.00000  Uiso   1.00
H401   H     0.67917   0.05375   0.69758   0.00000  Uiso   1.00
H402   H     0.77601   0.86897   0.73398   0.00000  Uiso   1.00
H403   H     0.02880   0.20698   0.54113   0.00000  Uiso   1.00
H404   H     0.54437   0.09332   0.69604   0.00000  Uiso   1.00
H405   H     0.74857   0.70369   0.77281   0.00000  Uiso   1.00
O406   O     0.04755   0.23324   0.43528   0.00000  Uiso   1.00
O407   O     0.41200   0.08412   0.63851   0.00000  Uiso   1.00
O408   O     0.67990   0.57292   0.73923   0.00000  Uiso   1.00
N409   N     0.91878   0.13528   0.44854   0.00000  Uiso   1.00
N410   N     0.46588   0.02903   0.59336   0.00000  Uiso   1.00
N411   N     0.65676   0.66475   0.66514   0.00000  Uiso   1.00
N412   N     0.98415   0.17607   0.51919   0.00000  Uiso   1.00
N413   N     0.53125   0.06983   0.66401   0.00000  Uiso   1.00
N414   N     0.72214   0.70554   0.73580   0.00000  Uiso   1.00
C415   C     0.14925   0.74307   0.17220   0.00000  Uiso   1.00
C416   C     0.23039   0.78969   0.14537   0.00000  Uiso   1.00
C417   C     0.27555   0.86973   0.13833   0.00000  Uiso   1.00
C418   C     0.34817   0.90133   0.11283   0.00000  Uiso   1.00
C419   C     0.47012   0.98086   0.07386   0.00000  Uiso   1.00
C420   C     0.09311   0.70368   0.13028   0.00000  Uiso   1.00
C421   C     0.02283   0.71140   0.11055   0.00000  Uiso   1.00
C422   C     0.97989   0.67059   0.07235   0.00000  Uiso   1.00
C423   C     0.88867   0.61654   0.00998   0.00000  Uiso   1.00
C424   C     0.15761   0.67675   0.21849   0.00000  Uiso   1.00
C425   C     0.14156   0.66180   0.27293   0.00000  Uiso   1.00
C426   C     0.15290   0.59830   0.30900   0.00000  Uiso   1.00
C427   C     0.16183   0.50244   0.38358   0.00000  Uiso   1.00
C428   C     0.19792   0.65686   0.13944   0.00000  Uiso   1.00
C429   C     0.25682   0.74287   0.12758   0.00000  Uiso   1.00
C430   C     0.32940   0.77436   0.10208   0.00000  Uiso   1.00
C431   C     0.37466   0.85442   0.09500   0.00000  Uiso   1.00
C432   C     0.11954   0.65686   0.11249   0.00000  Uiso   1.00
C433   C     0.07668   0.61603   0.07431   0.00000  Uiso   1.00
C434   C     0.00637   0.62368   0.05452   0.00000  Uiso   1.00
C435   C     0.18405   0.62993   0.20070   0.00000  Uiso   1.00
C436   C     0.19541   0.56644   0.23669   0.00000  Uiso   1.00
C437   C     0.17938   0.55140   0.29117   0.00000  Uiso   1.00
H438   H     0.12867   0.77952   0.18605   0.00000  Uiso   1.00
H439   H     0.25507   0.90594   0.15210   0.00000  Uiso   1.00
H440   H     0.00239   0.74763   0.12433   0.00000  Uiso   1.00
H441   H     0.12110   0.69805   0.28669   0.00000  Uiso   1.00
H442   H     0.40685   0.02547   0.10659   0.00000  Uiso   1.00
H443   H     0.87405   0.69164   0.04806   0.00000  Uiso   1.00
H444   H     0.12437   0.58708   0.39041   0.00000  Uiso   1.00
H445   H     0.21850   0.62041   0.12559   0.00000  Uiso   1.00
H446   H     0.34984   0.73811   0.08832   0.00000  Uiso   1.00
H447   H     0.09715   0.57980   0.06055   0.00000  Uiso   1.00
H448   H     0.21586   0.53021   0.22290   0.00000  Uiso   1.00
H449   H     0.48377   0.88925   0.05482   0.00000  Uiso   1.00
H450   H     0.95096   0.55542   0.99629   0.00000  Uiso   1.00
H451   H     0.20128   0.45086   0.33864   0.00000  Uiso   1.00
O452   O     0.53008   0.03766   0.05727   0.00000  Uiso   1.00
O453   O     0.83105   0.59968   0.98048   0.00000  Uiso   1.00
O454   O     0.15947   0.46250   0.42964   0.00000  Uiso   1.00
N455   N     0.40694   0.97725   0.09954   0.00000  Uiso   1.00
N456   N     0.90881   0.66515   0.04480   0.00000  Uiso   1.00
N457   N     0.14281   0.56738   0.36487   0.00000  Uiso   1.00
N458   N     0.44833   0.90395   0.07168   0.00000  Uiso   1.00
N459   N     0.95019   0.59185   0.01695   0.00000  Uiso   1.00
N460   N     0.18420   0.49409   0.33701   0.00000  Uiso   1.00
C461   C     0.68417   0.88801   0.16245   0.00000  Uiso   1.00
C462   C     0.66992   0.83110   0.12810   0.00000  Uiso   1.00
C463   C     0.67621   0.85105   0.07187   0.00000  Uiso   1.00
C464   C     0.66078   0.79043   0.04807   0.00000  Uiso   1.00
C465   C     0.64180   0.71388   0.98996   0.00000  Uiso   1.00
C466   C     0.60812   0.85627   0.19433   0.00000  Uiso   1.00
C467   C     0.56246   0.89740   0.19379   0.00000  Uiso   1.00
C468   C     0.49501   0.85796   0.22576   0.00000  Uiso   1.00
C469   C     0.38013   0.82051   0.27050   0.00000  Uiso   1.00
C470   C     0.74799   0.87857   0.20450   0.00000  Uiso   1.00
C471   C     0.81994   0.93844   0.21251   0.00000  Uiso   1.00
C472   C     0.87025   0.91777   0.25305   0.00000  Uiso   1.00
C473   C     0.97254   0.91494   0.31357   0.00000  Uiso   1.00
C474   C     0.64556   0.74486   0.22021   0.00000  Uiso   1.00
C475   C     0.64894   0.75335   0.15947   0.00000  Uiso   1.00
C476   C     0.63350   0.69267   0.13576   0.00000  Uiso   1.00
C477   C     0.63977   0.71253   0.07950   0.00000  Uiso   1.00
C478   C     0.58715   0.77852   0.22570   0.00000  Uiso   1.00
C479   C     0.51975   0.73902   0.25769   0.00000  Uiso   1.00
C480   C     0.47400   0.78007   0.25718   0.00000  Uiso   1.00
C481   C     0.72703   0.80081   0.23587   0.00000  Uiso   1.00
C482   C     0.77723   0.78005   0.27640   0.00000  Uiso   1.00
C483   C     0.84924   0.83988   0.28447   0.00000  Uiso   1.00
H484   H     0.70049   0.94855   0.13803   0.00000  Uiso   1.00
H485   H     0.69244   0.91123   0.04760   0.00000  Uiso   1.00
H486   H     0.57871   0.95757   0.16951   0.00000  Uiso   1.00
H487   H     0.83615   0.99860   0.18822   0.00000  Uiso   1.00
H488   H     0.67423   0.83557   0.96118   0.00000  Uiso   1.00
H489   H     0.43445   0.93328   0.21824   0.00000  Uiso   1.00
H490   H     0.97731   0.01980   0.25771   0.00000  Uiso   1.00
H491   H     0.62923   0.68433   0.24463   0.00000  Uiso   1.00
H492   H     0.61727   0.63251   0.16005   0.00000  Uiso   1.00
H493   H     0.50354   0.67885   0.28196   0.00000  Uiso   1.00
H494   H     0.76098   0.71988   0.30067   0.00000  Uiso   1.00
H495   H     0.61322   0.60935   0.05244   0.00000  Uiso   1.00
H496   H     0.37344   0.70706   0.30951   0.00000  Uiso   1.00
H497   H     0.91630   0.79358   0.34897   0.00000  Uiso   1.00
O498   O     0.63712   0.69313   0.94925   0.00000  Uiso   1.00
O499   O     0.32255   0.82133   0.28651   0.00000  Uiso   1.00
O500   O     0.03476   0.93485   0.33828   0.00000  Uiso   1.00
N501   N     0.66153   0.78944   0.99427   0.00000  Uiso   1.00
N502   N     0.43734   0.88079   0.23460   0.00000  Uiso   1.00
N503   N     0.94486   0.96168   0.27150   0.00000  Uiso   1.00
N504   N     0.62870   0.66771   0.04338   0.00000  Uiso   1.00
N505   N     0.40452   0.75906   0.28371   0.00000  Uiso   1.00
N506   N     0.91203   0.83996   0.32061   0.00000  Uiso   1.00
C507   C     0.15263   0.24442   0.23088   0.00000  Uiso   1.00
C508   C     0.13906   0.30384   0.18120   0.00000  Uiso   1.00
C509   C     0.06594   0.29811   0.15699   0.00000  Uiso   1.00
C510   C     0.06609   0.35856   0.11186   0.00000  Uiso   1.00
C511   C     0.03426   0.44109   0.03777   0.00000  Uiso   1.00
C512   C     0.21108   0.21953   0.21326   0.00000  Uiso   1.00
C513   C     0.19851   0.14291   0.21603   0.00000  Uiso   1.00
C514   C     0.25928   0.13239   0.19790   0.00000  Uiso   1.00
C515   C     0.33928   0.08402   0.17363   0.00000  Uiso   1.00
C516   C     0.19704   0.29045   0.27275   0.00000  Uiso   1.00
C517   C     0.17268   0.27345   0.32554   0.00000  Uiso   1.00
C518   C     0.22165   0.32264   0.35750   0.00000  Uiso   1.00
C519   C     0.27986   0.38439   0.42558   0.00000  Uiso   1.00
C520   C     0.28292   0.36198   0.19377   0.00000  Uiso   1.00
C521   C     0.20983   0.36769   0.16104   0.00000  Uiso   1.00
C522   C     0.21009   0.42818   0.11594   0.00000  Uiso   1.00
C523   C     0.13698   0.42254   0.09167   0.00000  Uiso   1.00
C524   C     0.28184   0.28338   0.19311   0.00000  Uiso   1.00
C525   C     0.34265   0.27297   0.17497   0.00000  Uiso   1.00
C526   C     0.33018   0.19636   0.17771   0.00000  Uiso   1.00
C527   C     0.26781   0.35431   0.25259   0.00000  Uiso   1.00
C528   C     0.31683   0.40352   0.28448   0.00000  Uiso   1.00
C529   C     0.29255   0.38661   0.33730   0.00000  Uiso   1.00
H530   H     0.09754   0.19471   0.24657   0.00000  Uiso   1.00
H531   H     0.01119   0.24868   0.17260   0.00000  Uiso   1.00
H532   H     0.14374   0.09351   0.23164   0.00000  Uiso   1.00
H533   H     0.11792   0.22404   0.34112   0.00000  Uiso   1.00
H534   H     0.94667   0.33667   0.08169   0.00000  Uiso   1.00
H535   H     0.22616   0.00947   0.20619   0.00000  Uiso   1.00
H536   H     0.17172   0.28471   0.43706   0.00000  Uiso   1.00
H537   H     0.33801   0.41169   0.17808   0.00000  Uiso   1.00
H538   H     0.26486   0.47758   0.10035   0.00000  Uiso   1.00
H539   H     0.39741   0.32240   0.15938   0.00000  Uiso   1.00
H540   H     0.37159   0.45293   0.26887   0.00000  Uiso   1.00
H541   H     0.15255   0.52245   0.02304   0.00000  Uiso   1.00
H542   H     0.43205   0.19525   0.14754   0.00000  Uiso   1.00
H543   H     0.37760   0.47049   0.37841   0.00000  Uiso   1.00
O544   O     0.99715   0.46897   0.00246   0.00000  Uiso   1.00
O545   O     0.36384   0.03970   0.16580   0.00000  Uiso   1.00
O546   O     0.29241   0.40081   0.46870   0.00000  Uiso   1.00
N547   N     0.00516   0.37136   0.07856   0.00000  Uiso   1.00
N548   N     0.26647   0.06545   0.19495   0.00000  Uiso   1.00
N549   N     0.21558   0.32276   0.41080   0.00000  Uiso   1.00
N550   N     0.11595   0.47133   0.04701   0.00000  Uiso   1.00
N551   N     0.37725   0.16542   0.16339   0.00000  Uiso   1.00
N552   N     0.32636   0.42273   0.37925   0.00000  Uiso   1.00
