data_job_06459
_audit_creation_date              2018-12-19
_audit_creation_method            'Materials Studio'
_symmetry_space_group_name_H-M    'P1'
_symmetry_Int_Tables_number       1
_symmetry_cell_setting            triclinic
loop_
_symmetry_equiv_pos_as_xyz
  x,y,z
_cell_length_a                    20.4283
_cell_length_b                    20.7845
_cell_length_c                    23.5679
_cell_angle_alpha                 87.3946
_cell_angle_beta                  115.3061
_cell_angle_gamma                 63.1156
loop_
_atom_site_label
_atom_site_type_symbol
_atom_site_fract_x
_atom_site_fract_y
_atom_site_fract_z
_atom_site_U_iso_or_equiv
_atom_site_adp_type
_atom_site_occupancy
C1     C     0.90698   0.24433   0.47345   0.00000  Uiso   1.00
C2     C     0.92476   0.17025   0.50912   0.00000  Uiso   1.00
C3     C     0.99078   0.09867   0.52156   0.00000  Uiso   1.00
C4     C     0.99616   0.03804   0.55487   0.00000  Uiso   1.00
C5     C     0.03265   0.92138   0.60717   0.00000  Uiso   1.00
C6     C     0.81601   0.28383   0.41614   0.00000  Uiso   1.00
C7     C     0.79061   0.30777   0.35040   0.00000  Uiso   1.00
C8     C     0.70445   0.34276   0.30544   0.00000  Uiso   1.00
C9     C     0.57210   0.40249   0.21338   0.00000  Uiso   1.00
C10    C     0.90626   0.29235   0.52046   0.00000  Uiso   1.00
C11    C     0.95671   0.32347   0.54243   0.00000  Uiso   1.00
C12    C     0.94651   0.36565   0.58530   0.00000  Uiso   1.00
C13    C     0.95428   0.43861   0.65523   0.00000  Uiso   1.00
C14    C     0.79912   0.26393   0.51048   0.00000  Uiso   1.00
C15    C     0.86617   0.18090   0.52923   0.00000  Uiso   1.00
C16    C     0.87145   0.12036   0.56253   0.00000  Uiso   1.00
C17    C     0.93747   0.04870   0.57502   0.00000  Uiso   1.00
C18    C     0.75743   0.29448   0.43625   0.00000  Uiso   1.00
C19    C     0.67128   0.32945   0.39137   0.00000  Uiso   1.00
C20    C     0.64575   0.35343   0.32559   0.00000  Uiso   1.00
C21    C     0.84767   0.30300   0.54058   0.00000  Uiso   1.00
C22    C     0.83738   0.34515   0.58341   0.00000  Uiso   1.00
C23    C     0.88782   0.37632   0.60545   0.00000  Uiso   1.00
H24    H     0.95259   0.23605   0.45778   0.00000  Uiso   1.00
H25    H     0.03611   0.09046   0.50598   0.00000  Uiso   1.00
H26    H     0.83597   0.29953   0.33485   0.00000  Uiso   1.00
H27    H     0.00204   0.31522   0.52686   0.00000  Uiso   1.00
H28    H     0.10284   0.93374   0.56826   0.00000  Uiso   1.00
H29    H     0.68084   0.37459   0.20743   0.00000  Uiso   1.00
H30    H     0.03104   0.40769   0.61231   0.00000  Uiso   1.00
H31    H     0.75350   0.27222   0.52614   0.00000  Uiso   1.00
H32    H     0.82610   0.12861   0.57809   0.00000  Uiso   1.00
H33    H     0.62596   0.33768   0.40696   0.00000  Uiso   1.00
H34    H     0.79204   0.35337   0.59897   0.00000  Uiso   1.00
H35    H     0.93239   0.96470   0.62679   0.00000  Uiso   1.00
H36    H     0.51038   0.40556   0.26595   0.00000  Uiso   1.00
H37    H     0.86059   0.43866   0.67084   0.00000  Uiso   1.00
O38    O     0.06895   0.85410   0.63045   0.00000  Uiso   1.00
O39    O     0.51529   0.43249   0.15705   0.00000  Uiso   1.00
O40    O     0.97475   0.47591   0.68825   0.00000  Uiso   1.00
N41    N     0.05278   0.96073   0.57492   0.00000  Uiso   1.00
N42    N     0.65822   0.37290   0.23756   0.00000  Uiso   1.00
N43    N     0.98562   0.40386   0.61608   0.00000  Uiso   1.00
N44    N     0.96106   0.97740   0.60641   0.00000  Uiso   1.00
N45    N     0.56651   0.38956   0.26905   0.00000  Uiso   1.00
N46    N     0.89390   0.42052   0.64757   0.00000  Uiso   1.00
C47    C     0.70484   0.85660   0.53757   0.00000  Uiso   1.00
C48    C     0.67813   0.90819   0.57733   0.00000  Uiso   1.00
C49    C     0.61559   0.92014   0.59233   0.00000  Uiso   1.00
C50    C     0.60060   0.96949   0.62925   0.00000  Uiso   1.00
C51    C     0.55211   0.04415   0.68775   0.00000  Uiso   1.00
C52    C     0.69431   0.90602   0.48071   0.00000  Uiso   1.00
C53    C     0.64538   0.91613   0.41448   0.00000  Uiso   1.00
C54    C     0.64403   0.96364   0.37007   0.00000  Uiso   1.00
C55    C     0.62070   0.03489   0.27858   0.00000  Uiso   1.00
C56    C     0.80004   0.80107   0.58130   0.00000  Uiso   1.00
C57    C     0.84003   0.72293   0.59964   0.00000  Uiso   1.00
C58    C     0.92771   0.68208   0.63991   0.00000  Uiso   1.00
C59    C     0.06856   0.59036   0.70459   0.00000  Uiso   1.00
C60    C     0.78944   0.92297   0.57647   0.00000  Uiso   1.00
C61    C     0.72408   0.94425   0.59846   0.00000  Uiso   1.00
C62    C     0.70919   0.99358   0.63537   0.00000  Uiso   1.00
C63    C     0.64664   0.00560   0.65042   0.00000  Uiso   1.00
C64    C     0.74026   0.94207   0.50184   0.00000  Uiso   1.00
C65    C     0.73898   0.98957   0.45752   0.00000  Uiso   1.00
C66    C     0.69006   0.99976   0.39124   0.00000  Uiso   1.00
C67    C     0.84600   0.83712   0.60244   0.00000  Uiso   1.00
C68    C     0.93363   0.79637   0.64268   0.00000  Uiso   1.00
C69    C     0.97375   0.71819   0.66107   0.00000  Uiso   1.00
H70    H     0.66906   0.82853   0.52111   0.00000  Uiso   1.00
H71    H     0.58003   0.89224   0.57596   0.00000  Uiso   1.00
H72    H     0.60983   0.88822   0.39815   0.00000  Uiso   1.00
H73    H     0.80445   0.69505   0.58327   0.00000  Uiso   1.00
H74    H     0.50158   0.97879   0.64607   0.00000  Uiso   1.00
H75    H     0.56443   0.97030   0.27114   0.00000  Uiso   1.00
H76    H     0.97483   0.56297   0.66152   0.00000  Uiso   1.00
H77    H     0.82522   0.95104   0.59292   0.00000  Uiso   1.00
H78    H     0.74476   0.02148   0.65171   0.00000  Uiso   1.00
H79    H     0.77455   0.01746   0.47389   0.00000  Uiso   1.00
H80    H     0.96917   0.82429   0.65902   0.00000  Uiso   1.00
H81    H     0.63527   0.08369   0.70755   0.00000  Uiso   1.00
H82    H     0.69813   0.07520   0.33261   0.00000  Uiso   1.00
H83    H     0.10852   0.66786   0.72299   0.00000  Uiso   1.00
O84    O     0.51266   0.07538   0.71418   0.00000  Uiso   1.00
O85    O     0.59513   0.06423   0.22227   0.00000  Uiso   1.00
O86    O     0.13356   0.52982   0.73444   0.00000  Uiso   1.00
N87    N     0.54410   0.99380   0.65249   0.00000  Uiso   1.00
N88    N     0.60285   0.98587   0.30194   0.00000  Uiso   1.00
N89    N     0.98654   0.60505   0.66690   0.00000  Uiso   1.00
N90    N     0.61604   0.05024   0.68557   0.00000  Uiso   1.00
N91    N     0.67479   0.04232   0.33502   0.00000  Uiso   1.00
N92    N     0.05848   0.66149   0.69998   0.00000  Uiso   1.00
C93    C     0.32004   0.45736   0.44410   0.00000  Uiso   1.00
C94    C     0.41268   0.42876   0.49346   0.00000  Uiso   1.00
C95    C     0.44673   0.47355   0.51420   0.00000  Uiso   1.00
C96    C     0.53293   0.43657   0.55964   0.00000  Uiso   1.00
C97    C     0.66913   0.40417   0.63263   0.00000  Uiso   1.00
C98    C     0.32083   0.42038   0.38979   0.00000  Uiso   1.00
C99    C     0.27765   0.45812   0.32337   0.00000  Uiso   1.00
C100   C     0.28654   0.41408   0.28154   0.00000  Uiso   1.00
C101   C     0.28009   0.36866   0.19358   0.00000  Uiso   1.00
C102   C     0.29004   0.42335   0.47907   0.00000  Uiso   1.00
C103   C     0.22095   0.46359   0.48770   0.00000  Uiso   1.00
C104   C     0.20390   0.42205   0.52103   0.00000  Uiso   1.00
C105   C     0.14965   0.38125   0.57169   0.00000  Uiso   1.00
C106   C     0.41259   0.31203   0.48791   0.00000  Uiso   1.00
C107   C     0.46294   0.34982   0.51725   0.00000  Uiso   1.00
C108   C     0.54912   0.31276   0.56267   0.00000  Uiso   1.00
C109   C     0.58329   0.35749   0.58348   0.00000  Uiso   1.00
C110   C     0.37110   0.34144   0.41358   0.00000  Uiso   1.00
C111   C     0.38004   0.29733   0.37184   0.00000  Uiso   1.00
C112   C     0.33689   0.33500   0.30537   0.00000  Uiso   1.00
C113   C     0.34031   0.34441   0.50287   0.00000  Uiso   1.00
C114   C     0.32335   0.30280   0.53618   0.00000  Uiso   1.00
C115   C     0.25426   0.34297   0.54486   0.00000  Uiso   1.00
H116   H     0.28090   0.51882   0.42557   0.00000  Uiso   1.00
H117   H     0.40781   0.53464   0.49577   0.00000  Uiso   1.00
H118   H     0.23875   0.51921   0.30497   0.00000  Uiso   1.00
H119   H     0.18207   0.52468   0.46928   0.00000  Uiso   1.00
H120   H     0.57067   0.51737   0.58407   0.00000  Uiso   1.00
H121   H     0.21419   0.48484   0.18175   0.00000  Uiso   1.00
H122   H     0.09466   0.49637   0.52824   0.00000  Uiso   1.00
H123   H     0.45172   0.25057   0.50644   0.00000  Uiso   1.00
H124   H     0.58800   0.25167   0.58108   0.00000  Uiso   1.00
H125   H     0.41895   0.23624   0.39027   0.00000  Uiso   1.00
H126   H     0.36227   0.24171   0.55458   0.00000  Uiso   1.00
H127   H     0.71693   0.28770   0.65331   0.00000  Uiso   1.00
H128   H     0.36044   0.25517   0.25099   0.00000  Uiso   1.00
H129   H     0.24092   0.26670   0.59747   0.00000  Uiso   1.00
O130   O     0.73037   0.40810   0.66631   0.00000  Uiso   1.00
O131   O     0.26266   0.36542   0.13849   0.00000  Uiso   1.00
O132   O     0.10585   0.38055   0.59307   0.00000  Uiso   1.00
N133   N     0.58639   0.46317   0.59013   0.00000  Uiso   1.00
N134   N     0.25311   0.43275   0.21399   0.00000  Uiso   1.00
N135   N     0.14135   0.44353   0.53791   0.00000  Uiso   1.00
N136   N     0.66509   0.33958   0.62739   0.00000  Uiso   1.00
N137   N     0.33180   0.30917   0.25125   0.00000  Uiso   1.00
N138   N     0.22005   0.31995   0.57517   0.00000  Uiso   1.00
C139   C     0.92416   0.34644   0.98370   0.00000  Uiso   1.00
C140   C     0.94347   0.39703   0.02442   0.00000  Uiso   1.00
C141   C     0.01021   0.40850   0.03989   0.00000  Uiso   1.00
C142   C     0.01698   0.45692   0.07768   0.00000  Uiso   1.00
C143   C     0.05575   0.53008   0.13762   0.00000  Uiso   1.00
C144   C     0.83310   0.39675   0.92711   0.00000  Uiso   1.00
C145   C     0.80706   0.40797   0.86076   0.00000  Uiso   1.00
C146   C     0.72092   0.45615   0.81664   0.00000  Uiso   1.00
C147   C     0.58833   0.52882   0.72551   0.00000  Uiso   1.00
C148   C     0.92282   0.29051   0.02670   0.00000  Uiso   1.00
C149   C     0.97219   0.21240   0.04408   0.00000  Uiso   1.00
C150   C     0.96157   0.17113   0.08380   0.00000  Uiso   1.00
C151   C     0.96828   0.07886   0.14729   0.00000  Uiso   1.00
C152   C     0.81750   0.41204   0.02332   0.00000  Uiso   1.00
C153   C     0.88553   0.43266   0.04594   0.00000  Uiso   1.00
C154   C     0.89220   0.48107   0.08373   0.00000  Uiso   1.00
C155   C     0.95895   0.49261   0.09925   0.00000  Uiso   1.00
C156   C     0.77517   0.43238   0.94863   0.00000  Uiso   1.00
C157   C     0.68905   0.48054   0.90460   0.00000  Uiso   1.00
C158   C     0.66288   0.49184   0.83821   0.00000  Uiso   1.00
C159   C     0.86488   0.32613   0.04823   0.00000  Uiso   1.00
C160   C     0.85418   0.28498   0.08792   0.00000  Uiso   1.00
C161   C     0.90353   0.20683   0.10536   0.00000  Uiso   1.00
H162   H     0.96926   0.31870   0.96694   0.00000  Uiso   1.00
H163   H     0.05503   0.38092   0.02321   0.00000  Uiso   1.00
H164   H     0.85191   0.38038   0.84412   0.00000  Uiso   1.00
H165   H     0.01701   0.18485   0.02741   0.00000  Uiso   1.00
H166   H     0.12455   0.46563   0.09508   0.00000  Uiso   1.00
H167   H     0.69625   0.46448   0.71745   0.00000  Uiso   1.00
H168   H     0.04441   0.05216   0.10395   0.00000  Uiso   1.00
H169   H     0.77239   0.43978   0.04008   0.00000  Uiso   1.00
H170   H     0.84736   0.50864   0.10038   0.00000  Uiso   1.00
H171   H     0.64423   0.50810   0.92128   0.00000  Uiso   1.00
H172   H     0.80934   0.31257   0.10457   0.00000  Uiso   1.00
H173   H     0.95599   0.56930   0.15771   0.00000  Uiso   1.00
H174   H     0.52769   0.56814   0.78008   0.00000  Uiso   1.00
H175   H     0.87586   0.15582   0.16658   0.00000  Uiso   1.00
O176   O     0.09312   0.56060   0.16472   0.00000  Uiso   1.00
O177   O     0.53121   0.55907   0.66929   0.00000  Uiso   1.00
O178   O     0.98799   0.01812   0.17637   0.00000  Uiso   1.00
N179   N     0.07460   0.48057   0.10156   0.00000  Uiso   1.00
N180   N     0.67417   0.47950   0.74850   0.00000  Uiso   1.00
N181   N     0.99966   0.09401   0.10983   0.00000  Uiso   1.00
N182   N     0.98391   0.53635   0.13526   0.00000  Uiso   1.00
N183   N     0.58347   0.53528   0.78219   0.00000  Uiso   1.00
N184   N     0.90896   0.14979   0.14353   0.00000  Uiso   1.00
C185   C     0.68350   0.90954   0.04056   0.00000  Uiso   1.00
C186   C     0.66296   0.86965   0.08040   0.00000  Uiso   1.00
C187   C     0.60619   0.90464   0.10235   0.00000  Uiso   1.00
C188   C     0.59629   0.85821   0.13804   0.00000  Uiso   1.00
C189   C     0.55748   0.80823   0.19785   0.00000  Uiso   1.00
C190   C     0.66529   0.88499   0.97830   0.00000  Uiso   1.00
C191   C     0.61047   0.93287   0.91441   0.00000  Uiso   1.00
C192   C     0.60254   0.89934   0.86415   0.00000  Uiso   1.00
C193   C     0.56739   0.87316   0.76545   0.00000  Uiso   1.00
C194   C     0.77939   0.87485   0.07967   0.00000  Uiso   1.00
C195   C     0.82052   0.91421   0.10100   0.00000  Uiso   1.00
C196   C     0.90867   0.87216   0.13609   0.00000  Uiso   1.00
C197   C     0.05067   0.83025   0.19479   0.00000  Uiso   1.00
C198   C     0.76689   0.76487   0.06492   0.00000  Uiso   1.00
C199   C     0.70826   0.79107   0.09362   0.00000  Uiso   1.00
C200   C     0.69845   0.74458   0.12929   0.00000  Uiso   1.00
C201   C     0.64167   0.77949   0.15129   0.00000  Uiso   1.00
C202   C     0.71058   0.80641   0.99152   0.00000  Uiso   1.00
C203   C     0.70273   0.77280   0.94135   0.00000  Uiso   1.00
C204   C     0.64792   0.82062   0.87740   0.00000  Uiso   1.00
C205   C     0.82468   0.79627   0.09290   0.00000  Uiso   1.00
C206   C     0.91278   0.75415   0.12795   0.00000  Uiso   1.00
C207   C     0.95404   0.79344   0.14933   0.00000  Uiso   1.00
H208   H     0.64824   0.97072   0.03026   0.00000  Uiso   1.00
H209   H     0.57115   0.96546   0.09210   0.00000  Uiso   1.00
H210   H     0.57544   0.99367   0.90419   0.00000  Uiso   1.00
H211   H     0.78545   0.97502   0.09076   0.00000  Uiso   1.00
H212   H     0.50562   0.92496   0.16646   0.00000  Uiso   1.00
H213   H     0.51470   0.98447   0.77025   0.00000  Uiso   1.00
H214   H     0.95756   0.94514   0.16367   0.00000  Uiso   1.00
H215   H     0.80215   0.70369   0.07521   0.00000  Uiso   1.00
H216   H     0.73350   0.68377   0.13952   0.00000  Uiso   1.00
H217   H     0.73779   0.71199   0.95161   0.00000  Uiso   1.00
H218   H     0.94781   0.69334   0.13818   0.00000  Uiso   1.00
H219   H     0.63739   0.69634   0.20495   0.00000  Uiso   1.00
H220   H     0.64647   0.75584   0.80873   0.00000  Uiso   1.00
H221   H     0.08933   0.71651   0.20215   0.00000  Uiso   1.00
O222   O     0.52355   0.80237   0.22718   0.00000  Uiso   1.00
O223   O     0.53547   0.88044   0.70736   0.00000  Uiso   1.00
O224   O     0.11649   0.82884   0.22352   0.00000  Uiso   1.00
N225   N     0.54607   0.87389   0.16671   0.00000  Uiso   1.00
N226   N     0.55454   0.92952   0.79627   0.00000  Uiso   1.00
N227   N     0.96858   0.89276   0.16407   0.00000  Uiso   1.00
N228   N     0.61698   0.75087   0.18742   0.00000  Uiso   1.00
N229   N     0.62545   0.80650   0.81698   0.00000  Uiso   1.00
N230   N     0.03948   0.76974   0.18478   0.00000  Uiso   1.00
C231   C     0.31635   0.73945   0.93305   0.00000  Uiso   1.00
C232   C     0.40874   0.67834   0.98056   0.00000  Uiso   1.00
C233   C     0.43905   0.60241   0.00420   0.00000  Uiso   1.00
C234   C     0.52572   0.55556   0.04724   0.00000  Uiso   1.00
C235   C     0.66094   0.45639   0.11815   0.00000  Uiso   1.00
C236   C     0.31542   0.77582   0.87483   0.00000  Uiso   1.00
C237   C     0.26726   0.78186   0.80957   0.00000  Uiso   1.00
C238   C     0.27536   0.81709   0.76361   0.00000  Uiso   1.00
C239   C     0.26564   0.86931   0.67036   0.00000  Uiso   1.00
C240   C     0.29342   0.79969   0.96733   0.00000  Uiso   1.00
C241   C     0.22674   0.82583   0.97984   0.00000  Uiso   1.00
C242   C     0.21632   0.88117   0.01174   0.00000  Uiso   1.00
C243   C     0.17244   0.97045   0.06211   0.00000  Uiso   1.00
C244   C     0.41638   0.79128   0.96745   0.00000  Uiso   1.00
C245   C     0.46308   0.70649   0.99924   0.00000  Uiso   1.00
C246   C     0.54973   0.65975   0.04226   0.00000  Uiso   1.00
C247   C     0.58016   0.58376   0.06597   0.00000  Uiso   1.00
C248   C     0.36975   0.80397   0.89351   0.00000  Uiso   1.00
C249   C     0.37793   0.83921   0.84764   0.00000  Uiso   1.00
C250   C     0.32979   0.84529   0.78233   0.00000  Uiso   1.00
C251   C     0.34776   0.82785   0.98602   0.00000  Uiso   1.00
C252   C     0.33743   0.88316   0.01790   0.00000  Uiso   1.00
C253   C     0.27075   0.90937   0.03046   0.00000  Uiso   1.00
H254   H     0.27404   0.71753   0.91850   0.00000  Uiso   1.00
H255   H     0.39698   0.58064   0.98972   0.00000  Uiso   1.00
H256   H     0.22521   0.76008   0.79513   0.00000  Uiso   1.00
H257   H     0.18471   0.80403   0.96537   0.00000  Uiso   1.00
H258   H     0.55725   0.44129   0.07691   0.00000  Uiso   1.00
H259   H     0.19503   0.81966   0.66659   0.00000  Uiso   1.00
H260   H     0.10963   0.91234   0.02558   0.00000  Uiso   1.00
H261   H     0.45868   0.81320   0.98200   0.00000  Uiso   1.00
H262   H     0.59176   0.68155   0.05672   0.00000  Uiso   1.00
H263   H     0.41998   0.86099   0.86212   0.00000  Uiso   1.00
H264   H     0.37948   0.90494   0.03236   0.00000  Uiso   1.00
H265   H     0.71534   0.52319   0.13128   0.00000  Uiso   1.00
H266   H     0.35311   0.90156   0.72096   0.00000  Uiso   1.00
H267   H     0.26772   0.99424   0.07995   0.00000  Uiso   1.00
O268   O     0.72051   0.39391   0.15209   0.00000  Uiso   1.00
O269   O     0.24528   0.89033   0.61376   0.00000  Uiso   1.00
O270   O     0.13324   0.01192   0.08474   0.00000  Uiso   1.00
N271   N     0.57619   0.47863   0.07947   0.00000  Uiso   1.00
N272   N     0.23755   0.83237   0.69584   0.00000  Uiso   1.00
N273   N     0.15769   0.91904   0.03145   0.00000  Uiso   1.00
N274   N     0.66126   0.52270   0.10872   0.00000  Uiso   1.00
N275   N     0.32261   0.87644   0.72510   0.00000  Uiso   1.00
N276   N     0.24276   0.96311   0.06070   0.00000  Uiso   1.00
C277   C     0.03800   0.79561   0.45071   0.00000  Uiso   1.00
C278   C     0.02341   0.86781   0.41468   0.00000  Uiso   1.00
C279   C     0.95904   0.94068   0.40146   0.00000  Uiso   1.00
C280   C     0.95654   0.99918   0.36794   0.00000  Uiso   1.00
C281   C     0.92483   0.11341   0.31499   0.00000  Uiso   1.00
C282   C     0.12878   0.75458   0.50847   0.00000  Uiso   1.00
C283   C     0.15299   0.73225   0.57411   0.00000  Uiso   1.00
C284   C     0.23920   0.69543   0.61953   0.00000  Uiso   1.00
C285   C     0.37107   0.63384   0.71219   0.00000  Uiso   1.00
C286   C     0.03721   0.74683   0.40430   0.00000  Uiso   1.00
C287   C     0.98445   0.71795   0.38236   0.00000  Uiso   1.00
C288   C     0.99357   0.67459   0.34009   0.00000  Uiso   1.00
C289   C     0.98326   0.60096   0.27101   0.00000  Uiso   1.00
C290   C     0.14803   0.76993   0.41467   0.00000  Uiso   1.00
C291   C     0.08318   0.85386   0.39510   0.00000  Uiso   1.00
C292   C     0.08078   0.91227   0.36158   0.00000  Uiso   1.00
C293   C     0.01641   0.98521   0.34832   0.00000  Uiso   1.00
C294   C     0.18854   0.74064   0.48889   0.00000  Uiso   1.00
C295   C     0.27473   0.70384   0.53423   0.00000  Uiso   1.00
C296   C     0.29907   0.68146   0.59992   0.00000  Uiso   1.00
C297   C     0.09697   0.73288   0.38472   0.00000  Uiso   1.00
C298   C     0.10618   0.68955   0.34248   0.00000  Uiso   1.00
C299   C     0.05344   0.66062   0.32048   0.00000  Uiso   1.00
H300   H     0.99147   0.80646   0.46596   0.00000  Uiso   1.00
H301   H     0.91280   0.95145   0.41663   0.00000  Uiso   1.00
H302   H     0.10673   0.74305   0.58924   0.00000  Uiso   1.00
H303   H     0.93821   0.72876   0.39752   0.00000  Uiso   1.00
H304   H     0.85196   0.10604   0.35332   0.00000  Uiso   1.00
H305   H     0.26087   0.66659   0.71729   0.00000  Uiso   1.00
H306   H     0.90550   0.63646   0.31301   0.00000  Uiso   1.00
H307   H     0.19456   0.75907   0.39943   0.00000  Uiso   1.00
H308   H     0.12704   0.90145   0.34644   0.00000  Uiso   1.00
H309   H     0.32096   0.69305   0.51906   0.00000  Uiso   1.00
H310   H     0.15244   0.67877   0.32734   0.00000  Uiso   1.00
H311   H     0.02584   0.06547   0.29636   0.00000  Uiso   1.00
H312   H     0.43475   0.62601   0.66032   0.00000  Uiso   1.00
H313   H     0.07938   0.59589   0.25605   0.00000  Uiso   1.00
O314   O     0.89084   0.18028   0.29121   0.00000  Uiso   1.00
O315   O     0.42730   0.60373   0.76871   0.00000  Uiso   1.00
O316   O     0.96106   0.56420   0.23831   0.00000  Uiso   1.00
N317   N     0.90214   0.07695   0.34718   0.00000  Uiso   1.00
N318   N     0.28444   0.66610   0.68746   0.00000  Uiso   1.00
N319   N     0.95222   0.63792   0.30951   0.00000  Uiso   1.00
N320   N     0.99571   0.05512   0.31652   0.00000  Uiso   1.00
N321   N     0.37801   0.64427   0.65681   0.00000  Uiso   1.00
N322   N     0.04578   0.61608   0.27886   0.00000  Uiso   1.00
C323   C     0.24500   0.19087   0.38501   0.00000  Uiso   1.00
C324   C     0.27441   0.14095   0.34519   0.00000  Uiso   1.00
C325   C     0.33573   0.13335   0.33013   0.00000  Uiso   1.00
C326   C     0.35364   0.08487   0.29316   0.00000  Uiso   1.00
C327   C     0.40573   0.01332   0.23457   0.00000  Uiso   1.00
C328   C     0.25853   0.13877   0.44187   0.00000  Uiso   1.00
C329   C     0.30647   0.12936   0.50810   0.00000  Uiso   1.00
C330   C     0.31101   0.07905   0.55251   0.00000  Uiso   1.00
C331   C     0.33837   0.00417   0.64402   0.00000  Uiso   1.00
C332   C     0.14915   0.24313   0.34133   0.00000  Uiso   1.00
C333   C     0.10512   0.32147   0.32304   0.00000  Uiso   1.00
C334   C     0.01756   0.35902   0.28282   0.00000  Uiso   1.00
C335   C     0.87510   0.44617   0.21823   0.00000  Uiso   1.00
C336   C     0.16778   0.11827   0.34612   0.00000  Uiso   1.00
C337   C     0.23247   0.10151   0.32406   0.00000  Uiso   1.00
C338   C     0.25030   0.05303   0.28710   0.00000  Uiso   1.00
C339   C     0.31163   0.04536   0.27200   0.00000  Uiso   1.00
C340   C     0.21659   0.09934   0.42075   0.00000  Uiso   1.00
C341   C     0.22104   0.04903   0.46507   0.00000  Uiso   1.00
C342   C     0.26899   0.03954   0.53135   0.00000  Uiso   1.00
C343   C     0.10720   0.20370   0.32020   0.00000  Uiso   1.00
C344   C     0.01969   0.24114   0.28001   0.00000  Uiso   1.00
C345   C     0.97554   0.31952   0.26166   0.00000  Uiso   1.00
H346   H     0.27765   0.22157   0.40146   0.00000  Uiso   1.00
H347   H     0.36818   0.16387   0.34649   0.00000  Uiso   1.00
H348   H     0.33892   0.15989   0.52443   0.00000  Uiso   1.00
H349   H     0.13760   0.35196   0.33940   0.00000  Uiso   1.00
H350   H     0.45007   0.08250   0.27626   0.00000  Uiso   1.00
H351   H     0.38835   0.07411   0.65145   0.00000  Uiso   1.00
H352   H     0.96383   0.47914   0.26128   0.00000  Uiso   1.00
H353   H     0.13513   0.08757   0.32967   0.00000  Uiso   1.00
H354   H     0.21783   0.02252   0.27076   0.00000  Uiso   1.00
H355   H     0.18857   0.01853   0.44871   0.00000  Uiso   1.00
H356   H     0.98726   0.21061   0.26368   0.00000  Uiso   1.00
H357   H     0.32804   0.96776   0.21480   0.00000  Uiso   1.00
H358   H     0.26632   0.95938   0.58999   0.00000  Uiso   1.00
H359   H     0.84180   0.36441   0.19982   0.00000  Uiso   1.00
O360   O     0.44605   0.98474   0.20809   0.00000  Uiso   1.00
O361   O     0.36507   0.97375   0.70033   0.00000  Uiso   1.00
O362   O     0.80811   0.50514   0.18843   0.00000  Uiso   1.00
N363   N     0.40999   0.06443   0.26987   0.00000  Uiso   1.00
N364   N     0.35229   0.05658   0.62065   0.00000  Uiso   1.00
N365   N     0.95540   0.43525   0.25589   0.00000  Uiso   1.00
N366   N     0.34432   0.00270   0.23679   0.00000  Uiso   1.00
N367   N     0.28663   0.99485   0.58758   0.00000  Uiso   1.00
N368   N     0.88974   0.37352   0.22281   0.00000  Uiso   1.00
C369   C     0.61399   0.59344   0.47817   0.00000  Uiso   1.00
C370   C     0.52175   0.62105   0.42850   0.00000  Uiso   1.00
C371   C     0.48898   0.57546   0.40733   0.00000  Uiso   1.00
C372   C     0.40293   0.61160   0.36166   0.00000  Uiso   1.00
C373   C     0.26751   0.64247   0.28814   0.00000  Uiso   1.00
C374   C     0.61207   0.62994   0.53257   0.00000  Uiso   1.00
C375   C     0.65525   0.59183   0.59890   0.00000  Uiso   1.00
C376   C     0.64524   0.63547   0.64084   0.00000  Uiso   1.00
C377   C     0.65010   0.68015   0.72891   0.00000  Uiso   1.00
C378   C     0.64335   0.62886   0.44366   0.00000  Uiso   1.00
C379   C     0.71285   0.58985   0.43526   0.00000  Uiso   1.00
C380   C     0.72918   0.63257   0.40236   0.00000  Uiso   1.00
C381   C     0.78261   0.67557   0.35238   0.00000  Uiso   1.00
C382   C     0.51945   0.73869   0.43470   0.00000  Uiso   1.00
C383   C     0.47040   0.69994   0.40489   0.00000  Uiso   1.00
C384   C     0.38438   0.73616   0.35924   0.00000  Uiso   1.00
C385   C     0.35148   0.69064   0.33800   0.00000  Uiso   1.00
C386   C     0.56072   0.70883   0.50896   0.00000  Uiso   1.00
C387   C     0.55065   0.75253   0.55081   0.00000  Uiso   1.00
C388   C     0.59380   0.71450   0.61719   0.00000  Uiso   1.00
C389   C     0.59200   0.70775   0.42005   0.00000  Uiso   1.00
C390   C     0.60824   0.75055   0.38716   0.00000  Uiso   1.00
C391   C     0.67774   0.71161   0.37871   0.00000  Uiso   1.00
H392   H     0.65397   0.53202   0.49655   0.00000  Uiso   1.00
H393   H     0.52874   0.51441   0.42561   0.00000  Uiso   1.00
H394   H     0.69499   0.53078   0.61716   0.00000  Uiso   1.00
H395   H     0.75257   0.52880   0.45353   0.00000  Uiso   1.00
H396   H     0.36725   0.52968   0.33657   0.00000  Uiso   1.00
H397   H     0.71782   0.56420   0.74046   0.00000  Uiso   1.00
H398   H     0.83924   0.56001   0.39543   0.00000  Uiso   1.00
H399   H     0.47947   0.80011   0.41632   0.00000  Uiso   1.00
H400   H     0.34466   0.79722   0.34098   0.00000  Uiso   1.00
H401   H     0.51091   0.81358   0.53252   0.00000  Uiso   1.00
H402   H     0.56849   0.81160   0.36890   0.00000  Uiso   1.00
H403   H     0.21784   0.75922   0.26788   0.00000  Uiso   1.00
H404   H     0.56842   0.79374   0.67177   0.00000  Uiso   1.00
H405   H     0.68983   0.78955   0.32673   0.00000  Uiso   1.00
O406   O     0.20700   0.63771   0.25412   0.00000  Uiso   1.00
O407   O     0.66696   0.68300   0.78401   0.00000  Uiso   1.00
O408   O     0.82625   0.67750   0.33133   0.00000  Uiso   1.00
N409   N     0.35059   0.58410   0.33073   0.00000  Uiso   1.00
N410   N     0.67834   0.61638   0.70834   0.00000  Uiso   1.00
N411   N     0.79187   0.61246   0.38578   0.00000  Uiso   1.00
N412   N     0.27019   0.70761   0.29377   0.00000  Uiso   1.00
N413   N     0.59795   0.73989   0.67138   0.00000  Uiso   1.00
N414   N     0.71148   0.73597   0.34882   0.00000  Uiso   1.00
C415   C     0.00862   0.70323   0.93985   0.00000  Uiso   1.00
C416   C     0.98917   0.65330   0.89834   0.00000  Uiso   1.00
C417   C     0.92373   0.64018   0.88384   0.00000  Uiso   1.00
C418   C     0.91656   0.59272   0.84507   0.00000  Uiso   1.00
C419   C     0.87782   0.52019   0.78420   0.00000  Uiso   1.00
C420   C     0.10065   0.65317   0.99500   0.00000  Uiso   1.00
C421   C     0.12894   0.63996   0.06178   0.00000  Uiso   1.00
C422   C     0.21563   0.59240   0.10439   0.00000  Uiso   1.00
C423   C     0.34998   0.51972   0.19358   0.00000  Uiso   1.00
C424   C     0.00707   0.76145   0.89670   0.00000  Uiso   1.00
C425   C     0.95670   0.83928   0.88085   0.00000  Uiso   1.00
C426   C     0.96461   0.88288   0.84070   0.00000  Uiso   1.00
C427   C     0.95366   0.97831   0.77727   0.00000  Uiso   1.00
C428   C     0.11226   0.64228   0.89677   0.00000  Uiso   1.00
C429   C     0.04546   0.62019   0.87494   0.00000  Uiso   1.00
C430   C     0.03839   0.57274   0.83618   0.00000  Uiso   1.00
C431   C     0.97295   0.55955   0.82163   0.00000  Uiso   1.00
C432   C     0.15694   0.62006   0.97160   0.00000  Uiso   1.00
C433   C     0.24361   0.57252   0.01412   0.00000  Uiso   1.00
C434   C     0.27203   0.55923   0.08095   0.00000  Uiso   1.00
C435   C     0.06336   0.72834   0.87330   0.00000  Uiso   1.00
C436   C     0.07136   0.77183   0.83318   0.00000  Uiso   1.00
C437   C     0.02101   0.84971   0.81726   0.00000  Uiso   1.00
H438   H     0.96480   0.72901   0.95807   0.00000  Uiso   1.00
H439   H     0.88018   0.66581   0.90197   0.00000  Uiso   1.00
H440   H     0.08537   0.66560   0.07988   0.00000  Uiso   1.00
H441   H     0.91314   0.86488   0.89896   0.00000  Uiso   1.00
H442   H     0.81121   0.58111   0.82946   0.00000  Uiso   1.00
H443   H     0.24386   0.58069   0.20460   0.00000  Uiso   1.00
H444   H     0.88070   0.00091   0.82311   0.00000  Uiso   1.00
H445   H     0.15609   0.61650   0.87855   0.00000  Uiso   1.00
H446   H     0.08197   0.54712   0.81808   0.00000  Uiso   1.00
H447   H     0.28715   0.54691   0.99599   0.00000  Uiso   1.00
H448   H     0.11493   0.74619   0.81508   0.00000  Uiso   1.00
H449   H     0.97499   0.48478   0.76138   0.00000  Uiso   1.00
H450   H     0.40764   0.48436   0.13651   0.00000  Uiso   1.00
H451   H     0.04448   0.90458   0.75502   0.00000  Uiso   1.00
O452   O     0.84091   0.48932   0.75709   0.00000  Uiso   1.00
O453   O     0.40852   0.48877   0.24925   0.00000  Uiso   1.00
O454   O     0.93206   0.04010   0.74875   0.00000  Uiso   1.00
N455   N     0.85992   0.56797   0.82173   0.00000  Uiso   1.00
N456   N     0.26442   0.56757   0.17245   0.00000  Uiso   1.00
N457   N     0.92491   0.96044   0.81581   0.00000  Uiso   1.00
N458   N     0.94805   0.51614   0.78509   0.00000  Uiso   1.00
N459   N     0.35255   0.51573   0.13582   0.00000  Uiso   1.00
N460   N     0.01303   0.90861   0.77917   0.00000  Uiso   1.00
C461   C     0.34506   0.13858   0.88887   0.00000  Uiso   1.00
C462   C     0.32150   0.20831   0.84191   0.00000  Uiso   1.00
C463   C     0.37139   0.21280   0.81824   0.00000  Uiso   1.00
C464   C     0.33850   0.28166   0.77574   0.00000  Uiso   1.00
C465   C     0.31410   0.38050   0.70560   0.00000  Uiso   1.00
C466   C     0.33920   0.16261   0.94754   0.00000  Uiso   1.00
C467   C     0.40398   0.12866   0.01268   0.00000  Uiso   1.00
C468   C     0.38598   0.15904   0.05911   0.00000  Uiso   1.00
C469   C     0.38905   0.18689   0.15296   0.00000  Uiso   1.00
C470   C     0.27364   0.12316   0.85431   0.00000  Uiso   1.00
C471   C     0.28329   0.05603   0.84107   0.00000  Uiso   1.00
C472   C     0.21010   0.05319   0.80902   0.00000  Uiso   1.00
C473   C     0.11137   0.01979   0.75812   0.00000  Uiso   1.00
C474   C     0.19793   0.25289   0.85550   0.00000  Uiso   1.00
C475   C     0.24159   0.27040   0.82378   0.00000  Uiso   1.00
C476   C     0.20861   0.33927   0.78131   0.00000  Uiso   1.00
C477   C     0.25844   0.34386   0.75758   0.00000  Uiso   1.00
C478   C     0.25930   0.22469   0.92941   0.00000  Uiso   1.00
C479   C     0.24120   0.25513   0.97575   0.00000  Uiso   1.00
C480   C     0.30593   0.22124   0.04095   0.00000  Uiso   1.00
C481   C     0.19373   0.18524   0.83618   0.00000  Uiso   1.00
C482   C     0.12051   0.18250   0.80414   0.00000  Uiso   1.00
C483   C     0.13004   0.11539   0.79086   0.00000  Uiso   1.00
H484   H     0.40727   0.09024   0.90299   0.00000  Uiso   1.00
H485   H     0.43323   0.16474   0.83228   0.00000  Uiso   1.00
H486   H     0.46581   0.08061   0.02669   0.00000  Uiso   1.00
H487   H     0.34514   0.00800   0.85511   0.00000  Uiso   1.00
H488   H     0.42678   0.27473   0.74591   0.00000  Uiso   1.00
H489   H     0.49547   0.09731   0.15584   0.00000  Uiso   1.00
H490   H     0.24102   0.94419   0.79403   0.00000  Uiso   1.00
H491   H     0.13571   0.30123   0.84138   0.00000  Uiso   1.00
H492   H     0.14677   0.38731   0.76729   0.00000  Uiso   1.00
H493   H     0.17935   0.30317   0.96171   0.00000  Uiso   1.00
H494   H     0.05868   0.23056   0.79012   0.00000  Uiso   1.00
H495   H     0.19428   0.45537   0.69316   0.00000  Uiso   1.00
H496   H     0.26296   0.27795   0.10310   0.00000  Uiso   1.00
H497   H     0.00851   0.12484   0.74128   0.00000  Uiso   1.00
O498   O     0.32272   0.41788   0.67193   0.00000  Uiso   1.00
O499   O     0.41282   0.18510   0.20974   0.00000  Uiso   1.00
O500   O     0.07899   0.98422   0.73504   0.00000  Uiso   1.00
N501   N     0.37054   0.30542   0.74366   0.00000  Uiso   1.00
N502   N     0.43476   0.13956   0.12692   0.00000  Uiso   1.00
N503   N     0.19687   0.99640   0.78866   0.00000  Uiso   1.00
N504   N     0.24543   0.40263   0.71527   0.00000  Uiso   1.00
N505   N     0.30965   0.23676   0.09853   0.00000  Uiso   1.00
N506   N     0.07176   0.09360   0.76028   0.00000  Uiso   1.00
C507   C     0.62526   0.30528   0.98484   0.00000  Uiso   1.00
C508   C     0.53179   0.36616   0.94082   0.00000  Uiso   1.00
C509   C     0.49984   0.44258   0.91767   0.00000  Uiso   1.00
C510   C     0.41241   0.48910   0.87803   0.00000  Uiso   1.00
C511   C     0.27540   0.58804   0.81212   0.00000  Uiso   1.00
C512   C     0.63200   0.26647   0.04527   0.00000  Uiso   1.00
C513   C     0.68433   0.25907   0.10993   0.00000  Uiso   1.00
C514   C     0.68125   0.22166   0.15821   0.00000  Uiso   1.00
C515   C     0.69988   0.16578   0.25447   0.00000  Uiso   1.00
C516   C     0.64450   0.24671   0.94840   0.00000  Uiso   1.00
C517   C     0.70735   0.22267   0.93162   0.00000  Uiso   1.00
C518   C     0.71481   0.16861   0.89835   0.00000  Uiso   1.00
C519   C     0.75284   0.08204   0.84420   0.00000  Uiso   1.00
C520   C     0.52677   0.25201   0.95560   0.00000  Uiso   1.00
C521   C     0.47829   0.33722   0.92494   0.00000  Uiso   1.00
C522   C     0.39088   0.38364   0.88532   0.00000  Uiso   1.00
C523   C     0.35881   0.46012   0.86211   0.00000  Uiso   1.00
C524   C     0.57851   0.23754   0.02939   0.00000  Uiso   1.00
C525   C     0.57536   0.20013   0.07758   0.00000  Uiso   1.00
C526   C     0.62767   0.19267   0.14230   0.00000  Uiso   1.00
C527   C     0.59100   0.21777   0.93251   0.00000  Uiso   1.00
C528   C     0.59838   0.16373   0.89927   0.00000  Uiso   1.00
C529   C     0.66122   0.13962   0.88245   0.00000  Uiso   1.00
H530   H     0.66691   0.32781   0.99721   0.00000  Uiso   1.00
H531   H     0.54126   0.46495   0.92998   0.00000  Uiso   1.00
H532   H     0.72572   0.28146   0.12221   0.00000  Uiso   1.00
H533   H     0.74873   0.24508   0.94392   0.00000  Uiso   1.00
H534   H     0.37837   0.60425   0.84846   0.00000  Uiso   1.00
H535   H     0.76733   0.21732   0.25379   0.00000  Uiso   1.00
H536   H     0.81586   0.14059   0.87784   0.00000  Uiso   1.00
H537   H     0.48512   0.22948   0.94324   0.00000  Uiso   1.00
H538   H     0.34950   0.36123   0.87304   0.00000  Uiso   1.00
H539   H     0.53396   0.17774   0.06528   0.00000  Uiso   1.00
H540   H     0.55697   0.14135   0.88699   0.00000  Uiso   1.00
H541   H     0.22273   0.52006   0.80225   0.00000  Uiso   1.00
H542   H     0.61170   0.13313   0.20758   0.00000  Uiso   1.00
H543   H     0.66022   0.05641   0.83163   0.00000  Uiso   1.00
O544   O     0.21461   0.65060   0.78017   0.00000  Uiso   1.00
O545   O     0.72493   0.14296   0.31195   0.00000  Uiso   1.00
O546   O     0.78858   0.04230   0.81871   0.00000  Uiso   1.00
N547   N     0.36035   0.56635   0.84720   0.00000  Uiso   1.00
N548   N     0.72400   0.20461   0.22616   0.00000  Uiso   1.00
N549   N     0.76938   0.13286   0.87470   0.00000  Uiso   1.00
N550   N     0.27660   0.52105   0.82234   0.00000  Uiso   1.00
N551   N     0.64025   0.15931   0.20130   0.00000  Uiso   1.00
N552   N     0.68563   0.08756   0.84983   0.00000  Uiso   1.00
