data_job_02548
_audit_creation_date              2018-12-19
_audit_creation_method            'Materials Studio'
_symmetry_space_group_name_H-M    'P1'
_symmetry_Int_Tables_number       1
_symmetry_cell_setting            triclinic
loop_
_symmetry_equiv_pos_as_xyz
  x,y,z
_cell_length_a                    21.7937
_cell_length_b                    12.6074
_cell_length_c                    23.8597
_cell_angle_alpha                 90.0000
_cell_angle_beta                  90.0000
_cell_angle_gamma                 90.0000
loop_
_atom_site_label
_atom_site_type_symbol
_atom_site_fract_x
_atom_site_fract_y
_atom_site_fract_z
_atom_site_U_iso_or_equiv
_atom_site_adp_type
_atom_site_occupancy
C1     C     0.35551   0.42609   0.42355   0.00000  Uiso   1.00
C2     C     0.38900   0.31999   0.42112   0.00000  Uiso   1.00
C3     C     0.40261   0.25580   0.46671   0.00000  Uiso   1.00
C4     C     0.43354   0.16179   0.45573   0.00000  Uiso   1.00
C5     C     0.48303   0.00143   0.46027   0.00000  Uiso   1.00
C6     C     0.39816   0.50665   0.39608   0.00000  Uiso   1.00
C7     C     0.41947   0.59942   0.42061   0.00000  Uiso   1.00
C8     C     0.45811   0.66256   0.38854   0.00000  Uiso   1.00
C9     C     0.52179   0.79204   0.35419   0.00000  Uiso   1.00
C10    C     0.30043   0.41544   0.38455   0.00000  Uiso   1.00
C11    C     0.23956   0.43154   0.39938   0.00000  Uiso   1.00
C12    C     0.19591   0.41791   0.35761   0.00000  Uiso   1.00
C13    C     0.10784   0.40577   0.30535   0.00000  Uiso   1.00
C14    C     0.38622   0.37327   0.32300   0.00000  Uiso   1.00
C15    C     0.40568   0.29130   0.36650   0.00000  Uiso   1.00
C16    C     0.43659   0.19736   0.35545   0.00000  Uiso   1.00
C17    C     0.45025   0.13305   0.40102   0.00000  Uiso   1.00
C18    C     0.41484   0.47797   0.34146   0.00000  Uiso   1.00
C19    C     0.45345   0.54099   0.30935   0.00000  Uiso   1.00
C20    C     0.47482   0.63382   0.33383   0.00000  Uiso   1.00
C21    C     0.31711   0.38675   0.32993   0.00000  Uiso   1.00
C22    C     0.27354   0.37310   0.28813   0.00000  Uiso   1.00
C23    C     0.21262   0.38917   0.30289   0.00000  Uiso   1.00
H24    H     0.34252   0.44843   0.46607   0.00000  Uiso   1.00
H25    H     0.38970   0.27804   0.50897   0.00000  Uiso   1.00
H26    H     0.40655   0.62161   0.46287   0.00000  Uiso   1.00
H27    H     0.22667   0.45374   0.44165   0.00000  Uiso   1.00
H28    H     0.44938   0.07649   0.53244   0.00000  Uiso   1.00
H29    H     0.48489   0.80094   0.43524   0.00000  Uiso   1.00
H30    H     0.10557   0.44698   0.39048   0.00000  Uiso   1.00
H31    H     0.39921   0.35094   0.28047   0.00000  Uiso   1.00
H32    H     0.44950   0.17518   0.31318   0.00000  Uiso   1.00
H33    H     0.46635   0.51876   0.26709   0.00000  Uiso   1.00
H34    H     0.28647   0.35090   0.24587   0.00000  Uiso   1.00
H35    H     0.49792   0.99301   0.37354   0.00000  Uiso   1.00
H36    H     0.53343   0.71748   0.27633   0.00000  Uiso   1.00
H37    H     0.15411   0.36351   0.23158   0.00000  Uiso   1.00
O38    O     0.50572   0.92091   0.47786   0.00000  Uiso   1.00
O39    O     0.55231   0.87138   0.35033   0.00000  Uiso   1.00
O40    O     0.05465   0.40698   0.29161   0.00000  Uiso   1.00
N41    N     0.45389   0.08095   0.49055   0.00000  Uiso   1.00
N42    N     0.48710   0.75827   0.39968   0.00000  Uiso   1.00
N43    N     0.13247   0.42737   0.35783   0.00000  Uiso   1.00
N44    N     0.48001   0.03603   0.40505   0.00000  Uiso   1.00
N45    N     0.51322   0.71335   0.31417   0.00000  Uiso   1.00
N46    N     0.15859   0.38245   0.27233   0.00000  Uiso   1.00
C47    C     0.14529   0.30406   0.57830   0.00000  Uiso   1.00
C48    C     0.11147   0.19822   0.58014   0.00000  Uiso   1.00
C49    C     0.09781   0.13494   0.53421   0.00000  Uiso   1.00
C50    C     0.06657   0.04102   0.54466   0.00000  Uiso   1.00
C51    C     0.01661   0.88119   0.53923   0.00000  Uiso   1.00
C52    C     0.10279   0.38453   0.60605   0.00000  Uiso   1.00
C53    C     0.08183   0.47791   0.58191   0.00000  Uiso   1.00
C54    C     0.04329   0.54084   0.61417   0.00000  Uiso   1.00
C55    C     0.97989   0.67030   0.64898   0.00000  Uiso   1.00
C56    C     0.20021   0.29225   0.61740   0.00000  Uiso   1.00
C57    C     0.26117   0.30805   0.60280   0.00000  Uiso   1.00
C58    C     0.30465   0.29331   0.64462   0.00000  Uiso   1.00
C59    C     0.39252   0.27949   0.69705   0.00000  Uiso   1.00
C60    C     0.11409   0.24980   0.67852   0.00000  Uiso   1.00
C61    C     0.09453   0.16875   0.63458   0.00000  Uiso   1.00
C62    C     0.06330   0.07491   0.64509   0.00000  Uiso   1.00
C63    C     0.04959   0.01150   0.59919   0.00000  Uiso   1.00
C64    C     0.08585   0.35507   0.66048   0.00000  Uiso   1.00
C65    C     0.04732   0.41788   0.69279   0.00000  Uiso   1.00
C66    C     0.02631   0.51132   0.66870   0.00000  Uiso   1.00
C67    C     0.18327   0.26277   0.67183   0.00000  Uiso   1.00
C68    C     0.22666   0.24802   0.71368   0.00000  Uiso   1.00
C69    C     0.28768   0.26379   0.69915   0.00000  Uiso   1.00
H70    H     0.15847   0.32701   0.53592   0.00000  Uiso   1.00
H71    H     0.11092   0.15777   0.49209   0.00000  Uiso   1.00
H72    H     0.09496   0.50069   0.53979   0.00000  Uiso   1.00
H73    H     0.27427   0.33086   0.56068   0.00000  Uiso   1.00
H74    H     0.05072   0.95717   0.46750   0.00000  Uiso   1.00
H75    H     0.01706   0.68025   0.56807   0.00000  Uiso   1.00
H76    H     0.39518   0.32213   0.61212   0.00000  Uiso   1.00
H77    H     0.10090   0.22686   0.72090   0.00000  Uiso   1.00
H78    H     0.05019   0.05213   0.68722   0.00000  Uiso   1.00
H79    H     0.03423   0.39505   0.73491   0.00000  Uiso   1.00
H80    H     0.21354   0.22522   0.75580   0.00000  Uiso   1.00
H81    H     0.00142   0.87143   0.62588   0.00000  Uiso   1.00
H82    H     0.96777   0.59452   0.72644   0.00000  Uiso   1.00
H83    H     0.34588   0.23639   0.77049   0.00000  Uiso   1.00
O84    O     0.99373   0.80118   0.52119   0.00000  Uiso   1.00
O85    O     0.94959   0.74985   0.65313   0.00000  Uiso   1.00
O86    O     0.44567   0.27999   0.71093   0.00000  Uiso   1.00
N87    N     0.04608   0.96096   0.50940   0.00000  Uiso   1.00
N88    N     0.01461   0.63699   0.60342   0.00000  Uiso   1.00
N89    N     0.36812   0.30220   0.64461   0.00000  Uiso   1.00
N90    N     0.01956   0.91482   0.59462   0.00000  Uiso   1.00
N91    N     0.98809   0.59085   0.68864   0.00000  Uiso   1.00
N92    N     0.34159   0.25606   0.72983   0.00000  Uiso   1.00
C93    C     0.64449   0.57391   0.92355   0.00000  Uiso   1.00
C94    C     0.61100   0.68001   0.92112   0.00000  Uiso   1.00
C95    C     0.59739   0.74420   0.96671   0.00000  Uiso   1.00
C96    C     0.56646   0.83821   0.95573   0.00000  Uiso   1.00
C97    C     0.51697   0.99857   0.96027   0.00000  Uiso   1.00
C98    C     0.60184   0.49335   0.89608   0.00000  Uiso   1.00
C99    C     0.58053   0.40058   0.92061   0.00000  Uiso   1.00
C100   C     0.54189   0.33744   0.88854   0.00000  Uiso   1.00
C101   C     0.47821   0.20796   0.85419   0.00000  Uiso   1.00
C102   C     0.69957   0.58456   0.88455   0.00000  Uiso   1.00
C103   C     0.76044   0.56846   0.89938   0.00000  Uiso   1.00
C104   C     0.80409   0.58209   0.85761   0.00000  Uiso   1.00
C105   C     0.89216   0.59423   0.80535   0.00000  Uiso   1.00
C106   C     0.61378   0.62673   0.82300   0.00000  Uiso   1.00
C107   C     0.59432   0.70870   0.86650   0.00000  Uiso   1.00
C108   C     0.56341   0.80264   0.85545   0.00000  Uiso   1.00
C109   C     0.54975   0.86695   0.90102   0.00000  Uiso   1.00
C110   C     0.58516   0.52203   0.84146   0.00000  Uiso   1.00
C111   C     0.54655   0.45901   0.80935   0.00000  Uiso   1.00
C112   C     0.52518   0.36618   0.83383   0.00000  Uiso   1.00
C113   C     0.68289   0.61325   0.82993   0.00000  Uiso   1.00
C114   C     0.72646   0.62690   0.78813   0.00000  Uiso   1.00
C115   C     0.78738   0.61083   0.80289   0.00000  Uiso   1.00
H116   H     0.65748   0.55157   0.96607   0.00000  Uiso   1.00
H117   H     0.61030   0.72196   0.00897   0.00000  Uiso   1.00
H118   H     0.59345   0.37839   0.96287   0.00000  Uiso   1.00
H119   H     0.77333   0.54626   0.94165   0.00000  Uiso   1.00
H120   H     0.55062   0.92351   0.03244   0.00000  Uiso   1.00
H121   H     0.51511   0.19906   0.93524   0.00000  Uiso   1.00
H122   H     0.89443   0.55302   0.89048   0.00000  Uiso   1.00
H123   H     0.60079   0.64906   0.78047   0.00000  Uiso   1.00
H124   H     0.55050   0.82482   0.81318   0.00000  Uiso   1.00
H125   H     0.53365   0.48124   0.76709   0.00000  Uiso   1.00
H126   H     0.71353   0.64910   0.74587   0.00000  Uiso   1.00
H127   H     0.50208   0.00699   0.87354   0.00000  Uiso   1.00
H128   H     0.46657   0.28252   0.77633   0.00000  Uiso   1.00
H129   H     0.84589   0.63649   0.73158   0.00000  Uiso   1.00
O130   O     0.49428   0.07909   0.97786   0.00000  Uiso   1.00
O131   O     0.44769   0.12862   0.85033   0.00000  Uiso   1.00
O132   O     0.94535   0.59302   0.79161   0.00000  Uiso   1.00
N133   N     0.54611   0.91905   0.99055   0.00000  Uiso   1.00
N134   N     0.51290   0.24173   0.89968   0.00000  Uiso   1.00
N135   N     0.86753   0.57263   0.85783   0.00000  Uiso   1.00
N136   N     0.51999   0.96397   0.90505   0.00000  Uiso   1.00
N137   N     0.48678   0.28665   0.81417   0.00000  Uiso   1.00
N138   N     0.84141   0.61755   0.77233   0.00000  Uiso   1.00
C139   C     0.85471   0.69594   0.07830   0.00000  Uiso   1.00
C140   C     0.88853   0.80178   0.08014   0.00000  Uiso   1.00
C141   C     0.90219   0.86506   0.03421   0.00000  Uiso   1.00
C142   C     0.93343   0.95898   0.04466   0.00000  Uiso   1.00
C143   C     0.98339   0.11881   0.03923   0.00000  Uiso   1.00
C144   C     0.89721   0.61547   0.10605   0.00000  Uiso   1.00
C145   C     0.91817   0.52209   0.08191   0.00000  Uiso   1.00
C146   C     0.95671   0.45916   0.11417   0.00000  Uiso   1.00
C147   C     0.02011   0.32970   0.14898   0.00000  Uiso   1.00
C148   C     0.79979   0.70775   0.11740   0.00000  Uiso   1.00
C149   C     0.73883   0.69195   0.10280   0.00000  Uiso   1.00
C150   C     0.69535   0.70669   0.14462   0.00000  Uiso   1.00
C151   C     0.60748   0.72051   0.19705   0.00000  Uiso   1.00
C152   C     0.88591   0.75020   0.17852   0.00000  Uiso   1.00
C153   C     0.90547   0.83125   0.13458   0.00000  Uiso   1.00
C154   C     0.93670   0.92509   0.14509   0.00000  Uiso   1.00
C155   C     0.95041   0.98850   0.09919   0.00000  Uiso   1.00
C156   C     0.91415   0.64493   0.16048   0.00000  Uiso   1.00
C157   C     0.95268   0.58212   0.19279   0.00000  Uiso   1.00
C158   C     0.97369   0.48868   0.16870   0.00000  Uiso   1.00
C159   C     0.81673   0.73723   0.17183   0.00000  Uiso   1.00
C160   C     0.77334   0.75198   0.21368   0.00000  Uiso   1.00
C161   C     0.71232   0.73621   0.19915   0.00000  Uiso   1.00
H162   H     0.84153   0.67299   0.03592   0.00000  Uiso   1.00
H163   H     0.88908   0.84223   0.99209   0.00000  Uiso   1.00
H164   H     0.90504   0.49931   0.03979   0.00000  Uiso   1.00
H165   H     0.72573   0.66914   0.06068   0.00000  Uiso   1.00
H166   H     0.94928   0.04283   0.96750   0.00000  Uiso   1.00
H167   H     0.98294   0.31975   0.06807   0.00000  Uiso   1.00
H168   H     0.60482   0.67787   0.11212   0.00000  Uiso   1.00
H169   H     0.89910   0.77314   0.22090   0.00000  Uiso   1.00
H170   H     0.94981   0.94787   0.18722   0.00000  Uiso   1.00
H171   H     0.96577   0.60495   0.23491   0.00000  Uiso   1.00
H172   H     0.78646   0.77478   0.25580   0.00000  Uiso   1.00
H173   H     0.99858   0.12857   0.12588   0.00000  Uiso   1.00
H174   H     0.03223   0.40548   0.22644   0.00000  Uiso   1.00
H175   H     0.65412   0.76361   0.27049   0.00000  Uiso   1.00
O176   O     0.00627   0.19882   0.02119   0.00000  Uiso   1.00
O177   O     0.05041   0.25015   0.15313   0.00000  Uiso   1.00
O178   O     0.55433   0.72001   0.21093   0.00000  Uiso   1.00
N179   N     0.95392   0.03904   0.00940   0.00000  Uiso   1.00
N180   N     0.98539   0.36301   0.10342   0.00000  Uiso   1.00
N181   N     0.63188   0.69780   0.14461   0.00000  Uiso   1.00
N182   N     0.98044   0.08518   0.09462   0.00000  Uiso   1.00
N183   N     0.01191   0.40915   0.18864   0.00000  Uiso   1.00
N184   N     0.65841   0.74394   0.22983   0.00000  Uiso   1.00
C185   C     0.85551   0.07391   0.42355   0.00000  Uiso   1.00
C186   C     0.88900   0.18001   0.42112   0.00000  Uiso   1.00
C187   C     0.90261   0.24420   0.46671   0.00000  Uiso   1.00
C188   C     0.93354   0.33821   0.45573   0.00000  Uiso   1.00
C189   C     0.98303   0.49857   0.46027   0.00000  Uiso   1.00
C190   C     0.89816   0.99335   0.39608   0.00000  Uiso   1.00
C191   C     0.91947   0.90058   0.42061   0.00000  Uiso   1.00
C192   C     0.95811   0.83744   0.38854   0.00000  Uiso   1.00
C193   C     0.02179   0.70796   0.35419   0.00000  Uiso   1.00
C194   C     0.80043   0.08456   0.38455   0.00000  Uiso   1.00
C195   C     0.73956   0.06846   0.39938   0.00000  Uiso   1.00
C196   C     0.69591   0.08209   0.35761   0.00000  Uiso   1.00
C197   C     0.60784   0.09423   0.30535   0.00000  Uiso   1.00
C198   C     0.88622   0.12673   0.32300   0.00000  Uiso   1.00
C199   C     0.90568   0.20870   0.36650   0.00000  Uiso   1.00
C200   C     0.93659   0.30264   0.35545   0.00000  Uiso   1.00
C201   C     0.95025   0.36695   0.40102   0.00000  Uiso   1.00
C202   C     0.91484   0.02203   0.34146   0.00000  Uiso   1.00
C203   C     0.95345   0.95901   0.30935   0.00000  Uiso   1.00
C204   C     0.97482   0.86618   0.33383   0.00000  Uiso   1.00
C205   C     0.81711   0.11325   0.32993   0.00000  Uiso   1.00
C206   C     0.77354   0.12690   0.28813   0.00000  Uiso   1.00
C207   C     0.71262   0.11083   0.30289   0.00000  Uiso   1.00
H208   H     0.84252   0.05157   0.46607   0.00000  Uiso   1.00
H209   H     0.88970   0.22196   0.50897   0.00000  Uiso   1.00
H210   H     0.90655   0.87839   0.46287   0.00000  Uiso   1.00
H211   H     0.72667   0.04626   0.44165   0.00000  Uiso   1.00
H212   H     0.94938   0.42351   0.53244   0.00000  Uiso   1.00
H213   H     0.98489   0.69906   0.43524   0.00000  Uiso   1.00
H214   H     0.60557   0.05302   0.39048   0.00000  Uiso   1.00
H215   H     0.89921   0.14906   0.28047   0.00000  Uiso   1.00
H216   H     0.94950   0.32482   0.31318   0.00000  Uiso   1.00
H217   H     0.96635   0.98124   0.26709   0.00000  Uiso   1.00
H218   H     0.78647   0.14910   0.24587   0.00000  Uiso   1.00
H219   H     0.99792   0.50699   0.37354   0.00000  Uiso   1.00
H220   H     0.03343   0.78252   0.27633   0.00000  Uiso   1.00
H221   H     0.65411   0.13649   0.23158   0.00000  Uiso   1.00
O222   O     0.00572   0.57909   0.47786   0.00000  Uiso   1.00
O223   O     0.05231   0.62862   0.35033   0.00000  Uiso   1.00
O224   O     0.55465   0.09302   0.29161   0.00000  Uiso   1.00
N225   N     0.95389   0.41905   0.49055   0.00000  Uiso   1.00
N226   N     0.98710   0.74173   0.39968   0.00000  Uiso   1.00
N227   N     0.63247   0.07263   0.35783   0.00000  Uiso   1.00
N228   N     0.98001   0.46397   0.40505   0.00000  Uiso   1.00
N229   N     0.01322   0.78665   0.31417   0.00000  Uiso   1.00
N230   N     0.65859   0.11755   0.27233   0.00000  Uiso   1.00
C231   C     0.64529   0.19594   0.57830   0.00000  Uiso   1.00
C232   C     0.61147   0.30178   0.58014   0.00000  Uiso   1.00
C233   C     0.59781   0.36506   0.53421   0.00000  Uiso   1.00
C234   C     0.56657   0.45898   0.54466   0.00000  Uiso   1.00
C235   C     0.51661   0.61881   0.53923   0.00000  Uiso   1.00
C236   C     0.60279   0.11547   0.60605   0.00000  Uiso   1.00
C237   C     0.58183   0.02209   0.58191   0.00000  Uiso   1.00
C238   C     0.54329   0.95916   0.61417   0.00000  Uiso   1.00
C239   C     0.47989   0.82970   0.64898   0.00000  Uiso   1.00
C240   C     0.70021   0.20775   0.61740   0.00000  Uiso   1.00
C241   C     0.76117   0.19195   0.60280   0.00000  Uiso   1.00
C242   C     0.80465   0.20669   0.64462   0.00000  Uiso   1.00
C243   C     0.89252   0.22051   0.69705   0.00000  Uiso   1.00
C244   C     0.61409   0.25020   0.67852   0.00000  Uiso   1.00
C245   C     0.59453   0.33125   0.63458   0.00000  Uiso   1.00
C246   C     0.56330   0.42509   0.64509   0.00000  Uiso   1.00
C247   C     0.54959   0.48850   0.59919   0.00000  Uiso   1.00
C248   C     0.58585   0.14493   0.66048   0.00000  Uiso   1.00
C249   C     0.54732   0.08212   0.69279   0.00000  Uiso   1.00
C250   C     0.52631   0.98868   0.66870   0.00000  Uiso   1.00
C251   C     0.68327   0.23723   0.67183   0.00000  Uiso   1.00
C252   C     0.72666   0.25198   0.71368   0.00000  Uiso   1.00
C253   C     0.78768   0.23621   0.69915   0.00000  Uiso   1.00
H254   H     0.65847   0.17299   0.53592   0.00000  Uiso   1.00
H255   H     0.61092   0.34223   0.49209   0.00000  Uiso   1.00
H256   H     0.59496   0.99931   0.53979   0.00000  Uiso   1.00
H257   H     0.77427   0.16914   0.56068   0.00000  Uiso   1.00
H258   H     0.55072   0.54283   0.46750   0.00000  Uiso   1.00
H259   H     0.51706   0.81975   0.56807   0.00000  Uiso   1.00
H260   H     0.89518   0.17787   0.61212   0.00000  Uiso   1.00
H261   H     0.60090   0.27314   0.72090   0.00000  Uiso   1.00
H262   H     0.55019   0.44787   0.68722   0.00000  Uiso   1.00
H263   H     0.53423   0.10495   0.73491   0.00000  Uiso   1.00
H264   H     0.71354   0.27478   0.75580   0.00000  Uiso   1.00
H265   H     0.50142   0.62857   0.62588   0.00000  Uiso   1.00
H266   H     0.46777   0.90548   0.72644   0.00000  Uiso   1.00
H267   H     0.84588   0.26361   0.77049   0.00000  Uiso   1.00
O268   O     0.49373   0.69882   0.52119   0.00000  Uiso   1.00
O269   O     0.44959   0.75015   0.65313   0.00000  Uiso   1.00
O270   O     0.94567   0.22001   0.71093   0.00000  Uiso   1.00
N271   N     0.54608   0.53904   0.50940   0.00000  Uiso   1.00
N272   N     0.51461   0.86301   0.60342   0.00000  Uiso   1.00
N273   N     0.86812   0.19780   0.64461   0.00000  Uiso   1.00
N274   N     0.51956   0.58518   0.59462   0.00000  Uiso   1.00
N275   N     0.48809   0.90915   0.68864   0.00000  Uiso   1.00
N276   N     0.84159   0.24394   0.72983   0.00000  Uiso   1.00
C277   C     0.14449   0.92609   0.92355   0.00000  Uiso   1.00
C278   C     0.11100   0.81999   0.92112   0.00000  Uiso   1.00
C279   C     0.09739   0.75580   0.96671   0.00000  Uiso   1.00
C280   C     0.06646   0.66179   0.95573   0.00000  Uiso   1.00
C281   C     0.01697   0.50143   0.96027   0.00000  Uiso   1.00
C282   C     0.10184   0.00665   0.89608   0.00000  Uiso   1.00
C283   C     0.08053   0.09942   0.92061   0.00000  Uiso   1.00
C284   C     0.04189   0.16256   0.88854   0.00000  Uiso   1.00
C285   C     0.97821   0.29204   0.85419   0.00000  Uiso   1.00
C286   C     0.19957   0.91544   0.88455   0.00000  Uiso   1.00
C287   C     0.26044   0.93154   0.89938   0.00000  Uiso   1.00
C288   C     0.30409   0.91791   0.85761   0.00000  Uiso   1.00
C289   C     0.39216   0.90577   0.80535   0.00000  Uiso   1.00
C290   C     0.11378   0.87327   0.82300   0.00000  Uiso   1.00
C291   C     0.09432   0.79130   0.86650   0.00000  Uiso   1.00
C292   C     0.06341   0.69736   0.85545   0.00000  Uiso   1.00
C293   C     0.04975   0.63305   0.90102   0.00000  Uiso   1.00
C294   C     0.08516   0.97797   0.84146   0.00000  Uiso   1.00
C295   C     0.04655   0.04099   0.80935   0.00000  Uiso   1.00
C296   C     0.02518   0.13382   0.83383   0.00000  Uiso   1.00
C297   C     0.18289   0.88675   0.82993   0.00000  Uiso   1.00
C298   C     0.22646   0.87310   0.78813   0.00000  Uiso   1.00
C299   C     0.28738   0.88917   0.80289   0.00000  Uiso   1.00
H300   H     0.15748   0.94843   0.96607   0.00000  Uiso   1.00
H301   H     0.11030   0.77804   0.00897   0.00000  Uiso   1.00
H302   H     0.09345   0.12161   0.96287   0.00000  Uiso   1.00
H303   H     0.27333   0.95374   0.94165   0.00000  Uiso   1.00
H304   H     0.05062   0.57649   0.03244   0.00000  Uiso   1.00
H305   H     0.01511   0.30094   0.93524   0.00000  Uiso   1.00
H306   H     0.39443   0.94698   0.89048   0.00000  Uiso   1.00
H307   H     0.10079   0.85094   0.78047   0.00000  Uiso   1.00
H308   H     0.05050   0.67518   0.81318   0.00000  Uiso   1.00
H309   H     0.03365   0.01876   0.76709   0.00000  Uiso   1.00
H310   H     0.21353   0.85090   0.74587   0.00000  Uiso   1.00
H311   H     0.00208   0.49301   0.87354   0.00000  Uiso   1.00
H312   H     0.96657   0.21748   0.77633   0.00000  Uiso   1.00
H313   H     0.34589   0.86351   0.73158   0.00000  Uiso   1.00
O314   O     0.99428   0.42091   0.97786   0.00000  Uiso   1.00
O315   O     0.94769   0.37138   0.85033   0.00000  Uiso   1.00
O316   O     0.44535   0.90698   0.79161   0.00000  Uiso   1.00
N317   N     0.04611   0.58095   0.99055   0.00000  Uiso   1.00
N318   N     0.01290   0.25827   0.89968   0.00000  Uiso   1.00
N319   N     0.36753   0.92737   0.85783   0.00000  Uiso   1.00
N320   N     0.01999   0.53603   0.90505   0.00000  Uiso   1.00
N321   N     0.98678   0.21335   0.81417   0.00000  Uiso   1.00
N322   N     0.34141   0.88245   0.77233   0.00000  Uiso   1.00
C323   C     0.35471   0.80406   0.07830   0.00000  Uiso   1.00
C324   C     0.38853   0.69822   0.08014   0.00000  Uiso   1.00
C325   C     0.40219   0.63494   0.03421   0.00000  Uiso   1.00
C326   C     0.43343   0.54102   0.04466   0.00000  Uiso   1.00
C327   C     0.48339   0.38119   0.03923   0.00000  Uiso   1.00
C328   C     0.39721   0.88453   0.10605   0.00000  Uiso   1.00
C329   C     0.41817   0.97791   0.08191   0.00000  Uiso   1.00
C330   C     0.45671   0.04084   0.11417   0.00000  Uiso   1.00
C331   C     0.52011   0.17030   0.14898   0.00000  Uiso   1.00
C332   C     0.29979   0.79225   0.11740   0.00000  Uiso   1.00
C333   C     0.23883   0.80805   0.10280   0.00000  Uiso   1.00
C334   C     0.19535   0.79331   0.14462   0.00000  Uiso   1.00
C335   C     0.10748   0.77949   0.19705   0.00000  Uiso   1.00
C336   C     0.38591   0.74980   0.17852   0.00000  Uiso   1.00
C337   C     0.40547   0.66875   0.13458   0.00000  Uiso   1.00
C338   C     0.43670   0.57491   0.14509   0.00000  Uiso   1.00
C339   C     0.45041   0.51150   0.09919   0.00000  Uiso   1.00
C340   C     0.41415   0.85507   0.16048   0.00000  Uiso   1.00
C341   C     0.45268   0.91788   0.19279   0.00000  Uiso   1.00
C342   C     0.47369   0.01132   0.16870   0.00000  Uiso   1.00
C343   C     0.31673   0.76277   0.17183   0.00000  Uiso   1.00
C344   C     0.27334   0.74802   0.21368   0.00000  Uiso   1.00
C345   C     0.21232   0.76379   0.19915   0.00000  Uiso   1.00
H346   H     0.34153   0.82701   0.03592   0.00000  Uiso   1.00
H347   H     0.38908   0.65777   0.99209   0.00000  Uiso   1.00
H348   H     0.40504   0.00069   0.03979   0.00000  Uiso   1.00
H349   H     0.22573   0.83086   0.06068   0.00000  Uiso   1.00
H350   H     0.44928   0.45717   0.96750   0.00000  Uiso   1.00
H351   H     0.48294   0.18025   0.06807   0.00000  Uiso   1.00
H352   H     0.10482   0.82213   0.11212   0.00000  Uiso   1.00
H353   H     0.39910   0.72686   0.22090   0.00000  Uiso   1.00
H354   H     0.44981   0.55213   0.18722   0.00000  Uiso   1.00
H355   H     0.46577   0.89505   0.23491   0.00000  Uiso   1.00
H356   H     0.28646   0.72522   0.25580   0.00000  Uiso   1.00
H357   H     0.49858   0.37143   0.12588   0.00000  Uiso   1.00
H358   H     0.53223   0.09452   0.22644   0.00000  Uiso   1.00
H359   H     0.15412   0.73639   0.27049   0.00000  Uiso   1.00
O360   O     0.50627   0.30118   0.02119   0.00000  Uiso   1.00
O361   O     0.55041   0.24985   0.15313   0.00000  Uiso   1.00
O362   O     0.05433   0.77999   0.21093   0.00000  Uiso   1.00
N363   N     0.45392   0.46096   0.00940   0.00000  Uiso   1.00
N364   N     0.48539   0.13699   0.10342   0.00000  Uiso   1.00
N365   N     0.13188   0.80220   0.14461   0.00000  Uiso   1.00
N366   N     0.48044   0.41482   0.09462   0.00000  Uiso   1.00
N367   N     0.51191   0.09085   0.18864   0.00000  Uiso   1.00
N368   N     0.15841   0.75606   0.22983   0.00000  Uiso   1.00
