data_job_04021
_audit_creation_date              2018-12-19
_audit_creation_method            'Materials Studio'
_symmetry_space_group_name_H-M    'P1'
_symmetry_Int_Tables_number       1
_symmetry_cell_setting            triclinic
loop_
_symmetry_equiv_pos_as_xyz
  x,y,z
_cell_length_a                    19.4695
_cell_length_b                    14.8829
_cell_length_c                    11.5946
_cell_angle_alpha                 90.0000
_cell_angle_beta                  122.7983
_cell_angle_gamma                 90.0000
loop_
_atom_site_label
_atom_site_type_symbol
_atom_site_fract_x
_atom_site_fract_y
_atom_site_fract_z
_atom_site_U_iso_or_equiv
_atom_site_adp_type
_atom_site_occupancy
C1     C     0.23438   0.83436   0.02455   0.00000  Uiso   1.00
C2     C     0.17435   0.75609   0.96511   0.00000  Uiso   1.00
C3     C     0.19106   0.67089   0.93777   0.00000  Uiso   1.00
C4     C     0.12792   0.60864   0.88345   0.00000  Uiso   1.00
C5     C     0.04641   0.48373   0.79504   0.00000  Uiso   1.00
C6     C     0.19398   0.91134   0.92235   0.00000  Uiso   1.00
C7     C     0.22721   0.95667   0.85908   0.00000  Uiso   1.00
C8     C     0.18059   0.02511   0.76879   0.00000  Uiso   1.00
C9     C     0.12959   0.14127   0.61408   0.00000  Uiso   1.00
C10    C     0.23759   0.86372   0.15339   0.00000  Uiso   1.00
C11    C     0.30750   0.86904   0.28439   0.00000  Uiso   1.00
C12    C     0.29761   0.89741   0.38862   0.00000  Uiso   1.00
C13    C     0.31433   0.93964   0.59264   0.00000  Uiso   1.00
C14    C     0.09252   0.87530   0.97671   0.00000  Uiso   1.00
C15    C     0.09729   0.77833   0.93912   0.00000  Uiso   1.00
C16    C     0.03411   0.71618   0.88484   0.00000  Uiso   1.00
C17    C     0.05073   0.63091   0.85743   0.00000  Uiso   1.00
C18    C     0.11692   0.93357   0.89637   0.00000  Uiso   1.00
C19    C     0.07025   0.00196   0.80616   0.00000  Uiso   1.00
C20    C     0.10340   0.04739   0.74276   0.00000  Uiso   1.00
C21    C     0.16054   0.88595   0.12742   0.00000  Uiso   1.00
C22    C     0.15054   0.91433   0.23146   0.00000  Uiso   1.00
C23    C     0.22042   0.91969   0.36259   0.00000  Uiso   1.00
H24    H     0.29437   0.81706   0.04477   0.00000  Uiso   1.00
H25    H     0.25070   0.65372   0.95788   0.00000  Uiso   1.00
H26    H     0.28684   0.93946   0.87922   0.00000  Uiso   1.00
H27    H     0.36712   0.85183   0.30446   0.00000  Uiso   1.00
H28    H     0.16830   0.48244   0.85003   0.00000  Uiso   1.00
H29    H     0.24451   0.08496   0.68421   0.00000  Uiso   1.00
H30    H     0.41380   0.90019   0.58091   0.00000  Uiso   1.00
H31    H     0.03252   0.89261   0.95648   0.00000  Uiso   1.00
H32    H     0.97449   0.73341   0.86474   0.00000  Uiso   1.00
H33    H     0.01063   0.01915   0.78608   0.00000  Uiso   1.00
H34    H     0.09091   0.93153   0.21132   0.00000  Uiso   1.00
H35    H     0.94411   0.54712   0.77443   0.00000  Uiso   1.00
H36    H     0.02033   0.14965   0.60862   0.00000  Uiso   1.00
H37    H     0.18961   0.96487   0.50531   0.00000  Uiso   1.00
O38    O     0.02274   0.40870   0.75343   0.00000  Uiso   1.00
O39    O     0.12274   0.19919   0.53591   0.00000  Uiso   1.00
O40    O     0.34484   0.95677   0.71235   0.00000  Uiso   1.00
N41    N     0.12350   0.51950   0.84485   0.00000  Uiso   1.00
N42    N     0.19476   0.08282   0.68981   0.00000  Uiso   1.00
N43    N     0.35303   0.91009   0.52814   0.00000  Uiso   1.00
N44    N     0.00287   0.55431   0.80418   0.00000  Uiso   1.00
N45    N     0.07412   0.11762   0.64913   0.00000  Uiso   1.00
N46    N     0.23239   0.94490   0.48746   0.00000  Uiso   1.00
C47    C     0.73438   0.33436   0.02455   0.00000  Uiso   1.00
C48    C     0.67435   0.25609   0.96511   0.00000  Uiso   1.00
C49    C     0.69106   0.17089   0.93777   0.00000  Uiso   1.00
C50    C     0.62792   0.10864   0.88345   0.00000  Uiso   1.00
C51    C     0.54641   0.98373   0.79504   0.00000  Uiso   1.00
C52    C     0.69398   0.41134   0.92235   0.00000  Uiso   1.00
C53    C     0.72721   0.45667   0.85908   0.00000  Uiso   1.00
C54    C     0.68059   0.52511   0.76879   0.00000  Uiso   1.00
C55    C     0.62959   0.64127   0.61408   0.00000  Uiso   1.00
C56    C     0.73759   0.36372   0.15339   0.00000  Uiso   1.00
C57    C     0.80750   0.36904   0.28439   0.00000  Uiso   1.00
C58    C     0.79761   0.39741   0.38862   0.00000  Uiso   1.00
C59    C     0.81433   0.43964   0.59264   0.00000  Uiso   1.00
C60    C     0.59252   0.37530   0.97671   0.00000  Uiso   1.00
C61    C     0.59729   0.27833   0.93912   0.00000  Uiso   1.00
C62    C     0.53411   0.21618   0.88484   0.00000  Uiso   1.00
C63    C     0.55073   0.13091   0.85743   0.00000  Uiso   1.00
C64    C     0.61692   0.43357   0.89637   0.00000  Uiso   1.00
C65    C     0.57025   0.50196   0.80616   0.00000  Uiso   1.00
C66    C     0.60340   0.54739   0.74276   0.00000  Uiso   1.00
C67    C     0.66054   0.38595   0.12742   0.00000  Uiso   1.00
C68    C     0.65054   0.41433   0.23146   0.00000  Uiso   1.00
C69    C     0.72042   0.41969   0.36259   0.00000  Uiso   1.00
H70    H     0.79437   0.31706   0.04477   0.00000  Uiso   1.00
H71    H     0.75070   0.15372   0.95788   0.00000  Uiso   1.00
H72    H     0.78684   0.43946   0.87922   0.00000  Uiso   1.00
H73    H     0.86712   0.35183   0.30446   0.00000  Uiso   1.00
H74    H     0.66830   0.98244   0.85003   0.00000  Uiso   1.00
H75    H     0.74451   0.58496   0.68421   0.00000  Uiso   1.00
H76    H     0.91380   0.40019   0.58091   0.00000  Uiso   1.00
H77    H     0.53252   0.39261   0.95648   0.00000  Uiso   1.00
H78    H     0.47449   0.23341   0.86474   0.00000  Uiso   1.00
H79    H     0.51063   0.51915   0.78608   0.00000  Uiso   1.00
H80    H     0.59091   0.43153   0.21132   0.00000  Uiso   1.00
H81    H     0.44411   0.04712   0.77443   0.00000  Uiso   1.00
H82    H     0.52033   0.64965   0.60862   0.00000  Uiso   1.00
H83    H     0.68961   0.46487   0.50531   0.00000  Uiso   1.00
O84    O     0.52274   0.90870   0.75343   0.00000  Uiso   1.00
O85    O     0.62274   0.69919   0.53591   0.00000  Uiso   1.00
O86    O     0.84484   0.45677   0.71235   0.00000  Uiso   1.00
N87    N     0.62350   0.01950   0.84485   0.00000  Uiso   1.00
N88    N     0.69476   0.58282   0.68981   0.00000  Uiso   1.00
N89    N     0.85303   0.41009   0.52814   0.00000  Uiso   1.00
N90    N     0.50287   0.05431   0.80418   0.00000  Uiso   1.00
N91    N     0.57412   0.61762   0.64913   0.00000  Uiso   1.00
N92    N     0.73239   0.44490   0.48746   0.00000  Uiso   1.00
C93    C     0.76562   0.83436   0.97545   0.00000  Uiso   1.00
C94    C     0.82565   0.75609   0.03489   0.00000  Uiso   1.00
C95    C     0.80894   0.67089   0.06223   0.00000  Uiso   1.00
C96    C     0.87208   0.60864   0.11655   0.00000  Uiso   1.00
C97    C     0.95359   0.48373   0.20496   0.00000  Uiso   1.00
C98    C     0.80602   0.91134   0.07765   0.00000  Uiso   1.00
C99    C     0.77279   0.95667   0.14092   0.00000  Uiso   1.00
C100   C     0.81941   0.02511   0.23121   0.00000  Uiso   1.00
C101   C     0.87041   0.14127   0.38592   0.00000  Uiso   1.00
C102   C     0.76241   0.86372   0.84661   0.00000  Uiso   1.00
C103   C     0.69250   0.86904   0.71561   0.00000  Uiso   1.00
C104   C     0.70239   0.89741   0.61138   0.00000  Uiso   1.00
C105   C     0.68567   0.93964   0.40736   0.00000  Uiso   1.00
C106   C     0.90748   0.87530   0.02329   0.00000  Uiso   1.00
C107   C     0.90271   0.77833   0.06088   0.00000  Uiso   1.00
C108   C     0.96589   0.71618   0.11516   0.00000  Uiso   1.00
C109   C     0.94927   0.63091   0.14257   0.00000  Uiso   1.00
C110   C     0.88308   0.93357   0.10363   0.00000  Uiso   1.00
C111   C     0.92975   0.00196   0.19384   0.00000  Uiso   1.00
C112   C     0.89660   0.04739   0.25724   0.00000  Uiso   1.00
C113   C     0.83946   0.88595   0.87258   0.00000  Uiso   1.00
C114   C     0.84946   0.91433   0.76854   0.00000  Uiso   1.00
C115   C     0.77958   0.91969   0.63741   0.00000  Uiso   1.00
H116   H     0.70563   0.81706   0.95523   0.00000  Uiso   1.00
H117   H     0.74930   0.65372   0.04212   0.00000  Uiso   1.00
H118   H     0.71316   0.93946   0.12078   0.00000  Uiso   1.00
H119   H     0.63288   0.85183   0.69554   0.00000  Uiso   1.00
H120   H     0.83170   0.48244   0.14997   0.00000  Uiso   1.00
H121   H     0.75549   0.08496   0.31579   0.00000  Uiso   1.00
H122   H     0.58620   0.90019   0.41909   0.00000  Uiso   1.00
H123   H     0.96748   0.89261   0.04352   0.00000  Uiso   1.00
H124   H     0.02551   0.73341   0.13526   0.00000  Uiso   1.00
H125   H     0.98937   0.01915   0.21392   0.00000  Uiso   1.00
H126   H     0.90909   0.93153   0.78868   0.00000  Uiso   1.00
H127   H     0.05589   0.54712   0.22557   0.00000  Uiso   1.00
H128   H     0.97967   0.14965   0.39138   0.00000  Uiso   1.00
H129   H     0.81039   0.96487   0.49469   0.00000  Uiso   1.00
O130   O     0.97726   0.40870   0.24657   0.00000  Uiso   1.00
O131   O     0.87726   0.19919   0.46409   0.00000  Uiso   1.00
O132   O     0.65516   0.95677   0.28765   0.00000  Uiso   1.00
N133   N     0.87650   0.51950   0.15515   0.00000  Uiso   1.00
N134   N     0.80524   0.08282   0.31019   0.00000  Uiso   1.00
N135   N     0.64697   0.91009   0.47186   0.00000  Uiso   1.00
N136   N     0.99713   0.55431   0.19582   0.00000  Uiso   1.00
N137   N     0.92588   0.11762   0.35087   0.00000  Uiso   1.00
N138   N     0.76761   0.94490   0.51254   0.00000  Uiso   1.00
C139   C     0.26562   0.33436   0.97545   0.00000  Uiso   1.00
C140   C     0.32565   0.25609   0.03489   0.00000  Uiso   1.00
C141   C     0.30894   0.17089   0.06223   0.00000  Uiso   1.00
C142   C     0.37208   0.10864   0.11655   0.00000  Uiso   1.00
C143   C     0.45359   0.98373   0.20496   0.00000  Uiso   1.00
C144   C     0.30602   0.41134   0.07765   0.00000  Uiso   1.00
C145   C     0.27279   0.45667   0.14092   0.00000  Uiso   1.00
C146   C     0.31941   0.52511   0.23121   0.00000  Uiso   1.00
C147   C     0.37041   0.64127   0.38592   0.00000  Uiso   1.00
C148   C     0.26241   0.36372   0.84661   0.00000  Uiso   1.00
C149   C     0.19250   0.36904   0.71561   0.00000  Uiso   1.00
C150   C     0.20239   0.39741   0.61138   0.00000  Uiso   1.00
C151   C     0.18567   0.43964   0.40736   0.00000  Uiso   1.00
C152   C     0.40748   0.37530   0.02329   0.00000  Uiso   1.00
C153   C     0.40271   0.27833   0.06088   0.00000  Uiso   1.00
C154   C     0.46589   0.21618   0.11516   0.00000  Uiso   1.00
C155   C     0.44927   0.13091   0.14257   0.00000  Uiso   1.00
C156   C     0.38308   0.43357   0.10363   0.00000  Uiso   1.00
C157   C     0.42975   0.50196   0.19384   0.00000  Uiso   1.00
C158   C     0.39660   0.54739   0.25724   0.00000  Uiso   1.00
C159   C     0.33946   0.38595   0.87258   0.00000  Uiso   1.00
C160   C     0.34946   0.41433   0.76854   0.00000  Uiso   1.00
C161   C     0.27958   0.41969   0.63741   0.00000  Uiso   1.00
H162   H     0.20563   0.31706   0.95523   0.00000  Uiso   1.00
H163   H     0.24930   0.15372   0.04212   0.00000  Uiso   1.00
H164   H     0.21316   0.43946   0.12078   0.00000  Uiso   1.00
H165   H     0.13288   0.35183   0.69554   0.00000  Uiso   1.00
H166   H     0.33170   0.98244   0.14997   0.00000  Uiso   1.00
H167   H     0.25549   0.58496   0.31579   0.00000  Uiso   1.00
H168   H     0.08620   0.40019   0.41909   0.00000  Uiso   1.00
H169   H     0.46748   0.39261   0.04352   0.00000  Uiso   1.00
H170   H     0.52551   0.23341   0.13526   0.00000  Uiso   1.00
H171   H     0.48937   0.51915   0.21392   0.00000  Uiso   1.00
H172   H     0.40909   0.43153   0.78868   0.00000  Uiso   1.00
H173   H     0.55589   0.04712   0.22557   0.00000  Uiso   1.00
H174   H     0.47967   0.64965   0.39138   0.00000  Uiso   1.00
H175   H     0.31039   0.46487   0.49469   0.00000  Uiso   1.00
O176   O     0.47726   0.90870   0.24657   0.00000  Uiso   1.00
O177   O     0.37726   0.69919   0.46409   0.00000  Uiso   1.00
O178   O     0.15516   0.45677   0.28765   0.00000  Uiso   1.00
N179   N     0.37650   0.01950   0.15515   0.00000  Uiso   1.00
N180   N     0.30524   0.58282   0.31019   0.00000  Uiso   1.00
N181   N     0.14697   0.41009   0.47186   0.00000  Uiso   1.00
N182   N     0.49713   0.05431   0.19582   0.00000  Uiso   1.00
N183   N     0.42588   0.61762   0.35087   0.00000  Uiso   1.00
N184   N     0.26761   0.44490   0.51254   0.00000  Uiso   1.00
