data_job_04528
_audit_creation_date              2018-12-19
_audit_creation_method            'Materials Studio'
_symmetry_space_group_name_H-M    'P1'
_symmetry_Int_Tables_number       1
_symmetry_cell_setting            triclinic
loop_
_symmetry_equiv_pos_as_xyz
  x,y,z
_cell_length_a                    12.9602
_cell_length_b                    16.0482
_cell_length_c                    22.1670
_cell_angle_alpha                 85.0596
_cell_angle_beta                  81.8822
_cell_angle_gamma                 93.6662
loop_
_atom_site_label
_atom_site_type_symbol
_atom_site_fract_x
_atom_site_fract_y
_atom_site_fract_z
_atom_site_U_iso_or_equiv
_atom_site_adp_type
_atom_site_occupancy
C1     C     0.91628   0.14536   0.87626   0.00000  Uiso   1.00
C2     C     0.00021   0.21822   0.86260   0.00000  Uiso   1.00
C3     C     0.09712   0.21701   0.82702   0.00000  Uiso   1.00
C4     C     0.16285   0.29005   0.82005   0.00000  Uiso   1.00
C5     C     0.29779   0.39227   0.79467   0.00000  Uiso   1.00
C6     C     0.89235   0.12988   0.94583   0.00000  Uiso   1.00
C7     C     0.89856   0.05439   0.98022   0.00000  Uiso   1.00
C8     C     0.87348   0.05307   0.04332   0.00000  Uiso   1.00
C9     C     0.84089   0.01812   0.14714   0.00000  Uiso   1.00
C10    C     0.81818   0.17836   0.85522   0.00000  Uiso   1.00
C11    C     0.76200   0.14362   0.81345   0.00000  Uiso   1.00
C12    C     0.67445   0.18310   0.80027   0.00000  Uiso   1.00
C13    C     0.52670   0.22342   0.76341   0.00000  Uiso   1.00
C14    C     0.86069   0.27724   0.92715   0.00000  Uiso   1.00
C15    C     0.97001   0.28985   0.89025   0.00000  Uiso   1.00
C16    C     0.03562   0.36292   0.88333   0.00000  Uiso   1.00
C17    C     0.13260   0.36181   0.84774   0.00000  Uiso   1.00
C18    C     0.86216   0.20151   0.97347   0.00000  Uiso   1.00
C19    C     0.83706   0.20030   0.03653   0.00000  Uiso   1.00
C20    C     0.84323   0.12483   0.07101   0.00000  Uiso   1.00
C21    C     0.78798   0.24999   0.88287   0.00000  Uiso   1.00
C22    C     0.70050   0.28953   0.86975   0.00000  Uiso   1.00
C23    C     0.64420   0.25486   0.82796   0.00000  Uiso   1.00
H24    H     0.93978   0.08959   0.85474   0.00000  Uiso   1.00
H25    H     0.12046   0.16156   0.80564   0.00000  Uiso   1.00
H26    H     0.92192   0.99897   0.95882   0.00000  Uiso   1.00
H27    H     0.78539   0.08819   0.79206   0.00000  Uiso   1.00
H28    H     0.30747   0.27293   0.76341   0.00000  Uiso   1.00
H29    H     0.88881   0.93008   0.08639   0.00000  Uiso   1.00
H30    H     0.60090   0.11822   0.73477   0.00000  Uiso   1.00
H31    H     0.83718   0.33301   0.94868   0.00000  Uiso   1.00
H32    H     0.01223   0.41834   0.90473   0.00000  Uiso   1.00
H33    H     0.81369   0.25574   0.05791   0.00000  Uiso   1.00
H34    H     0.67716   0.34496   0.89115   0.00000  Uiso   1.00
H35    H     0.21963   0.48133   0.84384   0.00000  Uiso   1.00
H36    H     0.80096   0.13849   0.16682   0.00000  Uiso   1.00
H37    H     0.51305   0.32662   0.81519   0.00000  Uiso   1.00
O38    O     0.38057   0.42886   0.77303   0.00000  Uiso   1.00
O39    O     0.83127   0.97906   0.19677   0.00000  Uiso   1.00
O40    O     0.45355   0.22589   0.73544   0.00000  Uiso   1.00
N41    N     0.26277   0.31027   0.78836   0.00000  Uiso   1.00
N42    N     0.87135   0.98973   0.09033   0.00000  Uiso   1.00
N43    N     0.60217   0.16561   0.76160   0.00000  Uiso   1.00
N44    N     0.21550   0.42241   0.83164   0.00000  Uiso   1.00
N45    N     0.82409   0.10188   0.13361   0.00000  Uiso   1.00
N46    N     0.55490   0.27775   0.80488   0.00000  Uiso   1.00
C47    C     0.40321   0.71259   0.42464   0.00000  Uiso   1.00
C48    C     0.48203   0.78051   0.43831   0.00000  Uiso   1.00
C49    C     0.57986   0.80306   0.40453   0.00000  Uiso   1.00
C50    C     0.64031   0.86671   0.42454   0.00000  Uiso   1.00
C51    C     0.76821   0.96611   0.43789   0.00000  Uiso   1.00
C52    C     0.37901   0.65184   0.48249   0.00000  Uiso   1.00
C53    C     0.39020   0.56621   0.48584   0.00000  Uiso   1.00
C54    C     0.36391   0.52154   0.54304   0.00000  Uiso   1.00
C55    C     0.33180   0.42117   0.62497   0.00000  Uiso   1.00
C56    C     0.30295   0.75540   0.41864   0.00000  Uiso   1.00
C57    C     0.25018   0.75681   0.36831   0.00000  Uiso   1.00
C58    C     0.15984   0.79932   0.37176   0.00000  Uiso   1.00
C59    C     0.00964   0.85974   0.35454   0.00000  Uiso   1.00
C60    C     0.33659   0.78552   0.52026   0.00000  Uiso   1.00
C61    C     0.44584   0.82012   0.49025   0.00000  Uiso   1.00
C62    C     0.50616   0.88375   0.51032   0.00000  Uiso   1.00
C63    C     0.60406   0.90640   0.47657   0.00000  Uiso   1.00
C64    C     0.34282   0.69145   0.53442   0.00000  Uiso   1.00
C65    C     0.31650   0.64690   0.59163   0.00000  Uiso   1.00
C66    C     0.32766   0.56122   0.59507   0.00000  Uiso   1.00
C67    C     0.26677   0.79501   0.47057   0.00000  Uiso   1.00
C68    C     0.17648   0.83751   0.47410   0.00000  Uiso   1.00
C69    C     0.12359   0.83900   0.42379   0.00000  Uiso   1.00
H70    H     0.43138   0.68175   0.38421   0.00000  Uiso   1.00
H71    H     0.60784   0.77238   0.36434   0.00000  Uiso   1.00
H72    H     0.41820   0.53557   0.44564   0.00000  Uiso   1.00
H73    H     0.27820   0.72615   0.32813   0.00000  Uiso   1.00
H74    H     0.78753   0.89032   0.36523   0.00000  Uiso   1.00
H75    H     0.38763   0.39098   0.53665   0.00000  Uiso   1.00
H76    H     0.09242   0.79286   0.28885   0.00000  Uiso   1.00
H77    H     0.30842   0.81636   0.56069   0.00000  Uiso   1.00
H78    H     0.47813   0.91440   0.55051   0.00000  Uiso   1.00
H79    H     0.28850   0.67758   0.63181   0.00000  Uiso   1.00
H80    H     0.14850   0.86816   0.51430   0.00000  Uiso   1.00
H81    H     0.68226   0.00558   0.51634   0.00000  Uiso   1.00
H82    H     0.28236   0.50623   0.68776   0.00000  Uiso   1.00
H83    H     0.98715   0.90812   0.43996   0.00000  Uiso   1.00
O84    O     0.84877   0.00999   0.43092   0.00000  Uiso   1.00
O85    O     0.32410   0.35487   0.65581   0.00000  Uiso   1.00
O86    O     0.93680   0.88213   0.33070   0.00000  Uiso   1.00
N87    N     0.73945   0.90401   0.40219   0.00000  Uiso   1.00
N88    N     0.36559   0.43715   0.56246   0.00000  Uiso   1.00
N89    N     0.08958   0.81286   0.33079   0.00000  Uiso   1.00
N90    N     0.68281   0.96603   0.48349   0.00000  Uiso   1.00
N91    N     0.30895   0.49917   0.64376   0.00000  Uiso   1.00
N92    N     0.03293   0.87488   0.41210   0.00000  Uiso   1.00
C93    C     0.62616   0.80665   0.93293   0.00000  Uiso   1.00
C94    C     0.53950   0.73584   0.94634   0.00000  Uiso   1.00
C95    C     0.45908   0.72291   0.91216   0.00000  Uiso   1.00
C96    C     0.38752   0.65458   0.93197   0.00000  Uiso   1.00
C97    C     0.25160   0.55278   0.94488   0.00000  Uiso   1.00
C98    C     0.62113   0.85224   0.99074   0.00000  Uiso   1.00
C99    C     0.60937   0.93718   0.99388   0.00000  Uiso   1.00
C100   C     0.60655   0.96683   0.05107   0.00000  Uiso   1.00
C101   C     0.59746   0.04577   0.13289   0.00000  Uiso   1.00
C102   C     0.72876   0.76445   0.92749   0.00000  Uiso   1.00
C103   C     0.80751   0.77559   0.87747   0.00000  Uiso   1.00
C104   C     0.89532   0.73134   0.88142   0.00000  Uiso   1.00
C105   C     0.05333   0.67397   0.86505   0.00000  Uiso   1.00
C106   C     0.64209   0.70828   0.02890   0.00000  Uiso   1.00
C107   C     0.54815   0.68242   0.99847   0.00000  Uiso   1.00
C108   C     0.47670   0.61408   0.01834   0.00000  Uiso   1.00
C109   C     0.39619   0.60105   0.98419   0.00000  Uiso   1.00
C110   C     0.62978   0.79882   0.04286   0.00000  Uiso   1.00
C111   C     0.62699   0.82835   0.10006   0.00000  Uiso   1.00
C112   C     0.61522   0.91331   0.10329   0.00000  Uiso   1.00
C113   C     0.73741   0.71102   0.97962   0.00000  Uiso   1.00
C114   C     0.82512   0.66675   0.98365   0.00000  Uiso   1.00
C115   C     0.90399   0.67782   0.93364   0.00000  Uiso   1.00
H116   H     0.61943   0.84825   0.89235   0.00000  Uiso   1.00
H117   H     0.45240   0.76428   0.87183   0.00000  Uiso   1.00
H118   H     0.60269   0.97851   0.95353   0.00000  Uiso   1.00
H119   H     0.80079   0.81694   0.83714   0.00000  Uiso   1.00
H120   H     0.27102   0.64764   0.87207   0.00000  Uiso   1.00
H121   H     0.58794   0.09937   0.04434   0.00000  Uiso   1.00
H122   H     0.00567   0.75867   0.79891   0.00000  Uiso   1.00
H123   H     0.64883   0.66668   0.06949   0.00000  Uiso   1.00
H124   H     0.48341   0.57274   0.05868   0.00000  Uiso   1.00
H125   H     0.63369   0.78698   0.14038   0.00000  Uiso   1.00
H126   H     0.83179   0.62541   0.02400   0.00000  Uiso   1.00
H127   H     0.29618   0.49218   0.02373   0.00000  Uiso   1.00
H128   H     0.61311   0.94392   0.19600   0.00000  Uiso   1.00
H129   H     0.03084   0.60322   0.95057   0.00000  Uiso   1.00
O130   O     0.17424   0.51141   0.93760   0.00000  Uiso   1.00
O131   O     0.59004   0.10407   0.16362   0.00000  Uiso   1.00
O132   O     0.13810   0.65707   0.84162   0.00000  Uiso   1.00
N133   N     0.29965   0.62393   0.90924   0.00000  Uiso   1.00
N134   N     0.59594   0.04628   0.07031   0.00000  Uiso   1.00
N135   N     0.98650   0.72777   0.84086   0.00000  Uiso   1.00
N136   N     0.31320   0.54028   0.99084   0.00000  Uiso   1.00
N137   N     0.60948   0.96263   0.15191   0.00000  Uiso   1.00
N138   N     0.00004   0.64412   0.92246   0.00000  Uiso   1.00
C139   C     0.14876   0.39454   0.37769   0.00000  Uiso   1.00
C140   C     0.07254   0.32742   0.36038   0.00000  Uiso   1.00
C141   C     0.99488   0.34141   0.32437   0.00000  Uiso   1.00
C142   C     0.93324   0.27170   0.31384   0.00000  Uiso   1.00
C143   C     0.81249   0.17975   0.28325   0.00000  Uiso   1.00
C144   C     0.13546   0.38608   0.44745   0.00000  Uiso   1.00
C145   C     0.11072   0.44939   0.48464   0.00000  Uiso   1.00
C146   C     0.10206   0.42906   0.54740   0.00000  Uiso   1.00
C147   C     0.07907   0.42821   0.65199   0.00000  Uiso   1.00
C148   C     0.25790   0.36824   0.35630   0.00000  Uiso   1.00
C149   C     0.33613   0.41657   0.31685   0.00000  Uiso   1.00
C150   C     0.43057   0.38123   0.30288   0.00000  Uiso   1.00
C151   C     0.59769   0.35269   0.26594   0.00000  Uiso   1.00
C152   C     0.17741   0.24585   0.42303   0.00000  Uiso   1.00
C153   C     0.08810   0.24666   0.38502   0.00000  Uiso   1.00
C154   C     0.02657   0.17690   0.37453   0.00000  Uiso   1.00
C155   C     0.94883   0.19079   0.33851   0.00000  Uiso   1.00
C156   C     0.15102   0.30532   0.47208   0.00000  Uiso   1.00
C157   C     0.14241   0.28489   0.53480   0.00000  Uiso   1.00
C158   C     0.11765   0.34815   0.57208   0.00000  Uiso   1.00
C159   C     0.27347   0.28748   0.38093   0.00000  Uiso   1.00
C160   C     0.36781   0.25206   0.36702   0.00000  Uiso   1.00
C161   C     0.44616   0.30032   0.32756   0.00000  Uiso   1.00
H162   H     0.13665   0.45742   0.35852   0.00000  Uiso   1.00
H163   H     0.98286   0.40392   0.30532   0.00000  Uiso   1.00
H164   H     0.09869   0.51189   0.46557   0.00000  Uiso   1.00
H165   H     0.32406   0.47907   0.29781   0.00000  Uiso   1.00
H166   H     0.81919   0.30899   0.25723   0.00000  Uiso   1.00
H167   H     0.06346   0.53666   0.59511   0.00000  Uiso   1.00
H168   H     0.53869   0.46745   0.24135   0.00000  Uiso   1.00
H169   H     0.18952   0.18298   0.44221   0.00000  Uiso   1.00
H170   H     0.03863   0.11441   0.39360   0.00000  Uiso   1.00
H171   H     0.15446   0.22238   0.55385   0.00000  Uiso   1.00
H172   H     0.37983   0.18956   0.38609   0.00000  Uiso   1.00
H173   H     0.86445   0.07402   0.32888   0.00000  Uiso   1.00
H174   H     0.10873   0.30169   0.66676   0.00000  Uiso   1.00
H175   H     0.58396   0.23247   0.31301   0.00000  Uiso   1.00
O176   O     0.74158   0.15135   0.25959   0.00000  Uiso   1.00
O177   O     0.06208   0.45005   0.70287   0.00000  Uiso   1.00
O178   O     0.68557   0.35925   0.23875   0.00000  Uiso   1.00
N179   N     0.85056   0.26310   0.28075   0.00000  Uiso   1.00
N180   N     0.07892   0.47595   0.59665   0.00000  Uiso   1.00
N181   N     0.52324   0.41125   0.26593   0.00000  Uiso   1.00
N182   N     0.87492   0.13666   0.31931   0.00000  Uiso   1.00
N183   N     0.10328   0.34951   0.63521   0.00000  Uiso   1.00
N184   N     0.54760   0.28481   0.30449   0.00000  Uiso   1.00
C185   C     0.08372   0.85464   0.12374   0.00000  Uiso   1.00
C186   C     0.99979   0.78178   0.13740   0.00000  Uiso   1.00
C187   C     0.90288   0.78299   0.17298   0.00000  Uiso   1.00
C188   C     0.83715   0.70995   0.17995   0.00000  Uiso   1.00
C189   C     0.70221   0.60773   0.20533   0.00000  Uiso   1.00
C190   C     0.10765   0.87012   0.05417   0.00000  Uiso   1.00
C191   C     0.10144   0.94561   0.01978   0.00000  Uiso   1.00
C192   C     0.12652   0.94693   0.95668   0.00000  Uiso   1.00
C193   C     0.15911   0.98188   0.85286   0.00000  Uiso   1.00
C194   C     0.18182   0.82164   0.14478   0.00000  Uiso   1.00
C195   C     0.23800   0.85638   0.18655   0.00000  Uiso   1.00
C196   C     0.32555   0.81690   0.19973   0.00000  Uiso   1.00
C197   C     0.47330   0.77658   0.23659   0.00000  Uiso   1.00
C198   C     0.13931   0.72276   0.07285   0.00000  Uiso   1.00
C199   C     0.02999   0.71015   0.10975   0.00000  Uiso   1.00
C200   C     0.96438   0.63708   0.11667   0.00000  Uiso   1.00
C201   C     0.86740   0.63819   0.15226   0.00000  Uiso   1.00
C202   C     0.13784   0.79849   0.02653   0.00000  Uiso   1.00
C203   C     0.16294   0.79970   0.96347   0.00000  Uiso   1.00
C204   C     0.15677   0.87517   0.92899   0.00000  Uiso   1.00
C205   C     0.21202   0.75001   0.11713   0.00000  Uiso   1.00
C206   C     0.29950   0.71047   0.13025   0.00000  Uiso   1.00
C207   C     0.35580   0.74514   0.17204   0.00000  Uiso   1.00
H208   H     0.06022   0.91041   0.14526   0.00000  Uiso   1.00
H209   H     0.87954   0.83844   0.19436   0.00000  Uiso   1.00
H210   H     0.07808   0.00103   0.04118   0.00000  Uiso   1.00
H211   H     0.21461   0.91181   0.20794   0.00000  Uiso   1.00
H212   H     0.69253   0.72707   0.23659   0.00000  Uiso   1.00
H213   H     0.11119   0.06992   0.91361   0.00000  Uiso   1.00
H214   H     0.39910   0.88178   0.26523   0.00000  Uiso   1.00
H215   H     0.16282   0.66699   0.05132   0.00000  Uiso   1.00
H216   H     0.98777   0.58166   0.09527   0.00000  Uiso   1.00
H217   H     0.18631   0.74426   0.94209   0.00000  Uiso   1.00
H218   H     0.32284   0.65504   0.10885   0.00000  Uiso   1.00
H219   H     0.78037   0.51867   0.15616   0.00000  Uiso   1.00
H220   H     0.19904   0.86151   0.83318   0.00000  Uiso   1.00
H221   H     0.48695   0.67338   0.18481   0.00000  Uiso   1.00
O222   O     0.61943   0.57114   0.22697   0.00000  Uiso   1.00
O223   O     0.16873   0.02094   0.80323   0.00000  Uiso   1.00
O224   O     0.54645   0.77411   0.26456   0.00000  Uiso   1.00
N225   N     0.73723   0.68973   0.21164   0.00000  Uiso   1.00
N226   N     0.12865   0.01027   0.90967   0.00000  Uiso   1.00
N227   N     0.39783   0.83439   0.23840   0.00000  Uiso   1.00
N228   N     0.78450   0.57759   0.16836   0.00000  Uiso   1.00
N229   N     0.17591   0.89812   0.86639   0.00000  Uiso   1.00
N230   N     0.44510   0.72225   0.19512   0.00000  Uiso   1.00
C231   C     0.59679   0.28741   0.57536   0.00000  Uiso   1.00
C232   C     0.51797   0.21949   0.56169   0.00000  Uiso   1.00
C233   C     0.42014   0.19694   0.59547   0.00000  Uiso   1.00
C234   C     0.35969   0.13329   0.57546   0.00000  Uiso   1.00
C235   C     0.23179   0.03389   0.56211   0.00000  Uiso   1.00
C236   C     0.62099   0.34816   0.51751   0.00000  Uiso   1.00
C237   C     0.60980   0.43379   0.51416   0.00000  Uiso   1.00
C238   C     0.63609   0.47846   0.45696   0.00000  Uiso   1.00
C239   C     0.66820   0.57883   0.37503   0.00000  Uiso   1.00
C240   C     0.69705   0.24460   0.58136   0.00000  Uiso   1.00
C241   C     0.74982   0.24319   0.63169   0.00000  Uiso   1.00
C242   C     0.84016   0.20068   0.62824   0.00000  Uiso   1.00
C243   C     0.99036   0.14026   0.64546   0.00000  Uiso   1.00
C244   C     0.66341   0.21448   0.47974   0.00000  Uiso   1.00
C245   C     0.55416   0.17988   0.50975   0.00000  Uiso   1.00
C246   C     0.49384   0.11625   0.48968   0.00000  Uiso   1.00
C247   C     0.39594   0.09360   0.52343   0.00000  Uiso   1.00
C248   C     0.65718   0.30855   0.46558   0.00000  Uiso   1.00
C249   C     0.68350   0.35310   0.40837   0.00000  Uiso   1.00
C250   C     0.67234   0.43878   0.40493   0.00000  Uiso   1.00
C251   C     0.73323   0.20499   0.52943   0.00000  Uiso   1.00
C252   C     0.82352   0.16249   0.52590   0.00000  Uiso   1.00
C253   C     0.87641   0.16100   0.57621   0.00000  Uiso   1.00
H254   H     0.56862   0.31825   0.61579   0.00000  Uiso   1.00
H255   H     0.39216   0.22762   0.63566   0.00000  Uiso   1.00
H256   H     0.58180   0.46443   0.55436   0.00000  Uiso   1.00
H257   H     0.72180   0.27385   0.67187   0.00000  Uiso   1.00
H258   H     0.21247   0.10968   0.63477   0.00000  Uiso   1.00
H259   H     0.61237   0.60902   0.46335   0.00000  Uiso   1.00
H260   H     0.90758   0.20714   0.71115   0.00000  Uiso   1.00
H261   H     0.69158   0.18364   0.43931   0.00000  Uiso   1.00
H262   H     0.52187   0.08560   0.44949   0.00000  Uiso   1.00
H263   H     0.71150   0.32242   0.36819   0.00000  Uiso   1.00
H264   H     0.85150   0.13184   0.48570   0.00000  Uiso   1.00
H265   H     0.31774   0.99442   0.48366   0.00000  Uiso   1.00
H266   H     0.71764   0.49377   0.31224   0.00000  Uiso   1.00
H267   H     0.01285   0.09188   0.56004   0.00000  Uiso   1.00
O268   O     0.15123   0.99001   0.56908   0.00000  Uiso   1.00
O269   O     0.67590   0.64513   0.34419   0.00000  Uiso   1.00
O270   O     0.06320   0.11787   0.66930   0.00000  Uiso   1.00
N271   N     0.26055   0.09599   0.59781   0.00000  Uiso   1.00
N272   N     0.63441   0.56285   0.43754   0.00000  Uiso   1.00
N273   N     0.91042   0.18714   0.66921   0.00000  Uiso   1.00
N274   N     0.31719   0.03397   0.51651   0.00000  Uiso   1.00
N275   N     0.69105   0.50083   0.35624   0.00000  Uiso   1.00
N276   N     0.96707   0.12512   0.58790   0.00000  Uiso   1.00
C277   C     0.37384   0.19335   0.06707   0.00000  Uiso   1.00
C278   C     0.46050   0.26416   0.05366   0.00000  Uiso   1.00
C279   C     0.54092   0.27709   0.08784   0.00000  Uiso   1.00
C280   C     0.61248   0.34542   0.06803   0.00000  Uiso   1.00
C281   C     0.74840   0.44722   0.05512   0.00000  Uiso   1.00
C282   C     0.37887   0.14776   0.00926   0.00000  Uiso   1.00
C283   C     0.39063   0.06282   0.00612   0.00000  Uiso   1.00
C284   C     0.39345   0.03317   0.94893   0.00000  Uiso   1.00
C285   C     0.40254   0.95423   0.86711   0.00000  Uiso   1.00
C286   C     0.27124   0.23555   0.07251   0.00000  Uiso   1.00
C287   C     0.19249   0.22441   0.12253   0.00000  Uiso   1.00
C288   C     0.10468   0.26866   0.11858   0.00000  Uiso   1.00
C289   C     0.94667   0.32603   0.13495   0.00000  Uiso   1.00
C290   C     0.35791   0.29172   0.97110   0.00000  Uiso   1.00
C291   C     0.45185   0.31758   0.00153   0.00000  Uiso   1.00
C292   C     0.52330   0.38592   0.98166   0.00000  Uiso   1.00
C293   C     0.60381   0.39895   0.01581   0.00000  Uiso   1.00
C294   C     0.37022   0.20118   0.95714   0.00000  Uiso   1.00
C295   C     0.37301   0.17165   0.89994   0.00000  Uiso   1.00
C296   C     0.38478   0.08669   0.89671   0.00000  Uiso   1.00
C297   C     0.26259   0.28898   0.02038   0.00000  Uiso   1.00
C298   C     0.17488   0.33325   0.01635   0.00000  Uiso   1.00
C299   C     0.09601   0.32218   0.06636   0.00000  Uiso   1.00
H300   H     0.38057   0.15175   0.10765   0.00000  Uiso   1.00
H301   H     0.54760   0.23572   0.12817   0.00000  Uiso   1.00
H302   H     0.39731   0.02149   0.04647   0.00000  Uiso   1.00
H303   H     0.19921   0.18306   0.16286   0.00000  Uiso   1.00
H304   H     0.72898   0.35236   0.12793   0.00000  Uiso   1.00
H305   H     0.41206   0.90063   0.95566   0.00000  Uiso   1.00
H306   H     0.99433   0.24133   0.20109   0.00000  Uiso   1.00
H307   H     0.35117   0.33332   0.93051   0.00000  Uiso   1.00
H308   H     0.51659   0.42726   0.94132   0.00000  Uiso   1.00
H309   H     0.36631   0.21302   0.85962   0.00000  Uiso   1.00
H310   H     0.16821   0.37459   0.97600   0.00000  Uiso   1.00
H311   H     0.70382   0.50782   0.97627   0.00000  Uiso   1.00
H312   H     0.38689   0.05608   0.80400   0.00000  Uiso   1.00
H313   H     0.96916   0.39678   0.04943   0.00000  Uiso   1.00
O314   O     0.82576   0.48859   0.06240   0.00000  Uiso   1.00
O315   O     0.40996   0.89593   0.83638   0.00000  Uiso   1.00
O316   O     0.86190   0.34293   0.15838   0.00000  Uiso   1.00
N317   N     0.70035   0.37607   0.09076   0.00000  Uiso   1.00
N318   N     0.40406   0.95372   0.92969   0.00000  Uiso   1.00
N319   N     0.01350   0.27223   0.15914   0.00000  Uiso   1.00
N320   N     0.68680   0.45972   0.00916   0.00000  Uiso   1.00
N321   N     0.39052   0.03737   0.84809   0.00000  Uiso   1.00
N322   N     0.99996   0.35588   0.07754   0.00000  Uiso   1.00
C323   C     0.85124   0.60546   0.62231   0.00000  Uiso   1.00
C324   C     0.92746   0.67258   0.63962   0.00000  Uiso   1.00
C325   C     0.00512   0.65859   0.67563   0.00000  Uiso   1.00
C326   C     0.06676   0.72830   0.68616   0.00000  Uiso   1.00
C327   C     0.18751   0.82025   0.71675   0.00000  Uiso   1.00
C328   C     0.86454   0.61392   0.55255   0.00000  Uiso   1.00
C329   C     0.88928   0.55061   0.51536   0.00000  Uiso   1.00
C330   C     0.89794   0.57094   0.45260   0.00000  Uiso   1.00
C331   C     0.92093   0.57179   0.34801   0.00000  Uiso   1.00
C332   C     0.74210   0.63176   0.64370   0.00000  Uiso   1.00
C333   C     0.66387   0.58343   0.68315   0.00000  Uiso   1.00
C334   C     0.56943   0.61877   0.69712   0.00000  Uiso   1.00
C335   C     0.40231   0.64731   0.73406   0.00000  Uiso   1.00
C336   C     0.82259   0.75415   0.57697   0.00000  Uiso   1.00
C337   C     0.91190   0.75334   0.61498   0.00000  Uiso   1.00
C338   C     0.97343   0.82310   0.62547   0.00000  Uiso   1.00
C339   C     0.05117   0.80921   0.66149   0.00000  Uiso   1.00
C340   C     0.84898   0.69468   0.52792   0.00000  Uiso   1.00
C341   C     0.85759   0.71511   0.46520   0.00000  Uiso   1.00
C342   C     0.88235   0.65185   0.42792   0.00000  Uiso   1.00
C343   C     0.72653   0.71252   0.61907   0.00000  Uiso   1.00
C344   C     0.63219   0.74794   0.63298   0.00000  Uiso   1.00
C345   C     0.55384   0.69968   0.67244   0.00000  Uiso   1.00
H346   H     0.86335   0.54258   0.64148   0.00000  Uiso   1.00
H347   H     0.01714   0.59608   0.69468   0.00000  Uiso   1.00
H348   H     0.90131   0.48811   0.53443   0.00000  Uiso   1.00
H349   H     0.67594   0.52093   0.70219   0.00000  Uiso   1.00
H350   H     0.18081   0.69101   0.74277   0.00000  Uiso   1.00
H351   H     0.93654   0.46334   0.40489   0.00000  Uiso   1.00
H352   H     0.46131   0.53255   0.75865   0.00000  Uiso   1.00
H353   H     0.81048   0.81702   0.55779   0.00000  Uiso   1.00
H354   H     0.96137   0.88559   0.60640   0.00000  Uiso   1.00
H355   H     0.84554   0.77762   0.44615   0.00000  Uiso   1.00
H356   H     0.62017   0.81044   0.61391   0.00000  Uiso   1.00
H357   H     0.13555   0.92598   0.67112   0.00000  Uiso   1.00
H358   H     0.89127   0.69831   0.33324   0.00000  Uiso   1.00
H359   H     0.41604   0.76753   0.68699   0.00000  Uiso   1.00
O360   O     0.25842   0.84865   0.74041   0.00000  Uiso   1.00
O361   O     0.93792   0.54995   0.29713   0.00000  Uiso   1.00
O362   O     0.31443   0.64075   0.76125   0.00000  Uiso   1.00
N363   N     0.14944   0.73690   0.71925   0.00000  Uiso   1.00
N364   N     0.92108   0.52405   0.40335   0.00000  Uiso   1.00
N365   N     0.47676   0.58875   0.73407   0.00000  Uiso   1.00
N366   N     0.12508   0.86334   0.68069   0.00000  Uiso   1.00
N367   N     0.89672   0.65049   0.36479   0.00000  Uiso   1.00
N368   N     0.45240   0.71519   0.69551   0.00000  Uiso   1.00
