data_job_02424
_audit_creation_date              2018-12-19
_audit_creation_method            'Materials Studio'
_symmetry_space_group_name_H-M    'P1'
_symmetry_Int_Tables_number       1
_symmetry_cell_setting            triclinic
loop_
_symmetry_equiv_pos_as_xyz
  x,y,z
_cell_length_a                    30.8596
_cell_length_b                    30.8596
_cell_length_c                    7.0868
_cell_angle_alpha                 90.0000
_cell_angle_beta                  90.0000
_cell_angle_gamma                 90.0000
loop_
_atom_site_label
_atom_site_type_symbol
_atom_site_fract_x
_atom_site_fract_y
_atom_site_fract_z
_atom_site_U_iso_or_equiv
_atom_site_adp_type
_atom_site_occupancy
C1     C     0.15350   0.54206   0.34314   0.00000  Uiso   1.00
C2     C     0.20065   0.53044   0.38301   0.00000  Uiso   1.00
C3     C     0.23263   0.52409   0.24812   0.00000  Uiso   1.00
C4     C     0.27376   0.51367   0.31325   0.00000  Uiso   1.00
C5     C     0.34563   0.49621   0.34577   0.00000  Uiso   1.00
C6     C     0.12633   0.50702   0.43814   0.00000  Uiso   1.00
C7     C     0.09581   0.48098   0.34959   0.00000  Uiso   1.00
C8     C     0.07437   0.45084   0.46115   0.00000  Uiso   1.00
C9     C     0.03083   0.39704   0.57928   0.00000  Uiso   1.00
C10    C     0.14461   0.58375   0.45193   0.00000  Uiso   1.00
C11    C     0.12945   0.62223   0.37500   0.00000  Uiso   1.00
C12    C     0.12340   0.65669   0.49817   0.00000  Uiso   1.00
C13    C     0.10825   0.72203   0.63772   0.00000  Uiso   1.00
C14    C     0.16968   0.53483   0.69868   0.00000  Uiso   1.00
C15    C     0.20944   0.52652   0.57612   0.00000  Uiso   1.00
C16    C     0.25053   0.51610   0.64148   0.00000  Uiso   1.00
C17    C     0.28256   0.50973   0.50671   0.00000  Uiso   1.00
C18    C     0.13512   0.50309   0.63124   0.00000  Uiso   1.00
C19    C     0.11372   0.47299   0.74296   0.00000  Uiso   1.00
C20    C     0.08318   0.44691   0.65461   0.00000  Uiso   1.00
C21    C     0.15340   0.57983   0.64504   0.00000  Uiso   1.00
C22    C     0.14736   0.61424   0.76836   0.00000  Uiso   1.00
C23    C     0.13220   0.65276   0.69164   0.00000  Uiso   1.00
H24    H     0.14665   0.54511   0.19280   0.00000  Uiso   1.00
H25    H     0.22581   0.52713   0.09868   0.00000  Uiso   1.00
H26    H     0.08901   0.48403   0.20015   0.00000  Uiso   1.00
H27    H     0.12266   0.62526   0.22555   0.00000  Uiso   1.00
H28    H     0.31744   0.50545   0.07950   0.00000  Uiso   1.00
H29    H     0.02899   0.41458   0.29347   0.00000  Uiso   1.00
H30    H     0.09993   0.71239   0.34703   0.00000  Uiso   1.00
H31    H     0.17653   0.53177   0.84903   0.00000  Uiso   1.00
H32    H     0.25732   0.51306   0.79093   0.00000  Uiso   1.00
H33    H     0.12053   0.46996   0.89240   0.00000  Uiso   1.00
H34    H     0.15417   0.61119   0.91779   0.00000  Uiso   1.00
H35    H     0.34302   0.49403   0.64135   0.00000  Uiso   1.00
H36    H     0.05456   0.40316   0.85532   0.00000  Uiso   1.00
H37    H     0.12550   0.70096   0.90888   0.00000  Uiso   1.00
O38    O     0.38284   0.48765   0.31036   0.00000  Uiso   1.00
O39    O     0.00439   0.36845   0.59108   0.00000  Uiso   1.00
O40    O     0.09747   0.75916   0.66135   0.00000  Uiso   1.00
N41    N     0.31237   0.50534   0.21971   0.00000  Uiso   1.00
N42    N     0.04269   0.42038   0.41975   0.00000  Uiso   1.00
N43    N     0.10900   0.69880   0.46983   0.00000  Uiso   1.00
N44    N     0.32614   0.49919   0.52204   0.00000  Uiso   1.00
N45    N     0.05646   0.41423   0.72208   0.00000  Uiso   1.00
N46    N     0.12277   0.69265   0.77216   0.00000  Uiso   1.00
C47    C     0.65350   0.04206   0.84314   0.00000  Uiso   1.00
C48    C     0.70065   0.03044   0.88301   0.00000  Uiso   1.00
C49    C     0.73263   0.02409   0.74812   0.00000  Uiso   1.00
C50    C     0.77376   0.01367   0.81325   0.00000  Uiso   1.00
C51    C     0.84563   0.99621   0.84577   0.00000  Uiso   1.00
C52    C     0.62633   0.00702   0.93814   0.00000  Uiso   1.00
C53    C     0.59581   0.98098   0.84959   0.00000  Uiso   1.00
C54    C     0.57437   0.95084   0.96115   0.00000  Uiso   1.00
C55    C     0.53083   0.89704   0.07928   0.00000  Uiso   1.00
C56    C     0.64461   0.08375   0.95193   0.00000  Uiso   1.00
C57    C     0.62945   0.12223   0.87500   0.00000  Uiso   1.00
C58    C     0.62340   0.15669   0.99817   0.00000  Uiso   1.00
C59    C     0.60825   0.22203   0.13772   0.00000  Uiso   1.00
C60    C     0.66968   0.03483   0.19868   0.00000  Uiso   1.00
C61    C     0.70944   0.02652   0.07612   0.00000  Uiso   1.00
C62    C     0.75053   0.01610   0.14148   0.00000  Uiso   1.00
C63    C     0.78256   0.00973   0.00671   0.00000  Uiso   1.00
C64    C     0.63512   0.00309   0.13124   0.00000  Uiso   1.00
C65    C     0.61372   0.97299   0.24296   0.00000  Uiso   1.00
C66    C     0.58318   0.94691   0.15461   0.00000  Uiso   1.00
C67    C     0.65340   0.07983   0.14504   0.00000  Uiso   1.00
C68    C     0.64736   0.11424   0.26836   0.00000  Uiso   1.00
C69    C     0.63220   0.15276   0.19164   0.00000  Uiso   1.00
H70    H     0.64665   0.04511   0.69280   0.00000  Uiso   1.00
H71    H     0.72581   0.02713   0.59868   0.00000  Uiso   1.00
H72    H     0.58901   0.98403   0.70015   0.00000  Uiso   1.00
H73    H     0.62266   0.12526   0.72555   0.00000  Uiso   1.00
H74    H     0.81744   0.00545   0.57950   0.00000  Uiso   1.00
H75    H     0.52899   0.91458   0.79347   0.00000  Uiso   1.00
H76    H     0.59993   0.21239   0.84703   0.00000  Uiso   1.00
H77    H     0.67653   0.03177   0.34903   0.00000  Uiso   1.00
H78    H     0.75732   0.01306   0.29093   0.00000  Uiso   1.00
H79    H     0.62053   0.96996   0.39240   0.00000  Uiso   1.00
H80    H     0.65417   0.11119   0.41779   0.00000  Uiso   1.00
H81    H     0.84302   0.99403   0.14135   0.00000  Uiso   1.00
H82    H     0.55456   0.90316   0.35532   0.00000  Uiso   1.00
H83    H     0.62550   0.20096   0.40888   0.00000  Uiso   1.00
O84    O     0.88284   0.98765   0.81036   0.00000  Uiso   1.00
O85    O     0.50439   0.86845   0.09108   0.00000  Uiso   1.00
O86    O     0.59747   0.25916   0.16135   0.00000  Uiso   1.00
N87    N     0.81237   0.00534   0.71971   0.00000  Uiso   1.00
N88    N     0.54269   0.92038   0.91975   0.00000  Uiso   1.00
N89    N     0.60900   0.19880   0.96983   0.00000  Uiso   1.00
N90    N     0.82614   0.99919   0.02204   0.00000  Uiso   1.00
N91    N     0.55646   0.91423   0.22208   0.00000  Uiso   1.00
N92    N     0.62277   0.19265   0.27216   0.00000  Uiso   1.00
C93    C     0.34650   0.95794   0.84314   0.00000  Uiso   1.00
C94    C     0.29935   0.96956   0.88301   0.00000  Uiso   1.00
C95    C     0.26737   0.97591   0.74812   0.00000  Uiso   1.00
C96    C     0.22624   0.98633   0.81325   0.00000  Uiso   1.00
C97    C     0.15437   0.00379   0.84577   0.00000  Uiso   1.00
C98    C     0.37367   0.99298   0.93814   0.00000  Uiso   1.00
C99    C     0.40419   0.01902   0.84959   0.00000  Uiso   1.00
C100   C     0.42563   0.04916   0.96115   0.00000  Uiso   1.00
C101   C     0.46917   0.10296   0.07928   0.00000  Uiso   1.00
C102   C     0.35539   0.91625   0.95193   0.00000  Uiso   1.00
C103   C     0.37055   0.87777   0.87500   0.00000  Uiso   1.00
C104   C     0.37660   0.84331   0.99817   0.00000  Uiso   1.00
C105   C     0.39175   0.77797   0.13772   0.00000  Uiso   1.00
C106   C     0.33032   0.96517   0.19868   0.00000  Uiso   1.00
C107   C     0.29056   0.97348   0.07612   0.00000  Uiso   1.00
C108   C     0.24947   0.98390   0.14148   0.00000  Uiso   1.00
C109   C     0.21744   0.99027   0.00671   0.00000  Uiso   1.00
C110   C     0.36488   0.99691   0.13124   0.00000  Uiso   1.00
C111   C     0.38628   0.02701   0.24296   0.00000  Uiso   1.00
C112   C     0.41682   0.05309   0.15461   0.00000  Uiso   1.00
C113   C     0.34660   0.92017   0.14504   0.00000  Uiso   1.00
C114   C     0.35264   0.88576   0.26836   0.00000  Uiso   1.00
C115   C     0.36780   0.84724   0.19164   0.00000  Uiso   1.00
H116   H     0.35335   0.95489   0.69280   0.00000  Uiso   1.00
H117   H     0.27419   0.97287   0.59868   0.00000  Uiso   1.00
H118   H     0.41099   0.01597   0.70015   0.00000  Uiso   1.00
H119   H     0.37734   0.87474   0.72555   0.00000  Uiso   1.00
H120   H     0.18256   0.99455   0.57950   0.00000  Uiso   1.00
H121   H     0.47101   0.08542   0.79347   0.00000  Uiso   1.00
H122   H     0.40007   0.78761   0.84703   0.00000  Uiso   1.00
H123   H     0.32347   0.96823   0.34903   0.00000  Uiso   1.00
H124   H     0.24268   0.98694   0.29093   0.00000  Uiso   1.00
H125   H     0.37947   0.03004   0.39240   0.00000  Uiso   1.00
H126   H     0.34583   0.88881   0.41779   0.00000  Uiso   1.00
H127   H     0.15698   0.00597   0.14135   0.00000  Uiso   1.00
H128   H     0.44544   0.09684   0.35532   0.00000  Uiso   1.00
H129   H     0.37450   0.79904   0.40888   0.00000  Uiso   1.00
O130   O     0.11716   0.01235   0.81036   0.00000  Uiso   1.00
O131   O     0.49561   0.13155   0.09108   0.00000  Uiso   1.00
O132   O     0.40253   0.74084   0.16135   0.00000  Uiso   1.00
N133   N     0.18763   0.99466   0.71971   0.00000  Uiso   1.00
N134   N     0.45731   0.07962   0.91975   0.00000  Uiso   1.00
N135   N     0.39100   0.80120   0.96983   0.00000  Uiso   1.00
N136   N     0.17386   0.00081   0.02204   0.00000  Uiso   1.00
N137   N     0.44354   0.08577   0.22208   0.00000  Uiso   1.00
N138   N     0.37723   0.80735   0.27216   0.00000  Uiso   1.00
C139   C     0.84650   0.45794   0.34314   0.00000  Uiso   1.00
C140   C     0.79935   0.46956   0.38301   0.00000  Uiso   1.00
C141   C     0.76737   0.47591   0.24812   0.00000  Uiso   1.00
C142   C     0.72624   0.48633   0.31325   0.00000  Uiso   1.00
C143   C     0.65437   0.50379   0.34577   0.00000  Uiso   1.00
C144   C     0.87367   0.49298   0.43814   0.00000  Uiso   1.00
C145   C     0.90419   0.51902   0.34959   0.00000  Uiso   1.00
C146   C     0.92563   0.54916   0.46115   0.00000  Uiso   1.00
C147   C     0.96917   0.60296   0.57928   0.00000  Uiso   1.00
C148   C     0.85539   0.41625   0.45193   0.00000  Uiso   1.00
C149   C     0.87055   0.37777   0.37500   0.00000  Uiso   1.00
C150   C     0.87660   0.34331   0.49817   0.00000  Uiso   1.00
C151   C     0.89175   0.27797   0.63772   0.00000  Uiso   1.00
C152   C     0.83032   0.46517   0.69868   0.00000  Uiso   1.00
C153   C     0.79056   0.47348   0.57612   0.00000  Uiso   1.00
C154   C     0.74947   0.48390   0.64148   0.00000  Uiso   1.00
C155   C     0.71744   0.49027   0.50671   0.00000  Uiso   1.00
C156   C     0.86488   0.49691   0.63124   0.00000  Uiso   1.00
C157   C     0.88628   0.52701   0.74296   0.00000  Uiso   1.00
C158   C     0.91682   0.55309   0.65461   0.00000  Uiso   1.00
C159   C     0.84660   0.42017   0.64504   0.00000  Uiso   1.00
C160   C     0.85264   0.38576   0.76836   0.00000  Uiso   1.00
C161   C     0.86780   0.34724   0.69164   0.00000  Uiso   1.00
H162   H     0.85335   0.45489   0.19280   0.00000  Uiso   1.00
H163   H     0.77419   0.47287   0.09868   0.00000  Uiso   1.00
H164   H     0.91099   0.51597   0.20015   0.00000  Uiso   1.00
H165   H     0.87734   0.37474   0.22555   0.00000  Uiso   1.00
H166   H     0.68256   0.49455   0.07950   0.00000  Uiso   1.00
H167   H     0.97101   0.58542   0.29347   0.00000  Uiso   1.00
H168   H     0.90007   0.28761   0.34703   0.00000  Uiso   1.00
H169   H     0.82347   0.46823   0.84903   0.00000  Uiso   1.00
H170   H     0.74268   0.48694   0.79093   0.00000  Uiso   1.00
H171   H     0.87947   0.53004   0.89240   0.00000  Uiso   1.00
H172   H     0.84583   0.38881   0.91779   0.00000  Uiso   1.00
H173   H     0.65698   0.50597   0.64135   0.00000  Uiso   1.00
H174   H     0.94544   0.59684   0.85532   0.00000  Uiso   1.00
H175   H     0.87450   0.29904   0.90888   0.00000  Uiso   1.00
O176   O     0.61716   0.51235   0.31036   0.00000  Uiso   1.00
O177   O     0.99561   0.63155   0.59108   0.00000  Uiso   1.00
O178   O     0.90253   0.24084   0.66135   0.00000  Uiso   1.00
N179   N     0.68763   0.49466   0.21971   0.00000  Uiso   1.00
N180   N     0.95731   0.57962   0.41975   0.00000  Uiso   1.00
N181   N     0.89100   0.30120   0.46983   0.00000  Uiso   1.00
N182   N     0.67386   0.50081   0.52204   0.00000  Uiso   1.00
N183   N     0.94354   0.58577   0.72208   0.00000  Uiso   1.00
N184   N     0.87723   0.30735   0.77216   0.00000  Uiso   1.00
C185   C     0.45794   0.65350   0.59314   0.00000  Uiso   1.00
C186   C     0.46956   0.70065   0.63301   0.00000  Uiso   1.00
C187   C     0.47591   0.73263   0.49812   0.00000  Uiso   1.00
C188   C     0.48633   0.77376   0.56325   0.00000  Uiso   1.00
C189   C     0.50379   0.84563   0.59577   0.00000  Uiso   1.00
C190   C     0.49298   0.62633   0.68814   0.00000  Uiso   1.00
C191   C     0.51902   0.59581   0.59959   0.00000  Uiso   1.00
C192   C     0.54916   0.57437   0.71115   0.00000  Uiso   1.00
C193   C     0.60296   0.53083   0.82928   0.00000  Uiso   1.00
C194   C     0.41625   0.64461   0.70193   0.00000  Uiso   1.00
C195   C     0.37777   0.62945   0.62500   0.00000  Uiso   1.00
C196   C     0.34331   0.62340   0.74817   0.00000  Uiso   1.00
C197   C     0.27797   0.60825   0.88772   0.00000  Uiso   1.00
C198   C     0.46517   0.66968   0.94868   0.00000  Uiso   1.00
C199   C     0.47348   0.70944   0.82612   0.00000  Uiso   1.00
C200   C     0.48390   0.75053   0.89148   0.00000  Uiso   1.00
C201   C     0.49027   0.78256   0.75671   0.00000  Uiso   1.00
C202   C     0.49691   0.63512   0.88124   0.00000  Uiso   1.00
C203   C     0.52701   0.61372   0.99296   0.00000  Uiso   1.00
C204   C     0.55309   0.58318   0.90461   0.00000  Uiso   1.00
C205   C     0.42017   0.65340   0.89504   0.00000  Uiso   1.00
C206   C     0.38576   0.64736   0.01836   0.00000  Uiso   1.00
C207   C     0.34724   0.63220   0.94164   0.00000  Uiso   1.00
H208   H     0.45489   0.64665   0.44280   0.00000  Uiso   1.00
H209   H     0.47287   0.72581   0.34868   0.00000  Uiso   1.00
H210   H     0.51597   0.58901   0.45015   0.00000  Uiso   1.00
H211   H     0.37474   0.62266   0.47555   0.00000  Uiso   1.00
H212   H     0.49455   0.81744   0.32950   0.00000  Uiso   1.00
H213   H     0.58542   0.52899   0.54347   0.00000  Uiso   1.00
H214   H     0.28761   0.59993   0.59703   0.00000  Uiso   1.00
H215   H     0.46823   0.67653   0.09903   0.00000  Uiso   1.00
H216   H     0.48694   0.75732   0.04093   0.00000  Uiso   1.00
H217   H     0.53004   0.62053   0.14240   0.00000  Uiso   1.00
H218   H     0.38881   0.65417   0.16779   0.00000  Uiso   1.00
H219   H     0.50597   0.84302   0.89135   0.00000  Uiso   1.00
H220   H     0.59684   0.55456   0.10532   0.00000  Uiso   1.00
H221   H     0.29904   0.62550   0.15888   0.00000  Uiso   1.00
O222   O     0.51235   0.88284   0.56036   0.00000  Uiso   1.00
O223   O     0.63155   0.50439   0.84108   0.00000  Uiso   1.00
O224   O     0.24084   0.59747   0.91135   0.00000  Uiso   1.00
N225   N     0.49466   0.81237   0.46971   0.00000  Uiso   1.00
N226   N     0.57962   0.54269   0.66975   0.00000  Uiso   1.00
N227   N     0.30120   0.60900   0.71983   0.00000  Uiso   1.00
N228   N     0.50081   0.82614   0.77204   0.00000  Uiso   1.00
N229   N     0.58577   0.55646   0.97208   0.00000  Uiso   1.00
N230   N     0.30735   0.62277   0.02216   0.00000  Uiso   1.00
C231   C     0.95794   0.15350   0.09314   0.00000  Uiso   1.00
C232   C     0.96956   0.20065   0.13301   0.00000  Uiso   1.00
C233   C     0.97591   0.23263   0.99812   0.00000  Uiso   1.00
C234   C     0.98633   0.27376   0.06325   0.00000  Uiso   1.00
C235   C     0.00379   0.34563   0.09577   0.00000  Uiso   1.00
C236   C     0.99298   0.12633   0.18814   0.00000  Uiso   1.00
C237   C     0.01902   0.09581   0.09959   0.00000  Uiso   1.00
C238   C     0.04916   0.07437   0.21115   0.00000  Uiso   1.00
C239   C     0.10296   0.03083   0.32928   0.00000  Uiso   1.00
C240   C     0.91625   0.14461   0.20193   0.00000  Uiso   1.00
C241   C     0.87777   0.12945   0.12500   0.00000  Uiso   1.00
C242   C     0.84331   0.12340   0.24817   0.00000  Uiso   1.00
C243   C     0.77797   0.10825   0.38772   0.00000  Uiso   1.00
C244   C     0.96517   0.16968   0.44868   0.00000  Uiso   1.00
C245   C     0.97348   0.20944   0.32612   0.00000  Uiso   1.00
C246   C     0.98390   0.25053   0.39148   0.00000  Uiso   1.00
C247   C     0.99027   0.28256   0.25671   0.00000  Uiso   1.00
C248   C     0.99691   0.13512   0.38124   0.00000  Uiso   1.00
C249   C     0.02701   0.11372   0.49296   0.00000  Uiso   1.00
C250   C     0.05309   0.08318   0.40461   0.00000  Uiso   1.00
C251   C     0.92017   0.15340   0.39504   0.00000  Uiso   1.00
C252   C     0.88576   0.14736   0.51836   0.00000  Uiso   1.00
C253   C     0.84724   0.13220   0.44164   0.00000  Uiso   1.00
H254   H     0.95489   0.14665   0.94280   0.00000  Uiso   1.00
H255   H     0.97287   0.22581   0.84868   0.00000  Uiso   1.00
H256   H     0.01597   0.08901   0.95015   0.00000  Uiso   1.00
H257   H     0.87474   0.12266   0.97555   0.00000  Uiso   1.00
H258   H     0.99455   0.31744   0.82950   0.00000  Uiso   1.00
H259   H     0.08542   0.02899   0.04347   0.00000  Uiso   1.00
H260   H     0.78761   0.09993   0.09703   0.00000  Uiso   1.00
H261   H     0.96823   0.17653   0.59903   0.00000  Uiso   1.00
H262   H     0.98694   0.25732   0.54093   0.00000  Uiso   1.00
H263   H     0.03004   0.12053   0.64240   0.00000  Uiso   1.00
H264   H     0.88881   0.15417   0.66779   0.00000  Uiso   1.00
H265   H     0.00597   0.34302   0.39135   0.00000  Uiso   1.00
H266   H     0.09684   0.05456   0.60532   0.00000  Uiso   1.00
H267   H     0.79904   0.12550   0.65888   0.00000  Uiso   1.00
O268   O     0.01235   0.38284   0.06036   0.00000  Uiso   1.00
O269   O     0.13155   0.00439   0.34108   0.00000  Uiso   1.00
O270   O     0.74084   0.09747   0.41135   0.00000  Uiso   1.00
N271   N     0.99466   0.31237   0.96971   0.00000  Uiso   1.00
N272   N     0.07962   0.04269   0.16975   0.00000  Uiso   1.00
N273   N     0.80120   0.10900   0.21983   0.00000  Uiso   1.00
N274   N     0.00081   0.32614   0.27204   0.00000  Uiso   1.00
N275   N     0.08577   0.05646   0.47208   0.00000  Uiso   1.00
N276   N     0.80735   0.12277   0.52216   0.00000  Uiso   1.00
C277   C     0.04206   0.84650   0.09314   0.00000  Uiso   1.00
C278   C     0.03044   0.79935   0.13301   0.00000  Uiso   1.00
C279   C     0.02409   0.76737   0.99812   0.00000  Uiso   1.00
C280   C     0.01367   0.72624   0.06325   0.00000  Uiso   1.00
C281   C     0.99621   0.65437   0.09577   0.00000  Uiso   1.00
C282   C     0.00702   0.87367   0.18814   0.00000  Uiso   1.00
C283   C     0.98098   0.90419   0.09959   0.00000  Uiso   1.00
C284   C     0.95084   0.92563   0.21115   0.00000  Uiso   1.00
C285   C     0.89704   0.96917   0.32928   0.00000  Uiso   1.00
C286   C     0.08375   0.85539   0.20193   0.00000  Uiso   1.00
C287   C     0.12223   0.87055   0.12500   0.00000  Uiso   1.00
C288   C     0.15669   0.87660   0.24817   0.00000  Uiso   1.00
C289   C     0.22203   0.89175   0.38772   0.00000  Uiso   1.00
C290   C     0.03483   0.83032   0.44868   0.00000  Uiso   1.00
C291   C     0.02652   0.79056   0.32612   0.00000  Uiso   1.00
C292   C     0.01610   0.74947   0.39148   0.00000  Uiso   1.00
C293   C     0.00973   0.71744   0.25671   0.00000  Uiso   1.00
C294   C     0.00309   0.86488   0.38124   0.00000  Uiso   1.00
C295   C     0.97299   0.88628   0.49296   0.00000  Uiso   1.00
C296   C     0.94691   0.91682   0.40461   0.00000  Uiso   1.00
C297   C     0.07983   0.84660   0.39504   0.00000  Uiso   1.00
C298   C     0.11424   0.85264   0.51836   0.00000  Uiso   1.00
C299   C     0.15276   0.86780   0.44164   0.00000  Uiso   1.00
H300   H     0.04511   0.85335   0.94280   0.00000  Uiso   1.00
H301   H     0.02713   0.77419   0.84868   0.00000  Uiso   1.00
H302   H     0.98403   0.91099   0.95015   0.00000  Uiso   1.00
H303   H     0.12526   0.87734   0.97555   0.00000  Uiso   1.00
H304   H     0.00545   0.68256   0.82950   0.00000  Uiso   1.00
H305   H     0.91458   0.97101   0.04347   0.00000  Uiso   1.00
H306   H     0.21239   0.90007   0.09703   0.00000  Uiso   1.00
H307   H     0.03177   0.82347   0.59903   0.00000  Uiso   1.00
H308   H     0.01306   0.74268   0.54093   0.00000  Uiso   1.00
H309   H     0.96996   0.87947   0.64240   0.00000  Uiso   1.00
H310   H     0.11119   0.84583   0.66779   0.00000  Uiso   1.00
H311   H     0.99403   0.65698   0.39135   0.00000  Uiso   1.00
H312   H     0.90316   0.94544   0.60532   0.00000  Uiso   1.00
H313   H     0.20096   0.87450   0.65888   0.00000  Uiso   1.00
O314   O     0.98765   0.61716   0.06036   0.00000  Uiso   1.00
O315   O     0.86845   0.99561   0.34108   0.00000  Uiso   1.00
O316   O     0.25916   0.90253   0.41135   0.00000  Uiso   1.00
N317   N     0.00534   0.68763   0.96971   0.00000  Uiso   1.00
N318   N     0.92038   0.95731   0.16975   0.00000  Uiso   1.00
N319   N     0.19880   0.89100   0.21983   0.00000  Uiso   1.00
N320   N     0.99919   0.67386   0.27204   0.00000  Uiso   1.00
N321   N     0.91423   0.94354   0.47208   0.00000  Uiso   1.00
N322   N     0.19265   0.87723   0.52216   0.00000  Uiso   1.00
C323   C     0.54206   0.34650   0.59314   0.00000  Uiso   1.00
C324   C     0.53044   0.29935   0.63301   0.00000  Uiso   1.00
C325   C     0.52409   0.26737   0.49812   0.00000  Uiso   1.00
C326   C     0.51367   0.22624   0.56325   0.00000  Uiso   1.00
C327   C     0.49621   0.15437   0.59577   0.00000  Uiso   1.00
C328   C     0.50702   0.37367   0.68814   0.00000  Uiso   1.00
C329   C     0.48098   0.40419   0.59959   0.00000  Uiso   1.00
C330   C     0.45084   0.42563   0.71115   0.00000  Uiso   1.00
C331   C     0.39704   0.46917   0.82928   0.00000  Uiso   1.00
C332   C     0.58375   0.35539   0.70193   0.00000  Uiso   1.00
C333   C     0.62223   0.37055   0.62500   0.00000  Uiso   1.00
C334   C     0.65669   0.37660   0.74817   0.00000  Uiso   1.00
C335   C     0.72203   0.39175   0.88772   0.00000  Uiso   1.00
C336   C     0.53483   0.33032   0.94868   0.00000  Uiso   1.00
C337   C     0.52652   0.29056   0.82612   0.00000  Uiso   1.00
C338   C     0.51610   0.24947   0.89148   0.00000  Uiso   1.00
C339   C     0.50973   0.21744   0.75671   0.00000  Uiso   1.00
C340   C     0.50309   0.36488   0.88124   0.00000  Uiso   1.00
C341   C     0.47299   0.38628   0.99296   0.00000  Uiso   1.00
C342   C     0.44691   0.41682   0.90461   0.00000  Uiso   1.00
C343   C     0.57983   0.34660   0.89504   0.00000  Uiso   1.00
C344   C     0.61424   0.35264   0.01836   0.00000  Uiso   1.00
C345   C     0.65276   0.36780   0.94164   0.00000  Uiso   1.00
H346   H     0.54511   0.35335   0.44280   0.00000  Uiso   1.00
H347   H     0.52713   0.27419   0.34868   0.00000  Uiso   1.00
H348   H     0.48403   0.41099   0.45015   0.00000  Uiso   1.00
H349   H     0.62526   0.37734   0.47555   0.00000  Uiso   1.00
H350   H     0.50545   0.18256   0.32950   0.00000  Uiso   1.00
H351   H     0.41458   0.47101   0.54347   0.00000  Uiso   1.00
H352   H     0.71239   0.40007   0.59703   0.00000  Uiso   1.00
H353   H     0.53177   0.32347   0.09903   0.00000  Uiso   1.00
H354   H     0.51306   0.24268   0.04093   0.00000  Uiso   1.00
H355   H     0.46996   0.37947   0.14240   0.00000  Uiso   1.00
H356   H     0.61119   0.34583   0.16779   0.00000  Uiso   1.00
H357   H     0.49403   0.15698   0.89135   0.00000  Uiso   1.00
H358   H     0.40316   0.44544   0.10532   0.00000  Uiso   1.00
H359   H     0.70096   0.37450   0.15888   0.00000  Uiso   1.00
O360   O     0.48765   0.11716   0.56036   0.00000  Uiso   1.00
O361   O     0.36845   0.49561   0.84108   0.00000  Uiso   1.00
O362   O     0.75916   0.40253   0.91135   0.00000  Uiso   1.00
N363   N     0.50534   0.18763   0.46971   0.00000  Uiso   1.00
N364   N     0.42038   0.45731   0.66975   0.00000  Uiso   1.00
N365   N     0.69880   0.39100   0.71983   0.00000  Uiso   1.00
N366   N     0.49919   0.17386   0.77204   0.00000  Uiso   1.00
N367   N     0.41423   0.44354   0.97208   0.00000  Uiso   1.00
N368   N     0.69265   0.37723   0.02216   0.00000  Uiso   1.00
