data_job_03272
_audit_creation_date              2018-12-19
_audit_creation_method            'Materials Studio'
_symmetry_space_group_name_H-M    'P1'
_symmetry_Int_Tables_number       1
_symmetry_cell_setting            triclinic
loop_
_symmetry_equiv_pos_as_xyz
  x,y,z
_cell_length_a                    24.0712
_cell_length_b                    17.1874
_cell_length_c                    13.0793
_cell_angle_alpha                 90.0000
_cell_angle_beta                  70.4408
_cell_angle_gamma                 90.0000
loop_
_atom_site_label
_atom_site_type_symbol
_atom_site_fract_x
_atom_site_fract_y
_atom_site_fract_z
_atom_site_U_iso_or_equiv
_atom_site_adp_type
_atom_site_occupancy
C1     C     0.39741   0.79858   0.75424   0.00000  Uiso   1.00
C2     C     0.33499   0.80234   0.74971   0.00000  Uiso   1.00
C3     C     0.28985   0.84939   0.81369   0.00000  Uiso   1.00
C4     C     0.23591   0.84432   0.79718   0.00000  Uiso   1.00
C5     C     0.14025   0.85778   0.80200   0.00000  Uiso   1.00
C6     C     0.40813   0.71357   0.77533   0.00000  Uiso   1.00
C7     C     0.42450   0.68598   0.86085   0.00000  Uiso   1.00
C8     C     0.43214   0.60617   0.86590   0.00000  Uiso   1.00
C9     C     0.45008   0.48182   0.91045   0.00000  Uiso   1.00
C10    C     0.43849   0.81633   0.63963   0.00000  Uiso   1.00
C11    C     0.48039   0.87513   0.61105   0.00000  Uiso   1.00
C12    C     0.51360   0.88183   0.50185   0.00000  Uiso   1.00
C13    C     0.57867   0.91702   0.33571   0.00000  Uiso   1.00
C14    C     0.38189   0.70591   0.61115   0.00000  Uiso   1.00
C15    C     0.32656   0.75200   0.67199   0.00000  Uiso   1.00
C16    C     0.27268   0.74686   0.65537   0.00000  Uiso   1.00
C17    C     0.22747   0.79389   0.71932   0.00000  Uiso   1.00
C18    C     0.39970   0.66323   0.69761   0.00000  Uiso   1.00
C19    C     0.40733   0.58345   0.70253   0.00000  Uiso   1.00
C20    C     0.42370   0.55574   0.78803   0.00000  Uiso   1.00
C21    C     0.43006   0.76599   0.56191   0.00000  Uiso   1.00
C22    C     0.46321   0.77260   0.45273   0.00000  Uiso   1.00
C23    C     0.50516   0.83140   0.42398   0.00000  Uiso   1.00
H24    H     0.40398   0.83777   0.81476   0.00000  Uiso   1.00
H25    H     0.29639   0.88833   0.87384   0.00000  Uiso   1.00
H26    H     0.43102   0.72494   0.92098   0.00000  Uiso   1.00
H27    H     0.48690   0.91407   0.67122   0.00000  Uiso   1.00
H28    H     0.17338   0.92217   0.90509   0.00000  Uiso   1.00
H29    H     0.45729   0.57767   0.00447   0.00000  Uiso   1.00
H30    H     0.57512   0.97646   0.47780   0.00000  Uiso   1.00
H31    H     0.37533   0.66672   0.55064   0.00000  Uiso   1.00
H32    H     0.26616   0.70790   0.59522   0.00000  Uiso   1.00
H33    H     0.40080   0.54451   0.64237   0.00000  Uiso   1.00
H34    H     0.45668   0.73364   0.39260   0.00000  Uiso   1.00
H35    H     0.14885   0.77573   0.67896   0.00000  Uiso   1.00
H36    H     0.43276   0.43122   0.77834   0.00000  Uiso   1.00
H37    H     0.55059   0.83002   0.25167   0.00000  Uiso   1.00
O38    O     0.08982   0.87911   0.82615   0.00000  Uiso   1.00
O39    O     0.46230   0.42713   0.95651   0.00000  Uiso   1.00
O40    O     0.61689   0.95035   0.26554   0.00000  Uiso   1.00
N41    N     0.18259   0.88207   0.84574   0.00000  Uiso   1.00
N42    N     0.44802   0.55997   0.93866   0.00000  Uiso   1.00
N43    N     0.55819   0.93280   0.44627   0.00000  Uiso   1.00
N44    N     0.16939   0.80327   0.72406   0.00000  Uiso   1.00
N45    N     0.43482   0.48117   0.81698   0.00000  Uiso   1.00
N46    N     0.54499   0.85400   0.32459   0.00000  Uiso   1.00
C47    C     0.89741   0.29858   0.75424   0.00000  Uiso   1.00
C48    C     0.83499   0.30234   0.74971   0.00000  Uiso   1.00
C49    C     0.78985   0.34939   0.81369   0.00000  Uiso   1.00
C50    C     0.73591   0.34432   0.79718   0.00000  Uiso   1.00
C51    C     0.64025   0.35778   0.80200   0.00000  Uiso   1.00
C52    C     0.90813   0.21357   0.77533   0.00000  Uiso   1.00
C53    C     0.92450   0.18598   0.86085   0.00000  Uiso   1.00
C54    C     0.93214   0.10617   0.86590   0.00000  Uiso   1.00
C55    C     0.95008   0.98182   0.91045   0.00000  Uiso   1.00
C56    C     0.93849   0.31633   0.63963   0.00000  Uiso   1.00
C57    C     0.98039   0.37513   0.61105   0.00000  Uiso   1.00
C58    C     0.01360   0.38183   0.50185   0.00000  Uiso   1.00
C59    C     0.07867   0.41702   0.33571   0.00000  Uiso   1.00
C60    C     0.88189   0.20591   0.61115   0.00000  Uiso   1.00
C61    C     0.82656   0.25200   0.67199   0.00000  Uiso   1.00
C62    C     0.77268   0.24686   0.65537   0.00000  Uiso   1.00
C63    C     0.72747   0.29389   0.71932   0.00000  Uiso   1.00
C64    C     0.89970   0.16323   0.69761   0.00000  Uiso   1.00
C65    C     0.90733   0.08345   0.70253   0.00000  Uiso   1.00
C66    C     0.92370   0.05574   0.78803   0.00000  Uiso   1.00
C67    C     0.93006   0.26599   0.56191   0.00000  Uiso   1.00
C68    C     0.96321   0.27260   0.45273   0.00000  Uiso   1.00
C69    C     0.00516   0.33140   0.42398   0.00000  Uiso   1.00
H70    H     0.90398   0.33777   0.81476   0.00000  Uiso   1.00
H71    H     0.79639   0.38833   0.87384   0.00000  Uiso   1.00
H72    H     0.93102   0.22494   0.92098   0.00000  Uiso   1.00
H73    H     0.98690   0.41407   0.67122   0.00000  Uiso   1.00
H74    H     0.67338   0.42217   0.90509   0.00000  Uiso   1.00
H75    H     0.95729   0.07767   0.00447   0.00000  Uiso   1.00
H76    H     0.07512   0.47646   0.47780   0.00000  Uiso   1.00
H77    H     0.87533   0.16672   0.55064   0.00000  Uiso   1.00
H78    H     0.76616   0.20790   0.59522   0.00000  Uiso   1.00
H79    H     0.90080   0.04451   0.64237   0.00000  Uiso   1.00
H80    H     0.95668   0.23364   0.39260   0.00000  Uiso   1.00
H81    H     0.64885   0.27573   0.67896   0.00000  Uiso   1.00
H82    H     0.93276   0.93122   0.77834   0.00000  Uiso   1.00
H83    H     0.05059   0.33002   0.25167   0.00000  Uiso   1.00
O84    O     0.58982   0.37911   0.82615   0.00000  Uiso   1.00
O85    O     0.96230   0.92713   0.95651   0.00000  Uiso   1.00
O86    O     0.11689   0.45035   0.26554   0.00000  Uiso   1.00
N87    N     0.68259   0.38207   0.84574   0.00000  Uiso   1.00
N88    N     0.94802   0.05997   0.93866   0.00000  Uiso   1.00
N89    N     0.05819   0.43280   0.44627   0.00000  Uiso   1.00
N90    N     0.66939   0.30327   0.72406   0.00000  Uiso   1.00
N91    N     0.93482   0.98117   0.81698   0.00000  Uiso   1.00
N92    N     0.04499   0.35400   0.32459   0.00000  Uiso   1.00
C93    C     0.60259   0.79858   0.74576   0.00000  Uiso   1.00
C94    C     0.66501   0.80234   0.75029   0.00000  Uiso   1.00
C95    C     0.71015   0.84939   0.68631   0.00000  Uiso   1.00
C96    C     0.76409   0.84432   0.70282   0.00000  Uiso   1.00
C97    C     0.85975   0.85778   0.69800   0.00000  Uiso   1.00
C98    C     0.59187   0.71357   0.72467   0.00000  Uiso   1.00
C99    C     0.57550   0.68598   0.63915   0.00000  Uiso   1.00
C100   C     0.56786   0.60617   0.63410   0.00000  Uiso   1.00
C101   C     0.54992   0.48182   0.58955   0.00000  Uiso   1.00
C102   C     0.56151   0.81633   0.86037   0.00000  Uiso   1.00
C103   C     0.51961   0.87513   0.88895   0.00000  Uiso   1.00
C104   C     0.48640   0.88183   0.99815   0.00000  Uiso   1.00
C105   C     0.42133   0.91702   0.16429   0.00000  Uiso   1.00
C106   C     0.61811   0.70591   0.88885   0.00000  Uiso   1.00
C107   C     0.67344   0.75200   0.82801   0.00000  Uiso   1.00
C108   C     0.72732   0.74686   0.84463   0.00000  Uiso   1.00
C109   C     0.77253   0.79389   0.78068   0.00000  Uiso   1.00
C110   C     0.60030   0.66323   0.80239   0.00000  Uiso   1.00
C111   C     0.59267   0.58345   0.79747   0.00000  Uiso   1.00
C112   C     0.57630   0.55574   0.71197   0.00000  Uiso   1.00
C113   C     0.56994   0.76599   0.93809   0.00000  Uiso   1.00
C114   C     0.53679   0.77260   0.04727   0.00000  Uiso   1.00
C115   C     0.49484   0.83140   0.07602   0.00000  Uiso   1.00
H116   H     0.59602   0.83777   0.68524   0.00000  Uiso   1.00
H117   H     0.70361   0.88833   0.62616   0.00000  Uiso   1.00
H118   H     0.56898   0.72494   0.57902   0.00000  Uiso   1.00
H119   H     0.51310   0.91407   0.82878   0.00000  Uiso   1.00
H120   H     0.82662   0.92217   0.59491   0.00000  Uiso   1.00
H121   H     0.54271   0.57767   0.49553   0.00000  Uiso   1.00
H122   H     0.42488   0.97646   0.02220   0.00000  Uiso   1.00
H123   H     0.62467   0.66672   0.94936   0.00000  Uiso   1.00
H124   H     0.73384   0.70790   0.90478   0.00000  Uiso   1.00
H125   H     0.59920   0.54451   0.85763   0.00000  Uiso   1.00
H126   H     0.54332   0.73364   0.10740   0.00000  Uiso   1.00
H127   H     0.85115   0.77573   0.82104   0.00000  Uiso   1.00
H128   H     0.56724   0.43122   0.72166   0.00000  Uiso   1.00
H129   H     0.44941   0.83002   0.24833   0.00000  Uiso   1.00
O130   O     0.91018   0.87911   0.67385   0.00000  Uiso   1.00
O131   O     0.53770   0.42713   0.54349   0.00000  Uiso   1.00
O132   O     0.38311   0.95035   0.23446   0.00000  Uiso   1.00
N133   N     0.81741   0.88207   0.65426   0.00000  Uiso   1.00
N134   N     0.55198   0.55997   0.56134   0.00000  Uiso   1.00
N135   N     0.44181   0.93280   0.05373   0.00000  Uiso   1.00
N136   N     0.83061   0.80327   0.77594   0.00000  Uiso   1.00
N137   N     0.56518   0.48117   0.68302   0.00000  Uiso   1.00
N138   N     0.45501   0.85400   0.17541   0.00000  Uiso   1.00
C139   C     0.10259   0.29858   0.74576   0.00000  Uiso   1.00
C140   C     0.16501   0.30234   0.75029   0.00000  Uiso   1.00
C141   C     0.21015   0.34939   0.68631   0.00000  Uiso   1.00
C142   C     0.26409   0.34432   0.70282   0.00000  Uiso   1.00
C143   C     0.35975   0.35778   0.69800   0.00000  Uiso   1.00
C144   C     0.09187   0.21357   0.72467   0.00000  Uiso   1.00
C145   C     0.07550   0.18598   0.63915   0.00000  Uiso   1.00
C146   C     0.06786   0.10617   0.63410   0.00000  Uiso   1.00
C147   C     0.04992   0.98182   0.58955   0.00000  Uiso   1.00
C148   C     0.06151   0.31633   0.86037   0.00000  Uiso   1.00
C149   C     0.01961   0.37513   0.88895   0.00000  Uiso   1.00
C150   C     0.98640   0.38183   0.99815   0.00000  Uiso   1.00
C151   C     0.92133   0.41702   0.16429   0.00000  Uiso   1.00
C152   C     0.11811   0.20591   0.88885   0.00000  Uiso   1.00
C153   C     0.17344   0.25200   0.82801   0.00000  Uiso   1.00
C154   C     0.22732   0.24686   0.84463   0.00000  Uiso   1.00
C155   C     0.27253   0.29389   0.78068   0.00000  Uiso   1.00
C156   C     0.10030   0.16323   0.80239   0.00000  Uiso   1.00
C157   C     0.09267   0.08345   0.79747   0.00000  Uiso   1.00
C158   C     0.07630   0.05574   0.71197   0.00000  Uiso   1.00
C159   C     0.06994   0.26599   0.93809   0.00000  Uiso   1.00
C160   C     0.03679   0.27260   0.04727   0.00000  Uiso   1.00
C161   C     0.99484   0.33140   0.07602   0.00000  Uiso   1.00
H162   H     0.09602   0.33777   0.68524   0.00000  Uiso   1.00
H163   H     0.20361   0.38833   0.62616   0.00000  Uiso   1.00
H164   H     0.06898   0.22494   0.57902   0.00000  Uiso   1.00
H165   H     0.01310   0.41407   0.82878   0.00000  Uiso   1.00
H166   H     0.32662   0.42217   0.59491   0.00000  Uiso   1.00
H167   H     0.04271   0.07767   0.49553   0.00000  Uiso   1.00
H168   H     0.92488   0.47646   0.02220   0.00000  Uiso   1.00
H169   H     0.12467   0.16672   0.94936   0.00000  Uiso   1.00
H170   H     0.23384   0.20790   0.90478   0.00000  Uiso   1.00
H171   H     0.09920   0.04451   0.85763   0.00000  Uiso   1.00
H172   H     0.04332   0.23364   0.10740   0.00000  Uiso   1.00
H173   H     0.35115   0.27573   0.82104   0.00000  Uiso   1.00
H174   H     0.06724   0.93122   0.72166   0.00000  Uiso   1.00
H175   H     0.94941   0.33002   0.24833   0.00000  Uiso   1.00
O176   O     0.41018   0.37911   0.67385   0.00000  Uiso   1.00
O177   O     0.03770   0.92713   0.54349   0.00000  Uiso   1.00
O178   O     0.88311   0.45035   0.23446   0.00000  Uiso   1.00
N179   N     0.31741   0.38207   0.65426   0.00000  Uiso   1.00
N180   N     0.05198   0.05997   0.56134   0.00000  Uiso   1.00
N181   N     0.94181   0.43280   0.05373   0.00000  Uiso   1.00
N182   N     0.33061   0.30327   0.77594   0.00000  Uiso   1.00
N183   N     0.06518   0.98117   0.68302   0.00000  Uiso   1.00
N184   N     0.95501   0.35400   0.17541   0.00000  Uiso   1.00
C185   C     0.60259   0.20142   0.24576   0.00000  Uiso   1.00
C186   C     0.66501   0.19766   0.25029   0.00000  Uiso   1.00
C187   C     0.71015   0.15061   0.18631   0.00000  Uiso   1.00
C188   C     0.76409   0.15568   0.20282   0.00000  Uiso   1.00
C189   C     0.85975   0.14222   0.19800   0.00000  Uiso   1.00
C190   C     0.59187   0.28643   0.22467   0.00000  Uiso   1.00
C191   C     0.57550   0.31402   0.13915   0.00000  Uiso   1.00
C192   C     0.56786   0.39383   0.13410   0.00000  Uiso   1.00
C193   C     0.54992   0.51818   0.08955   0.00000  Uiso   1.00
C194   C     0.56151   0.18367   0.36037   0.00000  Uiso   1.00
C195   C     0.51961   0.12487   0.38895   0.00000  Uiso   1.00
C196   C     0.48640   0.11817   0.49815   0.00000  Uiso   1.00
C197   C     0.42133   0.08298   0.66429   0.00000  Uiso   1.00
C198   C     0.61811   0.29409   0.38885   0.00000  Uiso   1.00
C199   C     0.67344   0.24800   0.32801   0.00000  Uiso   1.00
C200   C     0.72732   0.25314   0.34463   0.00000  Uiso   1.00
C201   C     0.77253   0.20611   0.28068   0.00000  Uiso   1.00
C202   C     0.60030   0.33677   0.30239   0.00000  Uiso   1.00
C203   C     0.59267   0.41655   0.29747   0.00000  Uiso   1.00
C204   C     0.57630   0.44426   0.21197   0.00000  Uiso   1.00
C205   C     0.56994   0.23401   0.43809   0.00000  Uiso   1.00
C206   C     0.53679   0.22740   0.54727   0.00000  Uiso   1.00
C207   C     0.49484   0.16860   0.57602   0.00000  Uiso   1.00
H208   H     0.59602   0.16223   0.18524   0.00000  Uiso   1.00
H209   H     0.70361   0.11167   0.12616   0.00000  Uiso   1.00
H210   H     0.56898   0.27506   0.07902   0.00000  Uiso   1.00
H211   H     0.51310   0.08593   0.32878   0.00000  Uiso   1.00
H212   H     0.82662   0.07783   0.09491   0.00000  Uiso   1.00
H213   H     0.54271   0.42233   0.99553   0.00000  Uiso   1.00
H214   H     0.42488   0.02354   0.52220   0.00000  Uiso   1.00
H215   H     0.62467   0.33328   0.44936   0.00000  Uiso   1.00
H216   H     0.73384   0.29210   0.40478   0.00000  Uiso   1.00
H217   H     0.59920   0.45549   0.35763   0.00000  Uiso   1.00
H218   H     0.54332   0.26636   0.60740   0.00000  Uiso   1.00
H219   H     0.85115   0.22427   0.32104   0.00000  Uiso   1.00
H220   H     0.56724   0.56878   0.22166   0.00000  Uiso   1.00
H221   H     0.44941   0.16998   0.74833   0.00000  Uiso   1.00
O222   O     0.91018   0.12089   0.17385   0.00000  Uiso   1.00
O223   O     0.53770   0.57287   0.04349   0.00000  Uiso   1.00
O224   O     0.38311   0.04965   0.73446   0.00000  Uiso   1.00
N225   N     0.81741   0.11793   0.15426   0.00000  Uiso   1.00
N226   N     0.55198   0.44003   0.06134   0.00000  Uiso   1.00
N227   N     0.44181   0.06720   0.55373   0.00000  Uiso   1.00
N228   N     0.83061   0.19673   0.27594   0.00000  Uiso   1.00
N229   N     0.56518   0.51883   0.18302   0.00000  Uiso   1.00
N230   N     0.45501   0.14600   0.67541   0.00000  Uiso   1.00
C231   C     0.10259   0.70142   0.24576   0.00000  Uiso   1.00
C232   C     0.16501   0.69766   0.25029   0.00000  Uiso   1.00
C233   C     0.21015   0.65061   0.18631   0.00000  Uiso   1.00
C234   C     0.26409   0.65568   0.20282   0.00000  Uiso   1.00
C235   C     0.35975   0.64222   0.19800   0.00000  Uiso   1.00
C236   C     0.09187   0.78643   0.22467   0.00000  Uiso   1.00
C237   C     0.07550   0.81402   0.13915   0.00000  Uiso   1.00
C238   C     0.06786   0.89383   0.13410   0.00000  Uiso   1.00
C239   C     0.04992   0.01818   0.08955   0.00000  Uiso   1.00
C240   C     0.06151   0.68367   0.36037   0.00000  Uiso   1.00
C241   C     0.01961   0.62487   0.38895   0.00000  Uiso   1.00
C242   C     0.98640   0.61817   0.49815   0.00000  Uiso   1.00
C243   C     0.92133   0.58298   0.66429   0.00000  Uiso   1.00
C244   C     0.11811   0.79409   0.38885   0.00000  Uiso   1.00
C245   C     0.17344   0.74800   0.32801   0.00000  Uiso   1.00
C246   C     0.22732   0.75314   0.34463   0.00000  Uiso   1.00
C247   C     0.27253   0.70611   0.28068   0.00000  Uiso   1.00
C248   C     0.10030   0.83677   0.30239   0.00000  Uiso   1.00
C249   C     0.09267   0.91655   0.29747   0.00000  Uiso   1.00
C250   C     0.07630   0.94426   0.21197   0.00000  Uiso   1.00
C251   C     0.06994   0.73401   0.43809   0.00000  Uiso   1.00
C252   C     0.03679   0.72740   0.54727   0.00000  Uiso   1.00
C253   C     0.99484   0.66860   0.57602   0.00000  Uiso   1.00
H254   H     0.09602   0.66223   0.18524   0.00000  Uiso   1.00
H255   H     0.20361   0.61167   0.12616   0.00000  Uiso   1.00
H256   H     0.06898   0.77506   0.07902   0.00000  Uiso   1.00
H257   H     0.01310   0.58593   0.32878   0.00000  Uiso   1.00
H258   H     0.32662   0.57783   0.09491   0.00000  Uiso   1.00
H259   H     0.04271   0.92233   0.99553   0.00000  Uiso   1.00
H260   H     0.92488   0.52354   0.52220   0.00000  Uiso   1.00
H261   H     0.12467   0.83328   0.44936   0.00000  Uiso   1.00
H262   H     0.23384   0.79210   0.40478   0.00000  Uiso   1.00
H263   H     0.09920   0.95549   0.35763   0.00000  Uiso   1.00
H264   H     0.04332   0.76636   0.60740   0.00000  Uiso   1.00
H265   H     0.35115   0.72427   0.32104   0.00000  Uiso   1.00
H266   H     0.06724   0.06878   0.22166   0.00000  Uiso   1.00
H267   H     0.94941   0.66998   0.74833   0.00000  Uiso   1.00
O268   O     0.41018   0.62089   0.17385   0.00000  Uiso   1.00
O269   O     0.03770   0.07287   0.04349   0.00000  Uiso   1.00
O270   O     0.88311   0.54965   0.73446   0.00000  Uiso   1.00
N271   N     0.31741   0.61793   0.15426   0.00000  Uiso   1.00
N272   N     0.05198   0.94003   0.06134   0.00000  Uiso   1.00
N273   N     0.94181   0.56720   0.55373   0.00000  Uiso   1.00
N274   N     0.33061   0.69673   0.27594   0.00000  Uiso   1.00
N275   N     0.06518   0.01883   0.18302   0.00000  Uiso   1.00
N276   N     0.95501   0.64600   0.67541   0.00000  Uiso   1.00
C277   C     0.39741   0.20142   0.25424   0.00000  Uiso   1.00
C278   C     0.33499   0.19766   0.24971   0.00000  Uiso   1.00
C279   C     0.28985   0.15061   0.31369   0.00000  Uiso   1.00
C280   C     0.23591   0.15568   0.29718   0.00000  Uiso   1.00
C281   C     0.14025   0.14222   0.30200   0.00000  Uiso   1.00
C282   C     0.40813   0.28643   0.27533   0.00000  Uiso   1.00
C283   C     0.42450   0.31402   0.36085   0.00000  Uiso   1.00
C284   C     0.43214   0.39383   0.36590   0.00000  Uiso   1.00
C285   C     0.45008   0.51818   0.41045   0.00000  Uiso   1.00
C286   C     0.43849   0.18367   0.13963   0.00000  Uiso   1.00
C287   C     0.48039   0.12487   0.11105   0.00000  Uiso   1.00
C288   C     0.51360   0.11817   0.00185   0.00000  Uiso   1.00
C289   C     0.57867   0.08298   0.83571   0.00000  Uiso   1.00
C290   C     0.38189   0.29409   0.11115   0.00000  Uiso   1.00
C291   C     0.32656   0.24800   0.17199   0.00000  Uiso   1.00
C292   C     0.27268   0.25314   0.15537   0.00000  Uiso   1.00
C293   C     0.22747   0.20611   0.21932   0.00000  Uiso   1.00
C294   C     0.39970   0.33677   0.19761   0.00000  Uiso   1.00
C295   C     0.40733   0.41655   0.20253   0.00000  Uiso   1.00
C296   C     0.42370   0.44426   0.28803   0.00000  Uiso   1.00
C297   C     0.43006   0.23401   0.06191   0.00000  Uiso   1.00
C298   C     0.46321   0.22740   0.95273   0.00000  Uiso   1.00
C299   C     0.50516   0.16860   0.92398   0.00000  Uiso   1.00
H300   H     0.40398   0.16223   0.31476   0.00000  Uiso   1.00
H301   H     0.29639   0.11167   0.37384   0.00000  Uiso   1.00
H302   H     0.43102   0.27506   0.42098   0.00000  Uiso   1.00
H303   H     0.48690   0.08593   0.17122   0.00000  Uiso   1.00
H304   H     0.17338   0.07783   0.40509   0.00000  Uiso   1.00
H305   H     0.45729   0.42233   0.50447   0.00000  Uiso   1.00
H306   H     0.57512   0.02354   0.97780   0.00000  Uiso   1.00
H307   H     0.37533   0.33328   0.05064   0.00000  Uiso   1.00
H308   H     0.26616   0.29210   0.09522   0.00000  Uiso   1.00
H309   H     0.40080   0.45549   0.14237   0.00000  Uiso   1.00
H310   H     0.45668   0.26636   0.89260   0.00000  Uiso   1.00
H311   H     0.14885   0.22427   0.17896   0.00000  Uiso   1.00
H312   H     0.43276   0.56878   0.27834   0.00000  Uiso   1.00
H313   H     0.55059   0.16998   0.75167   0.00000  Uiso   1.00
O314   O     0.08982   0.12089   0.32615   0.00000  Uiso   1.00
O315   O     0.46230   0.57287   0.45651   0.00000  Uiso   1.00
O316   O     0.61689   0.04965   0.76554   0.00000  Uiso   1.00
N317   N     0.18259   0.11793   0.34574   0.00000  Uiso   1.00
N318   N     0.44802   0.44003   0.43866   0.00000  Uiso   1.00
N319   N     0.55819   0.06720   0.94627   0.00000  Uiso   1.00
N320   N     0.16939   0.19673   0.22406   0.00000  Uiso   1.00
N321   N     0.43482   0.51883   0.31698   0.00000  Uiso   1.00
N322   N     0.54499   0.14600   0.82459   0.00000  Uiso   1.00
C323   C     0.89741   0.70142   0.25424   0.00000  Uiso   1.00
C324   C     0.83499   0.69766   0.24971   0.00000  Uiso   1.00
C325   C     0.78985   0.65061   0.31369   0.00000  Uiso   1.00
C326   C     0.73591   0.65568   0.29718   0.00000  Uiso   1.00
C327   C     0.64025   0.64222   0.30200   0.00000  Uiso   1.00
C328   C     0.90813   0.78643   0.27533   0.00000  Uiso   1.00
C329   C     0.92450   0.81402   0.36085   0.00000  Uiso   1.00
C330   C     0.93214   0.89383   0.36590   0.00000  Uiso   1.00
C331   C     0.95008   0.01818   0.41045   0.00000  Uiso   1.00
C332   C     0.93849   0.68367   0.13963   0.00000  Uiso   1.00
C333   C     0.98039   0.62487   0.11105   0.00000  Uiso   1.00
C334   C     0.01360   0.61817   0.00185   0.00000  Uiso   1.00
C335   C     0.07867   0.58298   0.83571   0.00000  Uiso   1.00
C336   C     0.88189   0.79409   0.11115   0.00000  Uiso   1.00
C337   C     0.82656   0.74800   0.17199   0.00000  Uiso   1.00
C338   C     0.77268   0.75314   0.15537   0.00000  Uiso   1.00
C339   C     0.72747   0.70611   0.21932   0.00000  Uiso   1.00
C340   C     0.89970   0.83677   0.19761   0.00000  Uiso   1.00
C341   C     0.90733   0.91655   0.20253   0.00000  Uiso   1.00
C342   C     0.92370   0.94426   0.28803   0.00000  Uiso   1.00
C343   C     0.93006   0.73401   0.06191   0.00000  Uiso   1.00
C344   C     0.96321   0.72740   0.95273   0.00000  Uiso   1.00
C345   C     0.00516   0.66860   0.92398   0.00000  Uiso   1.00
H346   H     0.90398   0.66223   0.31476   0.00000  Uiso   1.00
H347   H     0.79639   0.61167   0.37384   0.00000  Uiso   1.00
H348   H     0.93102   0.77506   0.42098   0.00000  Uiso   1.00
H349   H     0.98690   0.58593   0.17122   0.00000  Uiso   1.00
H350   H     0.67338   0.57783   0.40509   0.00000  Uiso   1.00
H351   H     0.95729   0.92233   0.50447   0.00000  Uiso   1.00
H352   H     0.07512   0.52354   0.97780   0.00000  Uiso   1.00
H353   H     0.87533   0.83328   0.05064   0.00000  Uiso   1.00
H354   H     0.76616   0.79210   0.09522   0.00000  Uiso   1.00
H355   H     0.90080   0.95549   0.14237   0.00000  Uiso   1.00
H356   H     0.95668   0.76636   0.89260   0.00000  Uiso   1.00
H357   H     0.64885   0.72427   0.17896   0.00000  Uiso   1.00
H358   H     0.93276   0.06878   0.27834   0.00000  Uiso   1.00
H359   H     0.05059   0.66998   0.75167   0.00000  Uiso   1.00
O360   O     0.58982   0.62089   0.32615   0.00000  Uiso   1.00
O361   O     0.96230   0.07287   0.45651   0.00000  Uiso   1.00
O362   O     0.11689   0.54965   0.76554   0.00000  Uiso   1.00
N363   N     0.68259   0.61793   0.34574   0.00000  Uiso   1.00
N364   N     0.94802   0.94003   0.43866   0.00000  Uiso   1.00
N365   N     0.05819   0.56720   0.94627   0.00000  Uiso   1.00
N366   N     0.66939   0.69673   0.22406   0.00000  Uiso   1.00
N367   N     0.93482   0.01883   0.31698   0.00000  Uiso   1.00
N368   N     0.04499   0.64600   0.82459   0.00000  Uiso   1.00
