data_job_02525
_audit_creation_date              2018-12-19
_audit_creation_method            'Materials Studio'
_symmetry_space_group_name_H-M    'P1'
_symmetry_Int_Tables_number       1
_symmetry_cell_setting            triclinic
loop_
_symmetry_equiv_pos_as_xyz
  x,y,z
_cell_length_a                    25.7546
_cell_length_b                    9.4525
_cell_length_c                    21.3682
_cell_angle_alpha                 90.0000
_cell_angle_beta                  90.0000
_cell_angle_gamma                 90.0000
loop_
_atom_site_label
_atom_site_type_symbol
_atom_site_fract_x
_atom_site_fract_y
_atom_site_fract_z
_atom_site_U_iso_or_equiv
_atom_site_adp_type
_atom_site_occupancy
C1     C     0.90687   0.22399   0.68730   0.00000  Uiso   1.00
C2     C     0.86205   0.31133   0.71340   0.00000  Uiso   1.00
C3     C     0.84664   0.31599   0.77560   0.00000  Uiso   1.00
C4     C     0.80472   0.40239   0.79003   0.00000  Uiso   1.00
C5     C     0.73900   0.52596   0.83758   0.00000  Uiso   1.00
C6     C     0.88363   0.13156   0.63595   0.00000  Uiso   1.00
C7     C     0.88637   0.98508   0.63302   0.00000  Uiso   1.00
C8     C     0.86262   0.92016   0.58225   0.00000  Uiso   1.00
C9     C     0.83043   0.76465   0.50953   0.00000  Uiso   1.00
C10    C     0.94270   0.32854   0.65430   0.00000  Uiso   1.00
C11    C     0.99512   0.34765   0.66680   0.00000  Uiso   1.00
C12    C     0.02111   0.44855   0.63146   0.00000  Uiso   1.00
C13    C     0.08063   0.59888   0.58724   0.00000  Uiso   1.00
C14    C     0.85984   0.36916   0.60232   0.00000  Uiso   1.00
C15    C     0.83650   0.39017   0.66725   0.00000  Uiso   1.00
C16    C     0.79460   0.47660   0.68159   0.00000  Uiso   1.00
C17    C     0.77913   0.48139   0.74380   0.00000  Uiso   1.00
C18    C     0.85808   0.21041   0.58980   0.00000  Uiso   1.00
C19    C     0.83433   0.14569   0.53901   0.00000  Uiso   1.00
C20    C     0.83703   0.99915   0.53601   0.00000  Uiso   1.00
C21    C     0.91716   0.40739   0.60815   0.00000  Uiso   1.00
C22    C     0.94307   0.50827   0.57278   0.00000  Uiso   1.00
C23    C     0.99551   0.52754   0.58522   0.00000  Uiso   1.00
H24    H     0.92676   0.16259   0.72323   0.00000  Uiso   1.00
H25    H     0.86642   0.25494   0.81131   0.00000  Uiso   1.00
H26    H     0.90615   0.92409   0.66875   0.00000  Uiso   1.00
H27    H     0.01487   0.28661   0.70252   0.00000  Uiso   1.00
H28    H     0.78824   0.39205   0.88860   0.00000  Uiso   1.00
H29    H     0.87202   0.69445   0.58799   0.00000  Uiso   1.00
H30    H     0.10129   0.45889   0.65920   0.00000  Uiso   1.00
H31    H     0.83995   0.43055   0.56639   0.00000  Uiso   1.00
H32    H     0.77484   0.53761   0.64586   0.00000  Uiso   1.00
H33    H     0.81457   0.20675   0.50330   0.00000  Uiso   1.00
H34    H     0.92329   0.56927   0.53707   0.00000  Uiso   1.00
H35    H     0.71390   0.62147   0.75431   0.00000  Uiso   1.00
H36    H     0.79769   0.92386   0.45371   0.00000  Uiso   1.00
H37    H     0.02696   0.68831   0.52492   0.00000  Uiso   1.00
O38    O     0.70979   0.57232   0.87656   0.00000  Uiso   1.00
O39    O     0.81973   0.65708   0.48218   0.00000  Uiso   1.00
O40    O     0.12052   0.66002   0.57560   0.00000  Uiso   1.00
N41    N     0.77968   0.43138   0.84609   0.00000  Uiso   1.00
N42    N     0.85801   0.77915   0.56505   0.00000  Uiso   1.00
N43    N     0.07236   0.49382   0.63161   0.00000  Uiso   1.00
N44    N     0.73969   0.55483   0.77383   0.00000  Uiso   1.00
N45    N     0.81801   0.90260   0.49279   0.00000  Uiso   1.00
N46    N     0.03237   0.61727   0.55935   0.00000  Uiso   1.00
C47    C     0.59313   0.27601   0.18730   0.00000  Uiso   1.00
C48    C     0.63795   0.18867   0.21340   0.00000  Uiso   1.00
C49    C     0.65336   0.18401   0.27560   0.00000  Uiso   1.00
C50    C     0.69528   0.09761   0.29003   0.00000  Uiso   1.00
C51    C     0.76100   0.97404   0.33758   0.00000  Uiso   1.00
C52    C     0.61637   0.36844   0.13595   0.00000  Uiso   1.00
C53    C     0.61363   0.51492   0.13302   0.00000  Uiso   1.00
C54    C     0.63738   0.57984   0.08225   0.00000  Uiso   1.00
C55    C     0.66957   0.73535   0.00953   0.00000  Uiso   1.00
C56    C     0.55730   0.17146   0.15430   0.00000  Uiso   1.00
C57    C     0.50488   0.15235   0.16680   0.00000  Uiso   1.00
C58    C     0.47889   0.05145   0.13146   0.00000  Uiso   1.00
C59    C     0.41937   0.90112   0.08724   0.00000  Uiso   1.00
C60    C     0.64016   0.13084   0.10232   0.00000  Uiso   1.00
C61    C     0.66350   0.10983   0.16725   0.00000  Uiso   1.00
C62    C     0.70540   0.02340   0.18159   0.00000  Uiso   1.00
C63    C     0.72087   0.01861   0.24380   0.00000  Uiso   1.00
C64    C     0.64192   0.28959   0.08980   0.00000  Uiso   1.00
C65    C     0.66567   0.35431   0.03901   0.00000  Uiso   1.00
C66    C     0.66297   0.50085   0.03601   0.00000  Uiso   1.00
C67    C     0.58284   0.09261   0.10815   0.00000  Uiso   1.00
C68    C     0.55693   0.99173   0.07278   0.00000  Uiso   1.00
C69    C     0.50449   0.97246   0.08522   0.00000  Uiso   1.00
H70    H     0.57324   0.33741   0.22323   0.00000  Uiso   1.00
H71    H     0.63358   0.24506   0.31131   0.00000  Uiso   1.00
H72    H     0.59385   0.57591   0.16875   0.00000  Uiso   1.00
H73    H     0.48513   0.21339   0.20252   0.00000  Uiso   1.00
H74    H     0.71176   0.10795   0.38860   0.00000  Uiso   1.00
H75    H     0.62798   0.80555   0.08799   0.00000  Uiso   1.00
H76    H     0.39871   0.04111   0.15920   0.00000  Uiso   1.00
H77    H     0.66005   0.06945   0.06639   0.00000  Uiso   1.00
H78    H     0.72516   0.96239   0.14586   0.00000  Uiso   1.00
H79    H     0.68543   0.29325   0.00330   0.00000  Uiso   1.00
H80    H     0.57671   0.93073   0.03707   0.00000  Uiso   1.00
H81    H     0.78610   0.87853   0.25431   0.00000  Uiso   1.00
H82    H     0.70231   0.57614   0.95371   0.00000  Uiso   1.00
H83    H     0.47304   0.81169   0.02492   0.00000  Uiso   1.00
O84    O     0.79021   0.92768   0.37656   0.00000  Uiso   1.00
O85    O     0.68027   0.84292   0.98218   0.00000  Uiso   1.00
O86    O     0.37948   0.83998   0.07560   0.00000  Uiso   1.00
N87    N     0.72032   0.06862   0.34609   0.00000  Uiso   1.00
N88    N     0.64199   0.72085   0.06505   0.00000  Uiso   1.00
N89    N     0.42764   0.00618   0.13161   0.00000  Uiso   1.00
N90    N     0.76031   0.94517   0.27383   0.00000  Uiso   1.00
N91    N     0.68199   0.59740   0.99279   0.00000  Uiso   1.00
N92    N     0.46763   0.88273   0.05935   0.00000  Uiso   1.00
C93    C     0.09313   0.22399   0.81270   0.00000  Uiso   1.00
C94    C     0.13795   0.31133   0.78660   0.00000  Uiso   1.00
C95    C     0.15336   0.31599   0.72440   0.00000  Uiso   1.00
C96    C     0.19528   0.40239   0.70997   0.00000  Uiso   1.00
C97    C     0.26100   0.52596   0.66242   0.00000  Uiso   1.00
C98    C     0.11637   0.13156   0.86405   0.00000  Uiso   1.00
C99    C     0.11363   0.98508   0.86698   0.00000  Uiso   1.00
C100   C     0.13738   0.92016   0.91775   0.00000  Uiso   1.00
C101   C     0.16957   0.76465   0.99047   0.00000  Uiso   1.00
C102   C     0.05730   0.32854   0.84570   0.00000  Uiso   1.00
C103   C     0.00488   0.34765   0.83320   0.00000  Uiso   1.00
C104   C     0.97889   0.44855   0.86854   0.00000  Uiso   1.00
C105   C     0.91937   0.59888   0.91276   0.00000  Uiso   1.00
C106   C     0.14016   0.36916   0.89768   0.00000  Uiso   1.00
C107   C     0.16350   0.39017   0.83275   0.00000  Uiso   1.00
C108   C     0.20540   0.47660   0.81841   0.00000  Uiso   1.00
C109   C     0.22087   0.48139   0.75620   0.00000  Uiso   1.00
C110   C     0.14192   0.21041   0.91020   0.00000  Uiso   1.00
C111   C     0.16567   0.14569   0.96099   0.00000  Uiso   1.00
C112   C     0.16297   0.99915   0.96399   0.00000  Uiso   1.00
C113   C     0.08284   0.40739   0.89185   0.00000  Uiso   1.00
C114   C     0.05693   0.50827   0.92722   0.00000  Uiso   1.00
C115   C     0.00449   0.52754   0.91478   0.00000  Uiso   1.00
H116   H     0.07324   0.16259   0.77677   0.00000  Uiso   1.00
H117   H     0.13358   0.25494   0.68869   0.00000  Uiso   1.00
H118   H     0.09385   0.92409   0.83125   0.00000  Uiso   1.00
H119   H     0.98513   0.28661   0.79748   0.00000  Uiso   1.00
H120   H     0.21176   0.39205   0.61140   0.00000  Uiso   1.00
H121   H     0.12798   0.69445   0.91201   0.00000  Uiso   1.00
H122   H     0.89871   0.45889   0.84080   0.00000  Uiso   1.00
H123   H     0.16005   0.43055   0.93361   0.00000  Uiso   1.00
H124   H     0.22516   0.53761   0.85414   0.00000  Uiso   1.00
H125   H     0.18543   0.20675   0.99670   0.00000  Uiso   1.00
H126   H     0.07671   0.56927   0.96293   0.00000  Uiso   1.00
H127   H     0.28610   0.62147   0.74569   0.00000  Uiso   1.00
H128   H     0.20231   0.92386   0.04629   0.00000  Uiso   1.00
H129   H     0.97304   0.68831   0.97508   0.00000  Uiso   1.00
O130   O     0.29021   0.57232   0.62344   0.00000  Uiso   1.00
O131   O     0.18027   0.65708   0.01782   0.00000  Uiso   1.00
O132   O     0.87948   0.66002   0.92440   0.00000  Uiso   1.00
N133   N     0.22032   0.43138   0.65391   0.00000  Uiso   1.00
N134   N     0.14199   0.77915   0.93495   0.00000  Uiso   1.00
N135   N     0.92764   0.49382   0.86839   0.00000  Uiso   1.00
N136   N     0.26031   0.55483   0.72617   0.00000  Uiso   1.00
N137   N     0.18199   0.90260   0.00721   0.00000  Uiso   1.00
N138   N     0.96763   0.61727   0.94065   0.00000  Uiso   1.00
C139   C     0.40687   0.27601   0.31270   0.00000  Uiso   1.00
C140   C     0.36205   0.18867   0.28660   0.00000  Uiso   1.00
C141   C     0.34664   0.18401   0.22440   0.00000  Uiso   1.00
C142   C     0.30472   0.09761   0.20997   0.00000  Uiso   1.00
C143   C     0.23900   0.97404   0.16242   0.00000  Uiso   1.00
C144   C     0.38363   0.36844   0.36405   0.00000  Uiso   1.00
C145   C     0.38637   0.51492   0.36698   0.00000  Uiso   1.00
C146   C     0.36262   0.57984   0.41775   0.00000  Uiso   1.00
C147   C     0.33043   0.73535   0.49047   0.00000  Uiso   1.00
C148   C     0.44270   0.17146   0.34570   0.00000  Uiso   1.00
C149   C     0.49512   0.15235   0.33320   0.00000  Uiso   1.00
C150   C     0.52111   0.05145   0.36854   0.00000  Uiso   1.00
C151   C     0.58063   0.90112   0.41276   0.00000  Uiso   1.00
C152   C     0.35984   0.13084   0.39768   0.00000  Uiso   1.00
C153   C     0.33650   0.10983   0.33275   0.00000  Uiso   1.00
C154   C     0.29460   0.02340   0.31841   0.00000  Uiso   1.00
C155   C     0.27913   0.01861   0.25620   0.00000  Uiso   1.00
C156   C     0.35808   0.28959   0.41020   0.00000  Uiso   1.00
C157   C     0.33433   0.35431   0.46099   0.00000  Uiso   1.00
C158   C     0.33703   0.50085   0.46399   0.00000  Uiso   1.00
C159   C     0.41716   0.09261   0.39185   0.00000  Uiso   1.00
C160   C     0.44307   0.99173   0.42722   0.00000  Uiso   1.00
C161   C     0.49551   0.97246   0.41478   0.00000  Uiso   1.00
H162   H     0.42676   0.33741   0.27677   0.00000  Uiso   1.00
H163   H     0.36642   0.24506   0.18869   0.00000  Uiso   1.00
H164   H     0.40615   0.57591   0.33125   0.00000  Uiso   1.00
H165   H     0.51487   0.21339   0.29748   0.00000  Uiso   1.00
H166   H     0.28824   0.10795   0.11140   0.00000  Uiso   1.00
H167   H     0.37202   0.80555   0.41201   0.00000  Uiso   1.00
H168   H     0.60129   0.04111   0.34080   0.00000  Uiso   1.00
H169   H     0.33995   0.06945   0.43361   0.00000  Uiso   1.00
H170   H     0.27484   0.96239   0.35414   0.00000  Uiso   1.00
H171   H     0.31457   0.29325   0.49670   0.00000  Uiso   1.00
H172   H     0.42329   0.93073   0.46293   0.00000  Uiso   1.00
H173   H     0.21390   0.87853   0.24569   0.00000  Uiso   1.00
H174   H     0.29769   0.57614   0.54629   0.00000  Uiso   1.00
H175   H     0.52696   0.81169   0.47508   0.00000  Uiso   1.00
O176   O     0.20979   0.92768   0.12344   0.00000  Uiso   1.00
O177   O     0.31973   0.84292   0.51782   0.00000  Uiso   1.00
O178   O     0.62052   0.83998   0.42440   0.00000  Uiso   1.00
N179   N     0.27968   0.06862   0.15391   0.00000  Uiso   1.00
N180   N     0.35801   0.72085   0.43495   0.00000  Uiso   1.00
N181   N     0.57236   0.00618   0.36839   0.00000  Uiso   1.00
N182   N     0.23969   0.94517   0.22617   0.00000  Uiso   1.00
N183   N     0.31801   0.59740   0.50721   0.00000  Uiso   1.00
N184   N     0.53237   0.88273   0.44065   0.00000  Uiso   1.00
C185   C     0.09313   0.77601   0.31270   0.00000  Uiso   1.00
C186   C     0.13795   0.68867   0.28660   0.00000  Uiso   1.00
C187   C     0.15336   0.68401   0.22440   0.00000  Uiso   1.00
C188   C     0.19528   0.59761   0.20997   0.00000  Uiso   1.00
C189   C     0.26100   0.47404   0.16242   0.00000  Uiso   1.00
C190   C     0.11637   0.86844   0.36405   0.00000  Uiso   1.00
C191   C     0.11363   0.01492   0.36698   0.00000  Uiso   1.00
C192   C     0.13738   0.07984   0.41775   0.00000  Uiso   1.00
C193   C     0.16957   0.23535   0.49047   0.00000  Uiso   1.00
C194   C     0.05730   0.67146   0.34570   0.00000  Uiso   1.00
C195   C     0.00488   0.65235   0.33320   0.00000  Uiso   1.00
C196   C     0.97889   0.55145   0.36854   0.00000  Uiso   1.00
C197   C     0.91937   0.40112   0.41276   0.00000  Uiso   1.00
C198   C     0.14016   0.63084   0.39768   0.00000  Uiso   1.00
C199   C     0.16350   0.60983   0.33275   0.00000  Uiso   1.00
C200   C     0.20540   0.52340   0.31841   0.00000  Uiso   1.00
C201   C     0.22087   0.51861   0.25620   0.00000  Uiso   1.00
C202   C     0.14192   0.78959   0.41020   0.00000  Uiso   1.00
C203   C     0.16567   0.85431   0.46099   0.00000  Uiso   1.00
C204   C     0.16297   0.00085   0.46399   0.00000  Uiso   1.00
C205   C     0.08284   0.59261   0.39185   0.00000  Uiso   1.00
C206   C     0.05693   0.49173   0.42722   0.00000  Uiso   1.00
C207   C     0.00449   0.47246   0.41478   0.00000  Uiso   1.00
H208   H     0.07324   0.83741   0.27677   0.00000  Uiso   1.00
H209   H     0.13358   0.74506   0.18869   0.00000  Uiso   1.00
H210   H     0.09385   0.07591   0.33125   0.00000  Uiso   1.00
H211   H     0.98513   0.71339   0.29748   0.00000  Uiso   1.00
H212   H     0.21176   0.60795   0.11140   0.00000  Uiso   1.00
H213   H     0.12798   0.30555   0.41201   0.00000  Uiso   1.00
H214   H     0.89871   0.54111   0.34080   0.00000  Uiso   1.00
H215   H     0.16005   0.56945   0.43361   0.00000  Uiso   1.00
H216   H     0.22516   0.46239   0.35414   0.00000  Uiso   1.00
H217   H     0.18543   0.79325   0.49670   0.00000  Uiso   1.00
H218   H     0.07671   0.43073   0.46293   0.00000  Uiso   1.00
H219   H     0.28610   0.37853   0.24569   0.00000  Uiso   1.00
H220   H     0.20231   0.07614   0.54629   0.00000  Uiso   1.00
H221   H     0.97304   0.31169   0.47508   0.00000  Uiso   1.00
O222   O     0.29021   0.42768   0.12344   0.00000  Uiso   1.00
O223   O     0.18027   0.34292   0.51782   0.00000  Uiso   1.00
O224   O     0.87948   0.33998   0.42440   0.00000  Uiso   1.00
N225   N     0.22032   0.56862   0.15391   0.00000  Uiso   1.00
N226   N     0.14199   0.22085   0.43495   0.00000  Uiso   1.00
N227   N     0.92764   0.50618   0.36839   0.00000  Uiso   1.00
N228   N     0.26031   0.44517   0.22617   0.00000  Uiso   1.00
N229   N     0.18199   0.09740   0.50721   0.00000  Uiso   1.00
N230   N     0.96763   0.38273   0.44065   0.00000  Uiso   1.00
C231   C     0.40687   0.72399   0.81270   0.00000  Uiso   1.00
C232   C     0.36205   0.81133   0.78660   0.00000  Uiso   1.00
C233   C     0.34664   0.81599   0.72440   0.00000  Uiso   1.00
C234   C     0.30472   0.90239   0.70997   0.00000  Uiso   1.00
C235   C     0.23900   0.02596   0.66242   0.00000  Uiso   1.00
C236   C     0.38363   0.63156   0.86405   0.00000  Uiso   1.00
C237   C     0.38637   0.48508   0.86698   0.00000  Uiso   1.00
C238   C     0.36262   0.42016   0.91775   0.00000  Uiso   1.00
C239   C     0.33043   0.26465   0.99047   0.00000  Uiso   1.00
C240   C     0.44270   0.82854   0.84570   0.00000  Uiso   1.00
C241   C     0.49512   0.84765   0.83320   0.00000  Uiso   1.00
C242   C     0.52111   0.94855   0.86854   0.00000  Uiso   1.00
C243   C     0.58063   0.09888   0.91276   0.00000  Uiso   1.00
C244   C     0.35984   0.86916   0.89768   0.00000  Uiso   1.00
C245   C     0.33650   0.89017   0.83275   0.00000  Uiso   1.00
C246   C     0.29460   0.97660   0.81841   0.00000  Uiso   1.00
C247   C     0.27913   0.98139   0.75620   0.00000  Uiso   1.00
C248   C     0.35808   0.71041   0.91020   0.00000  Uiso   1.00
C249   C     0.33433   0.64569   0.96099   0.00000  Uiso   1.00
C250   C     0.33703   0.49915   0.96399   0.00000  Uiso   1.00
C251   C     0.41716   0.90739   0.89185   0.00000  Uiso   1.00
C252   C     0.44307   0.00827   0.92722   0.00000  Uiso   1.00
C253   C     0.49551   0.02754   0.91478   0.00000  Uiso   1.00
H254   H     0.42676   0.66259   0.77677   0.00000  Uiso   1.00
H255   H     0.36642   0.75494   0.68869   0.00000  Uiso   1.00
H256   H     0.40615   0.42409   0.83125   0.00000  Uiso   1.00
H257   H     0.51487   0.78661   0.79748   0.00000  Uiso   1.00
H258   H     0.28824   0.89205   0.61140   0.00000  Uiso   1.00
H259   H     0.37202   0.19445   0.91201   0.00000  Uiso   1.00
H260   H     0.60129   0.95889   0.84080   0.00000  Uiso   1.00
H261   H     0.33995   0.93055   0.93361   0.00000  Uiso   1.00
H262   H     0.27484   0.03761   0.85414   0.00000  Uiso   1.00
H263   H     0.31457   0.70675   0.99670   0.00000  Uiso   1.00
H264   H     0.42329   0.06927   0.96293   0.00000  Uiso   1.00
H265   H     0.21390   0.12147   0.74569   0.00000  Uiso   1.00
H266   H     0.29769   0.42386   0.04629   0.00000  Uiso   1.00
H267   H     0.52696   0.18831   0.97508   0.00000  Uiso   1.00
O268   O     0.20979   0.07232   0.62344   0.00000  Uiso   1.00
O269   O     0.31973   0.15708   0.01782   0.00000  Uiso   1.00
O270   O     0.62052   0.16002   0.92440   0.00000  Uiso   1.00
N271   N     0.27968   0.93138   0.65391   0.00000  Uiso   1.00
N272   N     0.35801   0.27915   0.93495   0.00000  Uiso   1.00
N273   N     0.57236   0.99382   0.86839   0.00000  Uiso   1.00
N274   N     0.23969   0.05483   0.72617   0.00000  Uiso   1.00
N275   N     0.31801   0.40260   0.00721   0.00000  Uiso   1.00
N276   N     0.53237   0.11727   0.94065   0.00000  Uiso   1.00
C277   C     0.90687   0.77601   0.18730   0.00000  Uiso   1.00
C278   C     0.86205   0.68867   0.21340   0.00000  Uiso   1.00
C279   C     0.84664   0.68401   0.27560   0.00000  Uiso   1.00
C280   C     0.80472   0.59761   0.29003   0.00000  Uiso   1.00
C281   C     0.73900   0.47404   0.33758   0.00000  Uiso   1.00
C282   C     0.88363   0.86844   0.13595   0.00000  Uiso   1.00
C283   C     0.88637   0.01492   0.13302   0.00000  Uiso   1.00
C284   C     0.86262   0.07984   0.08225   0.00000  Uiso   1.00
C285   C     0.83043   0.23535   0.00953   0.00000  Uiso   1.00
C286   C     0.94270   0.67146   0.15430   0.00000  Uiso   1.00
C287   C     0.99512   0.65235   0.16680   0.00000  Uiso   1.00
C288   C     0.02111   0.55145   0.13146   0.00000  Uiso   1.00
C289   C     0.08063   0.40112   0.08724   0.00000  Uiso   1.00
C290   C     0.85984   0.63084   0.10232   0.00000  Uiso   1.00
C291   C     0.83650   0.60983   0.16725   0.00000  Uiso   1.00
C292   C     0.79460   0.52340   0.18159   0.00000  Uiso   1.00
C293   C     0.77913   0.51861   0.24380   0.00000  Uiso   1.00
C294   C     0.85808   0.78959   0.08980   0.00000  Uiso   1.00
C295   C     0.83433   0.85431   0.03901   0.00000  Uiso   1.00
C296   C     0.83703   0.00085   0.03601   0.00000  Uiso   1.00
C297   C     0.91716   0.59261   0.10815   0.00000  Uiso   1.00
C298   C     0.94307   0.49173   0.07278   0.00000  Uiso   1.00
C299   C     0.99551   0.47246   0.08522   0.00000  Uiso   1.00
H300   H     0.92676   0.83741   0.22323   0.00000  Uiso   1.00
H301   H     0.86642   0.74506   0.31131   0.00000  Uiso   1.00
H302   H     0.90615   0.07591   0.16875   0.00000  Uiso   1.00
H303   H     0.01487   0.71339   0.20252   0.00000  Uiso   1.00
H304   H     0.78824   0.60795   0.38860   0.00000  Uiso   1.00
H305   H     0.87202   0.30555   0.08799   0.00000  Uiso   1.00
H306   H     0.10129   0.54111   0.15920   0.00000  Uiso   1.00
H307   H     0.83995   0.56945   0.06639   0.00000  Uiso   1.00
H308   H     0.77484   0.46239   0.14586   0.00000  Uiso   1.00
H309   H     0.81457   0.79325   0.00330   0.00000  Uiso   1.00
H310   H     0.92329   0.43073   0.03707   0.00000  Uiso   1.00
H311   H     0.71390   0.37853   0.25431   0.00000  Uiso   1.00
H312   H     0.79769   0.07614   0.95371   0.00000  Uiso   1.00
H313   H     0.02696   0.31169   0.02492   0.00000  Uiso   1.00
O314   O     0.70979   0.42768   0.37656   0.00000  Uiso   1.00
O315   O     0.81973   0.34292   0.98218   0.00000  Uiso   1.00
O316   O     0.12052   0.33998   0.07560   0.00000  Uiso   1.00
N317   N     0.77968   0.56862   0.34609   0.00000  Uiso   1.00
N318   N     0.85801   0.22085   0.06505   0.00000  Uiso   1.00
N319   N     0.07236   0.50618   0.13161   0.00000  Uiso   1.00
N320   N     0.73969   0.44517   0.27383   0.00000  Uiso   1.00
N321   N     0.81801   0.09740   0.99279   0.00000  Uiso   1.00
N322   N     0.03237   0.38273   0.05935   0.00000  Uiso   1.00
C323   C     0.59313   0.72399   0.68730   0.00000  Uiso   1.00
C324   C     0.63795   0.81133   0.71340   0.00000  Uiso   1.00
C325   C     0.65336   0.81599   0.77560   0.00000  Uiso   1.00
C326   C     0.69528   0.90239   0.79003   0.00000  Uiso   1.00
C327   C     0.76100   0.02596   0.83758   0.00000  Uiso   1.00
C328   C     0.61637   0.63156   0.63595   0.00000  Uiso   1.00
C329   C     0.61363   0.48508   0.63302   0.00000  Uiso   1.00
C330   C     0.63738   0.42016   0.58225   0.00000  Uiso   1.00
C331   C     0.66957   0.26465   0.50953   0.00000  Uiso   1.00
C332   C     0.55730   0.82854   0.65430   0.00000  Uiso   1.00
C333   C     0.50488   0.84765   0.66680   0.00000  Uiso   1.00
C334   C     0.47889   0.94855   0.63146   0.00000  Uiso   1.00
C335   C     0.41937   0.09888   0.58724   0.00000  Uiso   1.00
C336   C     0.64016   0.86916   0.60232   0.00000  Uiso   1.00
C337   C     0.66350   0.89017   0.66725   0.00000  Uiso   1.00
C338   C     0.70540   0.97660   0.68159   0.00000  Uiso   1.00
C339   C     0.72087   0.98139   0.74380   0.00000  Uiso   1.00
C340   C     0.64192   0.71041   0.58980   0.00000  Uiso   1.00
C341   C     0.66567   0.64569   0.53901   0.00000  Uiso   1.00
C342   C     0.66297   0.49915   0.53601   0.00000  Uiso   1.00
C343   C     0.58284   0.90739   0.60815   0.00000  Uiso   1.00
C344   C     0.55693   0.00827   0.57278   0.00000  Uiso   1.00
C345   C     0.50449   0.02754   0.58522   0.00000  Uiso   1.00
H346   H     0.57324   0.66259   0.72323   0.00000  Uiso   1.00
H347   H     0.63358   0.75494   0.81131   0.00000  Uiso   1.00
H348   H     0.59385   0.42409   0.66875   0.00000  Uiso   1.00
H349   H     0.48513   0.78661   0.70252   0.00000  Uiso   1.00
H350   H     0.71176   0.89205   0.88860   0.00000  Uiso   1.00
H351   H     0.62798   0.19445   0.58799   0.00000  Uiso   1.00
H352   H     0.39871   0.95889   0.65920   0.00000  Uiso   1.00
H353   H     0.66005   0.93055   0.56639   0.00000  Uiso   1.00
H354   H     0.72516   0.03761   0.64586   0.00000  Uiso   1.00
H355   H     0.68543   0.70675   0.50330   0.00000  Uiso   1.00
H356   H     0.57671   0.06927   0.53707   0.00000  Uiso   1.00
H357   H     0.78610   0.12147   0.75431   0.00000  Uiso   1.00
H358   H     0.70231   0.42386   0.45371   0.00000  Uiso   1.00
H359   H     0.47304   0.18831   0.52492   0.00000  Uiso   1.00
O360   O     0.79021   0.07232   0.87656   0.00000  Uiso   1.00
O361   O     0.68027   0.15708   0.48218   0.00000  Uiso   1.00
O362   O     0.37948   0.16002   0.57560   0.00000  Uiso   1.00
N363   N     0.72032   0.93138   0.84609   0.00000  Uiso   1.00
N364   N     0.64199   0.27915   0.56505   0.00000  Uiso   1.00
N365   N     0.42764   0.99382   0.63161   0.00000  Uiso   1.00
N366   N     0.76031   0.05483   0.77383   0.00000  Uiso   1.00
N367   N     0.68199   0.40260   0.49279   0.00000  Uiso   1.00
N368   N     0.46763   0.11727   0.55935   0.00000  Uiso   1.00
