data_job_01709
_audit_creation_date              2018-12-19
_audit_creation_method            'Materials Studio'
_symmetry_space_group_name_H-M    'P1'
_symmetry_Int_Tables_number       1
_symmetry_cell_setting            triclinic
loop_
_symmetry_equiv_pos_as_xyz
  x,y,z
_cell_length_a                    15.8840
_cell_length_b                    9.5811
_cell_length_c                    17.2094
_cell_angle_alpha                 90.0000
_cell_angle_beta                  78.9593
_cell_angle_gamma                 90.0000
loop_
_atom_site_label
_atom_site_type_symbol
_atom_site_fract_x
_atom_site_fract_y
_atom_site_fract_z
_atom_site_U_iso_or_equiv
_atom_site_adp_type
_atom_site_occupancy
C1     C     0.77774   0.34902   0.78897   0.00000  Uiso   1.00
C2     C     0.72519   0.38703   0.86994   0.00000  Uiso   1.00
C3     C     0.75042   0.47800   0.92392   0.00000  Uiso   1.00
C4     C     0.69317   0.49892   0.99474   0.00000  Uiso   1.00
C5     C     0.62370   0.56818   0.11802   0.00000  Uiso   1.00
C6     C     0.78606   0.19044   0.78832   0.00000  Uiso   1.00
C7     C     0.86246   0.11613   0.77366   0.00000  Uiso   1.00
C8     C     0.85645   0.97156   0.77575   0.00000  Uiso   1.00
C9     C     0.88148   0.73562   0.77225   0.00000  Uiso   1.00
C10    C     0.72156   0.38418   0.72906   0.00000  Uiso   1.00
C11    C     0.74374   0.47272   0.66456   0.00000  Uiso   1.00
C12    C     0.68343   0.49124   0.61675   0.00000  Uiso   1.00
C13    C     0.60832   0.55609   0.52124   0.00000  Uiso   1.00
C14    C     0.63122   0.22441   0.81873   0.00000  Uiso   1.00
C15    C     0.64561   0.31934   0.88610   0.00000  Uiso   1.00
C16    C     0.58831   0.34013   0.95685   0.00000  Uiso   1.00
C17    C     0.61344   0.43112   0.01093   0.00000  Uiso   1.00
C18    C     0.70648   0.12276   0.80448   0.00000  Uiso   1.00
C19    C     0.70036   0.97826   0.80659   0.00000  Uiso   1.00
C20    C     0.77673   0.90375   0.79195   0.00000  Uiso   1.00
C21    C     0.64197   0.31649   0.74522   0.00000  Uiso   1.00
C22    C     0.58163   0.33486   0.69749   0.00000  Uiso   1.00
C23    C     0.60371   0.42343   0.63294   0.00000  Uiso   1.00
H24    H     0.83970   0.40171   0.77638   0.00000  Uiso   1.00
H25    H     0.81201   0.53035   0.91139   0.00000  Uiso   1.00
H26    H     0.92404   0.16854   0.76114   0.00000  Uiso   1.00
H27    H     0.80533   0.52508   0.65207   0.00000  Uiso   1.00
H28    H     0.74624   0.64309   0.06822   0.00000  Uiso   1.00
H29    H     0.98245   0.88019   0.75138   0.00000  Uiso   1.00
H30    H     0.73213   0.63203   0.52137   0.00000  Uiso   1.00
H31    H     0.56926   0.17171   0.83132   0.00000  Uiso   1.00
H32    H     0.52673   0.28774   0.96934   0.00000  Uiso   1.00
H33    H     0.63876   0.92592   0.81909   0.00000  Uiso   1.00
H34    H     0.52005   0.28247   0.71002   0.00000  Uiso   1.00
H35    H     0.51469   0.44617   0.11525   0.00000  Uiso   1.00
H36    H     0.75090   0.68326   0.79842   0.00000  Uiso   1.00
H37    H     0.50058   0.43511   0.56841   0.00000  Uiso   1.00
O38    O     0.60738   0.62507   0.18155   0.00000  Uiso   1.00
O39    O     0.91728   0.62418   0.76586   0.00000  Uiso   1.00
O40    O     0.58887   0.61058   0.46410   0.00000  Uiso   1.00
N41    N     0.69757   0.58084   0.06034   0.00000  Uiso   1.00
N42    N     0.91842   0.86757   0.76413   0.00000  Uiso   1.00
N43    N     0.68440   0.57046   0.54908   0.00000  Uiso   1.00
N44    N     0.57298   0.47488   0.08565   0.00000  Uiso   1.00
N45    N     0.79382   0.76162   0.78944   0.00000  Uiso   1.00
N46    N     0.55980   0.46450   0.57439   0.00000  Uiso   1.00
C47    C     0.22226   0.84902   0.71103   0.00000  Uiso   1.00
C48    C     0.27481   0.88703   0.63006   0.00000  Uiso   1.00
C49    C     0.24958   0.97800   0.57608   0.00000  Uiso   1.00
C50    C     0.30683   0.99892   0.50526   0.00000  Uiso   1.00
C51    C     0.37630   0.06818   0.38198   0.00000  Uiso   1.00
C52    C     0.21394   0.69044   0.71168   0.00000  Uiso   1.00
C53    C     0.13754   0.61613   0.72634   0.00000  Uiso   1.00
C54    C     0.14355   0.47156   0.72425   0.00000  Uiso   1.00
C55    C     0.11852   0.23562   0.72775   0.00000  Uiso   1.00
C56    C     0.27844   0.88418   0.77094   0.00000  Uiso   1.00
C57    C     0.25626   0.97272   0.83544   0.00000  Uiso   1.00
C58    C     0.31657   0.99124   0.88325   0.00000  Uiso   1.00
C59    C     0.39168   0.05609   0.97876   0.00000  Uiso   1.00
C60    C     0.36878   0.72441   0.68127   0.00000  Uiso   1.00
C61    C     0.35439   0.81934   0.61390   0.00000  Uiso   1.00
C62    C     0.41169   0.84013   0.54315   0.00000  Uiso   1.00
C63    C     0.38656   0.93112   0.48907   0.00000  Uiso   1.00
C64    C     0.29352   0.62276   0.69552   0.00000  Uiso   1.00
C65    C     0.29964   0.47826   0.69341   0.00000  Uiso   1.00
C66    C     0.22327   0.40375   0.70805   0.00000  Uiso   1.00
C67    C     0.35803   0.81649   0.75478   0.00000  Uiso   1.00
C68    C     0.41837   0.83486   0.80251   0.00000  Uiso   1.00
C69    C     0.39629   0.92343   0.86706   0.00000  Uiso   1.00
H70    H     0.16030   0.90171   0.72362   0.00000  Uiso   1.00
H71    H     0.18799   0.03035   0.58861   0.00000  Uiso   1.00
H72    H     0.07596   0.66854   0.73886   0.00000  Uiso   1.00
H73    H     0.19467   0.02508   0.84793   0.00000  Uiso   1.00
H74    H     0.25376   0.14309   0.43178   0.00000  Uiso   1.00
H75    H     0.01755   0.38019   0.74862   0.00000  Uiso   1.00
H76    H     0.26787   0.13203   0.97863   0.00000  Uiso   1.00
H77    H     0.43074   0.67171   0.66868   0.00000  Uiso   1.00
H78    H     0.47327   0.78774   0.53066   0.00000  Uiso   1.00
H79    H     0.36124   0.42592   0.68091   0.00000  Uiso   1.00
H80    H     0.47995   0.78247   0.78998   0.00000  Uiso   1.00
H81    H     0.48531   0.94617   0.38475   0.00000  Uiso   1.00
H82    H     0.24910   0.18326   0.70158   0.00000  Uiso   1.00
H83    H     0.49942   0.93511   0.93159   0.00000  Uiso   1.00
O84    O     0.39262   0.12507   0.31845   0.00000  Uiso   1.00
O85    O     0.08272   0.12418   0.73414   0.00000  Uiso   1.00
O86    O     0.41113   0.11058   0.03590   0.00000  Uiso   1.00
N87    N     0.30243   0.08084   0.43966   0.00000  Uiso   1.00
N88    N     0.08158   0.36757   0.73587   0.00000  Uiso   1.00
N89    N     0.31560   0.07046   0.95092   0.00000  Uiso   1.00
N90    N     0.42702   0.97488   0.41435   0.00000  Uiso   1.00
N91    N     0.20618   0.26162   0.71056   0.00000  Uiso   1.00
N92    N     0.44020   0.96450   0.92561   0.00000  Uiso   1.00
C93    C     0.22226   0.65098   0.21103   0.00000  Uiso   1.00
C94    C     0.27481   0.61297   0.13006   0.00000  Uiso   1.00
C95    C     0.24958   0.52200   0.07608   0.00000  Uiso   1.00
C96    C     0.30683   0.50108   0.00526   0.00000  Uiso   1.00
C97    C     0.37630   0.43182   0.88198   0.00000  Uiso   1.00
C98    C     0.21394   0.80956   0.21168   0.00000  Uiso   1.00
C99    C     0.13754   0.88387   0.22634   0.00000  Uiso   1.00
C100   C     0.14355   0.02844   0.22425   0.00000  Uiso   1.00
C101   C     0.11852   0.26438   0.22775   0.00000  Uiso   1.00
C102   C     0.27844   0.61582   0.27094   0.00000  Uiso   1.00
C103   C     0.25626   0.52728   0.33544   0.00000  Uiso   1.00
C104   C     0.31657   0.50876   0.38325   0.00000  Uiso   1.00
C105   C     0.39168   0.44391   0.47876   0.00000  Uiso   1.00
C106   C     0.36878   0.77559   0.18127   0.00000  Uiso   1.00
C107   C     0.35439   0.68066   0.11390   0.00000  Uiso   1.00
C108   C     0.41169   0.65987   0.04315   0.00000  Uiso   1.00
C109   C     0.38656   0.56888   0.98907   0.00000  Uiso   1.00
C110   C     0.29352   0.87724   0.19552   0.00000  Uiso   1.00
C111   C     0.29964   0.02174   0.19341   0.00000  Uiso   1.00
C112   C     0.22327   0.09625   0.20805   0.00000  Uiso   1.00
C113   C     0.35803   0.68351   0.25478   0.00000  Uiso   1.00
C114   C     0.41837   0.66514   0.30251   0.00000  Uiso   1.00
C115   C     0.39629   0.57657   0.36706   0.00000  Uiso   1.00
H116   H     0.16030   0.59829   0.22362   0.00000  Uiso   1.00
H117   H     0.18799   0.46965   0.08861   0.00000  Uiso   1.00
H118   H     0.07596   0.83146   0.23886   0.00000  Uiso   1.00
H119   H     0.19467   0.47492   0.34793   0.00000  Uiso   1.00
H120   H     0.25376   0.35691   0.93178   0.00000  Uiso   1.00
H121   H     0.01755   0.11981   0.24862   0.00000  Uiso   1.00
H122   H     0.26787   0.36797   0.47863   0.00000  Uiso   1.00
H123   H     0.43074   0.82829   0.16868   0.00000  Uiso   1.00
H124   H     0.47327   0.71226   0.03066   0.00000  Uiso   1.00
H125   H     0.36124   0.07408   0.18091   0.00000  Uiso   1.00
H126   H     0.47995   0.71753   0.28998   0.00000  Uiso   1.00
H127   H     0.48531   0.55383   0.88475   0.00000  Uiso   1.00
H128   H     0.24910   0.31674   0.20158   0.00000  Uiso   1.00
H129   H     0.49942   0.56489   0.43159   0.00000  Uiso   1.00
O130   O     0.39262   0.37493   0.81845   0.00000  Uiso   1.00
O131   O     0.08272   0.37582   0.23414   0.00000  Uiso   1.00
O132   O     0.41113   0.38942   0.53590   0.00000  Uiso   1.00
N133   N     0.30243   0.41916   0.93966   0.00000  Uiso   1.00
N134   N     0.08158   0.13243   0.23587   0.00000  Uiso   1.00
N135   N     0.31560   0.42954   0.45092   0.00000  Uiso   1.00
N136   N     0.42702   0.52512   0.91435   0.00000  Uiso   1.00
N137   N     0.20618   0.23838   0.21056   0.00000  Uiso   1.00
N138   N     0.44020   0.53550   0.42561   0.00000  Uiso   1.00
C139   C     0.77774   0.15098   0.28897   0.00000  Uiso   1.00
C140   C     0.72519   0.11297   0.36994   0.00000  Uiso   1.00
C141   C     0.75042   0.02200   0.42392   0.00000  Uiso   1.00
C142   C     0.69317   0.00108   0.49474   0.00000  Uiso   1.00
C143   C     0.62370   0.93182   0.61802   0.00000  Uiso   1.00
C144   C     0.78606   0.30956   0.28832   0.00000  Uiso   1.00
C145   C     0.86246   0.38387   0.27366   0.00000  Uiso   1.00
C146   C     0.85645   0.52844   0.27575   0.00000  Uiso   1.00
C147   C     0.88148   0.76438   0.27225   0.00000  Uiso   1.00
C148   C     0.72156   0.11582   0.22906   0.00000  Uiso   1.00
C149   C     0.74374   0.02728   0.16456   0.00000  Uiso   1.00
C150   C     0.68343   0.00876   0.11675   0.00000  Uiso   1.00
C151   C     0.60832   0.94391   0.02124   0.00000  Uiso   1.00
C152   C     0.63122   0.27559   0.31873   0.00000  Uiso   1.00
C153   C     0.64561   0.18066   0.38610   0.00000  Uiso   1.00
C154   C     0.58831   0.15987   0.45685   0.00000  Uiso   1.00
C155   C     0.61344   0.06888   0.51093   0.00000  Uiso   1.00
C156   C     0.70648   0.37724   0.30448   0.00000  Uiso   1.00
C157   C     0.70036   0.52174   0.30659   0.00000  Uiso   1.00
C158   C     0.77673   0.59625   0.29195   0.00000  Uiso   1.00
C159   C     0.64197   0.18351   0.24522   0.00000  Uiso   1.00
C160   C     0.58163   0.16514   0.19749   0.00000  Uiso   1.00
C161   C     0.60371   0.07657   0.13294   0.00000  Uiso   1.00
H162   H     0.83970   0.09829   0.27638   0.00000  Uiso   1.00
H163   H     0.81201   0.96965   0.41139   0.00000  Uiso   1.00
H164   H     0.92404   0.33146   0.26114   0.00000  Uiso   1.00
H165   H     0.80533   0.97492   0.15207   0.00000  Uiso   1.00
H166   H     0.74624   0.85691   0.56822   0.00000  Uiso   1.00
H167   H     0.98245   0.61981   0.25138   0.00000  Uiso   1.00
H168   H     0.73213   0.86797   0.02137   0.00000  Uiso   1.00
H169   H     0.56926   0.32829   0.33132   0.00000  Uiso   1.00
H170   H     0.52673   0.21226   0.46934   0.00000  Uiso   1.00
H171   H     0.63876   0.57408   0.31909   0.00000  Uiso   1.00
H172   H     0.52005   0.21753   0.21002   0.00000  Uiso   1.00
H173   H     0.51469   0.05383   0.61525   0.00000  Uiso   1.00
H174   H     0.75090   0.81674   0.29842   0.00000  Uiso   1.00
H175   H     0.50058   0.06489   0.06841   0.00000  Uiso   1.00
O176   O     0.60738   0.87493   0.68155   0.00000  Uiso   1.00
O177   O     0.91728   0.87582   0.26586   0.00000  Uiso   1.00
O178   O     0.58887   0.88942   0.96410   0.00000  Uiso   1.00
N179   N     0.69757   0.91916   0.56034   0.00000  Uiso   1.00
N180   N     0.91842   0.63243   0.26413   0.00000  Uiso   1.00
N181   N     0.68440   0.92954   0.04908   0.00000  Uiso   1.00
N182   N     0.57298   0.02512   0.58565   0.00000  Uiso   1.00
N183   N     0.79382   0.73838   0.28944   0.00000  Uiso   1.00
N184   N     0.55980   0.03550   0.07439   0.00000  Uiso   1.00
