data_job_03018
_audit_creation_date              2018-12-19
_audit_creation_method            'Materials Studio'
_symmetry_space_group_name_H-M    'P1'
_symmetry_Int_Tables_number       1
_symmetry_cell_setting            triclinic
loop_
_symmetry_equiv_pos_as_xyz
  x,y,z
_cell_length_a                    21.5968
_cell_length_b                    12.5260
_cell_length_c                    31.7887
_cell_angle_alpha                 90.0000
_cell_angle_beta                  90.0000
_cell_angle_gamma                 90.0000
loop_
_atom_site_label
_atom_site_type_symbol
_atom_site_fract_x
_atom_site_fract_y
_atom_site_fract_z
_atom_site_U_iso_or_equiv
_atom_site_adp_type
_atom_site_occupancy
C1     C     0.56247   0.34116   0.31806   0.00000  Uiso   1.00
C2     C     0.54897   0.26625   0.35474   0.00000  Uiso   1.00
C3     C     0.51158   0.17623   0.35319   0.00000  Uiso   1.00
C4     C     0.50509   0.11825   0.39015   0.00000  Uiso   1.00
C5     C     0.47956   0.99725   0.44147   0.00000  Uiso   1.00
C6     C     0.54335   0.45229   0.33272   0.00000  Uiso   1.00
C7     C     0.50124   0.51869   0.31264   0.00000  Uiso   1.00
C8     C     0.49002   0.61732   0.33106   0.00000  Uiso   1.00
C9     C     0.45580   0.78518   0.34816   0.00000  Uiso   1.00
C10    C     0.63275   0.34407   0.31359   0.00000  Uiso   1.00
C11    C     0.66581   0.31952   0.27742   0.00000  Uiso   1.00
C12    C     0.72986   0.32706   0.27973   0.00000  Uiso   1.00
C13    C     0.83445   0.32690   0.26713   0.00000  Uiso   1.00
C14    C     0.61743   0.39826   0.38645   0.00000  Uiso   1.00
C15    C     0.57882   0.29727   0.39189   0.00000  Uiso   1.00
C16    C     0.57239   0.23940   0.42887   0.00000  Uiso   1.00
C17    C     0.53499   0.14931   0.42737   0.00000  Uiso   1.00
C18    C     0.57320   0.48330   0.36987   0.00000  Uiso   1.00
C19    C     0.56204   0.58186   0.38832   0.00000  Uiso   1.00
C20    C     0.51993   0.64839   0.36828   0.00000  Uiso   1.00
C21    C     0.66260   0.37508   0.35074   0.00000  Uiso   1.00
C22    C     0.72661   0.38268   0.35310   0.00000  Uiso   1.00
C23    C     0.75977   0.35813   0.31695   0.00000  Uiso   1.00
H24    H     0.53923   0.31702   0.28913   0.00000  Uiso   1.00
H25    H     0.48849   0.15226   0.32444   0.00000  Uiso   1.00
H26    H     0.47815   0.49467   0.28389   0.00000  Uiso   1.00
H27    H     0.64270   0.29552   0.24868   0.00000  Uiso   1.00
H28    H     0.44537   0.98330   0.37996   0.00000  Uiso   1.00
H29    H     0.42360   0.70530   0.29446   0.00000  Uiso   1.00
H30    H     0.77057   0.28535   0.22021   0.00000  Uiso   1.00
H31    H     0.64067   0.42241   0.41538   0.00000  Uiso   1.00
H32    H     0.59549   0.26342   0.45761   0.00000  Uiso   1.00
H33    H     0.58515   0.60584   0.41706   0.00000  Uiso   1.00
H34    H     0.74970   0.40668   0.38185   0.00000  Uiso   1.00
H35    H     0.53222   0.07352   0.48805   0.00000  Uiso   1.00
H36    H     0.51044   0.79553   0.40255   0.00000  Uiso   1.00
H37    H     0.85742   0.37558   0.32830   0.00000  Uiso   1.00
O38    O     0.45723   0.92195   0.45951   0.00000  Uiso   1.00
O39    O     0.42867   0.86919   0.34733   0.00000  Uiso   1.00
O40    O     0.88389   0.31823   0.24992   0.00000  Uiso   1.00
N41    N     0.47202   0.02634   0.39960   0.00000  Uiso   1.00
N42    N     0.45166   0.70136   0.31967   0.00000  Uiso   1.00
N43    N     0.77605   0.30877   0.25025   0.00000  Uiso   1.00
N44    N     0.51875   0.07489   0.45777   0.00000  Uiso   1.00
N45    N     0.49839   0.74991   0.37783   0.00000  Uiso   1.00
N46    N     0.82278   0.35732   0.30841   0.00000  Uiso   1.00
C47    C     0.93753   0.65884   0.31806   0.00000  Uiso   1.00
C48    C     0.95103   0.73375   0.35474   0.00000  Uiso   1.00
C49    C     0.98842   0.82377   0.35319   0.00000  Uiso   1.00
C50    C     0.99491   0.88175   0.39015   0.00000  Uiso   1.00
C51    C     0.02044   0.00275   0.44147   0.00000  Uiso   1.00
C52    C     0.95665   0.54771   0.33272   0.00000  Uiso   1.00
C53    C     0.99876   0.48131   0.31264   0.00000  Uiso   1.00
C54    C     0.00998   0.38268   0.33106   0.00000  Uiso   1.00
C55    C     0.04420   0.21482   0.34816   0.00000  Uiso   1.00
C56    C     0.86725   0.65593   0.31359   0.00000  Uiso   1.00
C57    C     0.83419   0.68048   0.27742   0.00000  Uiso   1.00
C58    C     0.77014   0.67294   0.27973   0.00000  Uiso   1.00
C59    C     0.66555   0.67310   0.26713   0.00000  Uiso   1.00
C60    C     0.88257   0.60174   0.38645   0.00000  Uiso   1.00
C61    C     0.92118   0.70273   0.39189   0.00000  Uiso   1.00
C62    C     0.92761   0.76060   0.42887   0.00000  Uiso   1.00
C63    C     0.96501   0.85069   0.42737   0.00000  Uiso   1.00
C64    C     0.92680   0.51670   0.36987   0.00000  Uiso   1.00
C65    C     0.93796   0.41814   0.38832   0.00000  Uiso   1.00
C66    C     0.98007   0.35161   0.36828   0.00000  Uiso   1.00
C67    C     0.83740   0.62492   0.35074   0.00000  Uiso   1.00
C68    C     0.77339   0.61732   0.35310   0.00000  Uiso   1.00
C69    C     0.74023   0.64187   0.31695   0.00000  Uiso   1.00
H70    H     0.96077   0.68298   0.28913   0.00000  Uiso   1.00
H71    H     0.01151   0.84774   0.32444   0.00000  Uiso   1.00
H72    H     0.02185   0.50533   0.28389   0.00000  Uiso   1.00
H73    H     0.85730   0.70448   0.24868   0.00000  Uiso   1.00
H74    H     0.05463   0.01670   0.37996   0.00000  Uiso   1.00
H75    H     0.07640   0.29470   0.29446   0.00000  Uiso   1.00
H76    H     0.72943   0.71465   0.22021   0.00000  Uiso   1.00
H77    H     0.85933   0.57759   0.41538   0.00000  Uiso   1.00
H78    H     0.90451   0.73658   0.45761   0.00000  Uiso   1.00
H79    H     0.91485   0.39416   0.41706   0.00000  Uiso   1.00
H80    H     0.75030   0.59332   0.38185   0.00000  Uiso   1.00
H81    H     0.96778   0.92648   0.48805   0.00000  Uiso   1.00
H82    H     0.98956   0.20447   0.40255   0.00000  Uiso   1.00
H83    H     0.64258   0.62442   0.32830   0.00000  Uiso   1.00
O84    O     0.04277   0.07805   0.45951   0.00000  Uiso   1.00
O85    O     0.07133   0.13081   0.34733   0.00000  Uiso   1.00
O86    O     0.61611   0.68177   0.24992   0.00000  Uiso   1.00
N87    N     0.02798   0.97366   0.39960   0.00000  Uiso   1.00
N88    N     0.04834   0.29864   0.31967   0.00000  Uiso   1.00
N89    N     0.72395   0.69123   0.25025   0.00000  Uiso   1.00
N90    N     0.98125   0.92511   0.45777   0.00000  Uiso   1.00
N91    N     0.00161   0.25009   0.37783   0.00000  Uiso   1.00
N92    N     0.67722   0.64268   0.30841   0.00000  Uiso   1.00
C93    C     0.43753   0.34116   0.18194   0.00000  Uiso   1.00
C94    C     0.45103   0.26625   0.14526   0.00000  Uiso   1.00
C95    C     0.48842   0.17623   0.14681   0.00000  Uiso   1.00
C96    C     0.49491   0.11825   0.10985   0.00000  Uiso   1.00
C97    C     0.52044   0.99725   0.05853   0.00000  Uiso   1.00
C98    C     0.45665   0.45229   0.16728   0.00000  Uiso   1.00
C99    C     0.49876   0.51869   0.18736   0.00000  Uiso   1.00
C100   C     0.50998   0.61732   0.16894   0.00000  Uiso   1.00
C101   C     0.54420   0.78518   0.15184   0.00000  Uiso   1.00
C102   C     0.36725   0.34407   0.18641   0.00000  Uiso   1.00
C103   C     0.33419   0.31952   0.22258   0.00000  Uiso   1.00
C104   C     0.27014   0.32706   0.22027   0.00000  Uiso   1.00
C105   C     0.16555   0.32690   0.23287   0.00000  Uiso   1.00
C106   C     0.38257   0.39826   0.11355   0.00000  Uiso   1.00
C107   C     0.42118   0.29727   0.10811   0.00000  Uiso   1.00
C108   C     0.42761   0.23940   0.07113   0.00000  Uiso   1.00
C109   C     0.46501   0.14931   0.07263   0.00000  Uiso   1.00
C110   C     0.42680   0.48330   0.13013   0.00000  Uiso   1.00
C111   C     0.43796   0.58186   0.11168   0.00000  Uiso   1.00
C112   C     0.48007   0.64839   0.13172   0.00000  Uiso   1.00
C113   C     0.33740   0.37508   0.14926   0.00000  Uiso   1.00
C114   C     0.27339   0.38268   0.14690   0.00000  Uiso   1.00
C115   C     0.24023   0.35813   0.18305   0.00000  Uiso   1.00
H116   H     0.46077   0.31702   0.21087   0.00000  Uiso   1.00
H117   H     0.51151   0.15226   0.17556   0.00000  Uiso   1.00
H118   H     0.52185   0.49467   0.21611   0.00000  Uiso   1.00
H119   H     0.35730   0.29552   0.25132   0.00000  Uiso   1.00
H120   H     0.55463   0.98330   0.12004   0.00000  Uiso   1.00
H121   H     0.57640   0.70530   0.20554   0.00000  Uiso   1.00
H122   H     0.22943   0.28535   0.27979   0.00000  Uiso   1.00
H123   H     0.35933   0.42241   0.08462   0.00000  Uiso   1.00
H124   H     0.40451   0.26342   0.04239   0.00000  Uiso   1.00
H125   H     0.41485   0.60584   0.08294   0.00000  Uiso   1.00
H126   H     0.25030   0.40668   0.11815   0.00000  Uiso   1.00
H127   H     0.46778   0.07352   0.01195   0.00000  Uiso   1.00
H128   H     0.48956   0.79553   0.09745   0.00000  Uiso   1.00
H129   H     0.14258   0.37558   0.17170   0.00000  Uiso   1.00
O130   O     0.54277   0.92195   0.04049   0.00000  Uiso   1.00
O131   O     0.57133   0.86919   0.15267   0.00000  Uiso   1.00
O132   O     0.11611   0.31823   0.25008   0.00000  Uiso   1.00
N133   N     0.52798   0.02634   0.10040   0.00000  Uiso   1.00
N134   N     0.54834   0.70136   0.18033   0.00000  Uiso   1.00
N135   N     0.22395   0.30877   0.24975   0.00000  Uiso   1.00
N136   N     0.48125   0.07489   0.04223   0.00000  Uiso   1.00
N137   N     0.50161   0.74991   0.12217   0.00000  Uiso   1.00
N138   N     0.17722   0.35732   0.19159   0.00000  Uiso   1.00
C139   C     0.06247   0.65884   0.18194   0.00000  Uiso   1.00
C140   C     0.04897   0.73375   0.14526   0.00000  Uiso   1.00
C141   C     0.01158   0.82377   0.14681   0.00000  Uiso   1.00
C142   C     0.00509   0.88175   0.10985   0.00000  Uiso   1.00
C143   C     0.97956   0.00275   0.05853   0.00000  Uiso   1.00
C144   C     0.04335   0.54771   0.16728   0.00000  Uiso   1.00
C145   C     0.00124   0.48131   0.18736   0.00000  Uiso   1.00
C146   C     0.99002   0.38268   0.16894   0.00000  Uiso   1.00
C147   C     0.95580   0.21482   0.15184   0.00000  Uiso   1.00
C148   C     0.13275   0.65593   0.18641   0.00000  Uiso   1.00
C149   C     0.16581   0.68048   0.22258   0.00000  Uiso   1.00
C150   C     0.22986   0.67294   0.22027   0.00000  Uiso   1.00
C151   C     0.33445   0.67310   0.23287   0.00000  Uiso   1.00
C152   C     0.11743   0.60174   0.11355   0.00000  Uiso   1.00
C153   C     0.07882   0.70273   0.10811   0.00000  Uiso   1.00
C154   C     0.07239   0.76060   0.07113   0.00000  Uiso   1.00
C155   C     0.03499   0.85069   0.07263   0.00000  Uiso   1.00
C156   C     0.07320   0.51670   0.13013   0.00000  Uiso   1.00
C157   C     0.06204   0.41814   0.11168   0.00000  Uiso   1.00
C158   C     0.01993   0.35161   0.13172   0.00000  Uiso   1.00
C159   C     0.16260   0.62492   0.14926   0.00000  Uiso   1.00
C160   C     0.22661   0.61732   0.14690   0.00000  Uiso   1.00
C161   C     0.25977   0.64187   0.18305   0.00000  Uiso   1.00
H162   H     0.03923   0.68298   0.21087   0.00000  Uiso   1.00
H163   H     0.98849   0.84774   0.17556   0.00000  Uiso   1.00
H164   H     0.97815   0.50533   0.21611   0.00000  Uiso   1.00
H165   H     0.14270   0.70448   0.25132   0.00000  Uiso   1.00
H166   H     0.94537   0.01670   0.12004   0.00000  Uiso   1.00
H167   H     0.92360   0.29470   0.20554   0.00000  Uiso   1.00
H168   H     0.27057   0.71465   0.27979   0.00000  Uiso   1.00
H169   H     0.14067   0.57759   0.08462   0.00000  Uiso   1.00
H170   H     0.09549   0.73658   0.04239   0.00000  Uiso   1.00
H171   H     0.08515   0.39416   0.08294   0.00000  Uiso   1.00
H172   H     0.24970   0.59332   0.11815   0.00000  Uiso   1.00
H173   H     0.03222   0.92648   0.01195   0.00000  Uiso   1.00
H174   H     0.01044   0.20447   0.09745   0.00000  Uiso   1.00
H175   H     0.35742   0.62442   0.17170   0.00000  Uiso   1.00
O176   O     0.95723   0.07805   0.04049   0.00000  Uiso   1.00
O177   O     0.92867   0.13081   0.15267   0.00000  Uiso   1.00
O178   O     0.38389   0.68177   0.25008   0.00000  Uiso   1.00
N179   N     0.97202   0.97366   0.10040   0.00000  Uiso   1.00
N180   N     0.95166   0.29864   0.18033   0.00000  Uiso   1.00
N181   N     0.27605   0.69123   0.24975   0.00000  Uiso   1.00
N182   N     0.01875   0.92511   0.04223   0.00000  Uiso   1.00
N183   N     0.99839   0.25009   0.12217   0.00000  Uiso   1.00
N184   N     0.32278   0.64268   0.19159   0.00000  Uiso   1.00
C185   C     0.43753   0.65884   0.68194   0.00000  Uiso   1.00
C186   C     0.45103   0.73375   0.64526   0.00000  Uiso   1.00
C187   C     0.48842   0.82377   0.64681   0.00000  Uiso   1.00
C188   C     0.49491   0.88175   0.60985   0.00000  Uiso   1.00
C189   C     0.52044   0.00275   0.55853   0.00000  Uiso   1.00
C190   C     0.45665   0.54771   0.66728   0.00000  Uiso   1.00
C191   C     0.49876   0.48131   0.68736   0.00000  Uiso   1.00
C192   C     0.50998   0.38268   0.66894   0.00000  Uiso   1.00
C193   C     0.54420   0.21482   0.65184   0.00000  Uiso   1.00
C194   C     0.36725   0.65593   0.68641   0.00000  Uiso   1.00
C195   C     0.33419   0.68048   0.72258   0.00000  Uiso   1.00
C196   C     0.27014   0.67294   0.72027   0.00000  Uiso   1.00
C197   C     0.16555   0.67310   0.73287   0.00000  Uiso   1.00
C198   C     0.38257   0.60174   0.61355   0.00000  Uiso   1.00
C199   C     0.42118   0.70273   0.60811   0.00000  Uiso   1.00
C200   C     0.42761   0.76060   0.57113   0.00000  Uiso   1.00
C201   C     0.46501   0.85069   0.57263   0.00000  Uiso   1.00
C202   C     0.42680   0.51670   0.63013   0.00000  Uiso   1.00
C203   C     0.43796   0.41814   0.61168   0.00000  Uiso   1.00
C204   C     0.48007   0.35161   0.63172   0.00000  Uiso   1.00
C205   C     0.33740   0.62492   0.64926   0.00000  Uiso   1.00
C206   C     0.27339   0.61732   0.64690   0.00000  Uiso   1.00
C207   C     0.24023   0.64187   0.68305   0.00000  Uiso   1.00
H208   H     0.46077   0.68298   0.71087   0.00000  Uiso   1.00
H209   H     0.51151   0.84774   0.67556   0.00000  Uiso   1.00
H210   H     0.52185   0.50533   0.71611   0.00000  Uiso   1.00
H211   H     0.35730   0.70448   0.75132   0.00000  Uiso   1.00
H212   H     0.55463   0.01670   0.62004   0.00000  Uiso   1.00
H213   H     0.57640   0.29470   0.70554   0.00000  Uiso   1.00
H214   H     0.22943   0.71465   0.77979   0.00000  Uiso   1.00
H215   H     0.35933   0.57759   0.58462   0.00000  Uiso   1.00
H216   H     0.40451   0.73658   0.54239   0.00000  Uiso   1.00
H217   H     0.41485   0.39416   0.58294   0.00000  Uiso   1.00
H218   H     0.25030   0.59332   0.61815   0.00000  Uiso   1.00
H219   H     0.46778   0.92648   0.51195   0.00000  Uiso   1.00
H220   H     0.48956   0.20447   0.59745   0.00000  Uiso   1.00
H221   H     0.14258   0.62442   0.67170   0.00000  Uiso   1.00
O222   O     0.54277   0.07805   0.54049   0.00000  Uiso   1.00
O223   O     0.57133   0.13081   0.65267   0.00000  Uiso   1.00
O224   O     0.11611   0.68177   0.75008   0.00000  Uiso   1.00
N225   N     0.52798   0.97366   0.60040   0.00000  Uiso   1.00
N226   N     0.54834   0.29864   0.68033   0.00000  Uiso   1.00
N227   N     0.22395   0.69123   0.74975   0.00000  Uiso   1.00
N228   N     0.48125   0.92511   0.54223   0.00000  Uiso   1.00
N229   N     0.50161   0.25009   0.62217   0.00000  Uiso   1.00
N230   N     0.17722   0.64268   0.69159   0.00000  Uiso   1.00
C231   C     0.06247   0.34116   0.68194   0.00000  Uiso   1.00
C232   C     0.04897   0.26625   0.64526   0.00000  Uiso   1.00
C233   C     0.01158   0.17623   0.64681   0.00000  Uiso   1.00
C234   C     0.00509   0.11825   0.60985   0.00000  Uiso   1.00
C235   C     0.97956   0.99725   0.55853   0.00000  Uiso   1.00
C236   C     0.04335   0.45229   0.66728   0.00000  Uiso   1.00
C237   C     0.00124   0.51869   0.68736   0.00000  Uiso   1.00
C238   C     0.99002   0.61732   0.66894   0.00000  Uiso   1.00
C239   C     0.95580   0.78518   0.65184   0.00000  Uiso   1.00
C240   C     0.13275   0.34407   0.68641   0.00000  Uiso   1.00
C241   C     0.16581   0.31952   0.72258   0.00000  Uiso   1.00
C242   C     0.22986   0.32706   0.72027   0.00000  Uiso   1.00
C243   C     0.33445   0.32690   0.73287   0.00000  Uiso   1.00
C244   C     0.11743   0.39826   0.61355   0.00000  Uiso   1.00
C245   C     0.07882   0.29727   0.60811   0.00000  Uiso   1.00
C246   C     0.07239   0.23940   0.57113   0.00000  Uiso   1.00
C247   C     0.03499   0.14931   0.57263   0.00000  Uiso   1.00
C248   C     0.07320   0.48330   0.63013   0.00000  Uiso   1.00
C249   C     0.06204   0.58186   0.61168   0.00000  Uiso   1.00
C250   C     0.01993   0.64839   0.63172   0.00000  Uiso   1.00
C251   C     0.16260   0.37508   0.64926   0.00000  Uiso   1.00
C252   C     0.22661   0.38268   0.64690   0.00000  Uiso   1.00
C253   C     0.25977   0.35813   0.68305   0.00000  Uiso   1.00
H254   H     0.03923   0.31702   0.71087   0.00000  Uiso   1.00
H255   H     0.98849   0.15226   0.67556   0.00000  Uiso   1.00
H256   H     0.97815   0.49467   0.71611   0.00000  Uiso   1.00
H257   H     0.14270   0.29552   0.75132   0.00000  Uiso   1.00
H258   H     0.94537   0.98330   0.62004   0.00000  Uiso   1.00
H259   H     0.92360   0.70530   0.70554   0.00000  Uiso   1.00
H260   H     0.27057   0.28535   0.77979   0.00000  Uiso   1.00
H261   H     0.14067   0.42241   0.58462   0.00000  Uiso   1.00
H262   H     0.09549   0.26342   0.54239   0.00000  Uiso   1.00
H263   H     0.08515   0.60584   0.58294   0.00000  Uiso   1.00
H264   H     0.24970   0.40668   0.61815   0.00000  Uiso   1.00
H265   H     0.03222   0.07352   0.51195   0.00000  Uiso   1.00
H266   H     0.01044   0.79553   0.59745   0.00000  Uiso   1.00
H267   H     0.35742   0.37558   0.67170   0.00000  Uiso   1.00
O268   O     0.95723   0.92195   0.54049   0.00000  Uiso   1.00
O269   O     0.92867   0.86919   0.65267   0.00000  Uiso   1.00
O270   O     0.38389   0.31823   0.75008   0.00000  Uiso   1.00
N271   N     0.97202   0.02634   0.60040   0.00000  Uiso   1.00
N272   N     0.95166   0.70136   0.68033   0.00000  Uiso   1.00
N273   N     0.27605   0.30877   0.74975   0.00000  Uiso   1.00
N274   N     0.01875   0.07489   0.54223   0.00000  Uiso   1.00
N275   N     0.99839   0.74991   0.62217   0.00000  Uiso   1.00
N276   N     0.32278   0.35732   0.69159   0.00000  Uiso   1.00
C277   C     0.56247   0.65884   0.81806   0.00000  Uiso   1.00
C278   C     0.54897   0.73375   0.85474   0.00000  Uiso   1.00
C279   C     0.51158   0.82377   0.85319   0.00000  Uiso   1.00
C280   C     0.50509   0.88175   0.89015   0.00000  Uiso   1.00
C281   C     0.47956   0.00275   0.94147   0.00000  Uiso   1.00
C282   C     0.54335   0.54771   0.83272   0.00000  Uiso   1.00
C283   C     0.50124   0.48131   0.81264   0.00000  Uiso   1.00
C284   C     0.49002   0.38268   0.83106   0.00000  Uiso   1.00
C285   C     0.45580   0.21482   0.84816   0.00000  Uiso   1.00
C286   C     0.63275   0.65593   0.81359   0.00000  Uiso   1.00
C287   C     0.66581   0.68048   0.77742   0.00000  Uiso   1.00
C288   C     0.72986   0.67294   0.77973   0.00000  Uiso   1.00
C289   C     0.83445   0.67310   0.76713   0.00000  Uiso   1.00
C290   C     0.61743   0.60174   0.88645   0.00000  Uiso   1.00
C291   C     0.57882   0.70273   0.89189   0.00000  Uiso   1.00
C292   C     0.57239   0.76060   0.92887   0.00000  Uiso   1.00
C293   C     0.53499   0.85069   0.92737   0.00000  Uiso   1.00
C294   C     0.57320   0.51670   0.86987   0.00000  Uiso   1.00
C295   C     0.56204   0.41814   0.88832   0.00000  Uiso   1.00
C296   C     0.51993   0.35161   0.86828   0.00000  Uiso   1.00
C297   C     0.66260   0.62492   0.85074   0.00000  Uiso   1.00
C298   C     0.72661   0.61732   0.85310   0.00000  Uiso   1.00
C299   C     0.75977   0.64187   0.81695   0.00000  Uiso   1.00
H300   H     0.53923   0.68298   0.78913   0.00000  Uiso   1.00
H301   H     0.48849   0.84774   0.82444   0.00000  Uiso   1.00
H302   H     0.47815   0.50533   0.78389   0.00000  Uiso   1.00
H303   H     0.64270   0.70448   0.74868   0.00000  Uiso   1.00
H304   H     0.44537   0.01670   0.87996   0.00000  Uiso   1.00
H305   H     0.42360   0.29470   0.79446   0.00000  Uiso   1.00
H306   H     0.77057   0.71465   0.72021   0.00000  Uiso   1.00
H307   H     0.64067   0.57759   0.91538   0.00000  Uiso   1.00
H308   H     0.59549   0.73658   0.95761   0.00000  Uiso   1.00
H309   H     0.58515   0.39416   0.91706   0.00000  Uiso   1.00
H310   H     0.74970   0.59332   0.88185   0.00000  Uiso   1.00
H311   H     0.53222   0.92648   0.98805   0.00000  Uiso   1.00
H312   H     0.51044   0.20447   0.90255   0.00000  Uiso   1.00
H313   H     0.85742   0.62442   0.82830   0.00000  Uiso   1.00
O314   O     0.45723   0.07805   0.95951   0.00000  Uiso   1.00
O315   O     0.42867   0.13081   0.84733   0.00000  Uiso   1.00
O316   O     0.88389   0.68177   0.74992   0.00000  Uiso   1.00
N317   N     0.47202   0.97366   0.89960   0.00000  Uiso   1.00
N318   N     0.45166   0.29864   0.81967   0.00000  Uiso   1.00
N319   N     0.77605   0.69123   0.75025   0.00000  Uiso   1.00
N320   N     0.51875   0.92511   0.95777   0.00000  Uiso   1.00
N321   N     0.49839   0.25009   0.87783   0.00000  Uiso   1.00
N322   N     0.82278   0.64268   0.80841   0.00000  Uiso   1.00
C323   C     0.93753   0.34116   0.81806   0.00000  Uiso   1.00
C324   C     0.95103   0.26625   0.85474   0.00000  Uiso   1.00
C325   C     0.98842   0.17623   0.85319   0.00000  Uiso   1.00
C326   C     0.99491   0.11825   0.89015   0.00000  Uiso   1.00
C327   C     0.02044   0.99725   0.94147   0.00000  Uiso   1.00
C328   C     0.95665   0.45229   0.83272   0.00000  Uiso   1.00
C329   C     0.99876   0.51869   0.81264   0.00000  Uiso   1.00
C330   C     0.00998   0.61732   0.83106   0.00000  Uiso   1.00
C331   C     0.04420   0.78518   0.84816   0.00000  Uiso   1.00
C332   C     0.86725   0.34407   0.81359   0.00000  Uiso   1.00
C333   C     0.83419   0.31952   0.77742   0.00000  Uiso   1.00
C334   C     0.77014   0.32706   0.77973   0.00000  Uiso   1.00
C335   C     0.66555   0.32690   0.76713   0.00000  Uiso   1.00
C336   C     0.88257   0.39826   0.88645   0.00000  Uiso   1.00
C337   C     0.92118   0.29727   0.89189   0.00000  Uiso   1.00
C338   C     0.92761   0.23940   0.92887   0.00000  Uiso   1.00
C339   C     0.96501   0.14931   0.92737   0.00000  Uiso   1.00
C340   C     0.92680   0.48330   0.86987   0.00000  Uiso   1.00
C341   C     0.93796   0.58186   0.88832   0.00000  Uiso   1.00
C342   C     0.98007   0.64839   0.86828   0.00000  Uiso   1.00
C343   C     0.83740   0.37508   0.85074   0.00000  Uiso   1.00
C344   C     0.77339   0.38268   0.85310   0.00000  Uiso   1.00
C345   C     0.74023   0.35813   0.81695   0.00000  Uiso   1.00
H346   H     0.96077   0.31702   0.78913   0.00000  Uiso   1.00
H347   H     0.01151   0.15226   0.82444   0.00000  Uiso   1.00
H348   H     0.02185   0.49467   0.78389   0.00000  Uiso   1.00
H349   H     0.85730   0.29552   0.74868   0.00000  Uiso   1.00
H350   H     0.05463   0.98330   0.87996   0.00000  Uiso   1.00
H351   H     0.07640   0.70530   0.79446   0.00000  Uiso   1.00
H352   H     0.72943   0.28535   0.72021   0.00000  Uiso   1.00
H353   H     0.85933   0.42241   0.91538   0.00000  Uiso   1.00
H354   H     0.90451   0.26342   0.95761   0.00000  Uiso   1.00
H355   H     0.91485   0.60584   0.91706   0.00000  Uiso   1.00
H356   H     0.75030   0.40668   0.88185   0.00000  Uiso   1.00
H357   H     0.96778   0.07352   0.98805   0.00000  Uiso   1.00
H358   H     0.98956   0.79553   0.90255   0.00000  Uiso   1.00
H359   H     0.64258   0.37558   0.82830   0.00000  Uiso   1.00
O360   O     0.04277   0.92195   0.95951   0.00000  Uiso   1.00
O361   O     0.07133   0.86919   0.84733   0.00000  Uiso   1.00
O362   O     0.61611   0.31823   0.74992   0.00000  Uiso   1.00
N363   N     0.02798   0.02634   0.89960   0.00000  Uiso   1.00
N364   N     0.04834   0.70136   0.81967   0.00000  Uiso   1.00
N365   N     0.72395   0.30877   0.75025   0.00000  Uiso   1.00
N366   N     0.98125   0.07489   0.95777   0.00000  Uiso   1.00
N367   N     0.00161   0.74991   0.87783   0.00000  Uiso   1.00
N368   N     0.67722   0.35732   0.80841   0.00000  Uiso   1.00
