data_job_01387
_audit_creation_date              2018-12-19
_audit_creation_method            'Materials Studio'
_symmetry_space_group_name_H-M    'P1'
_symmetry_Int_Tables_number       1
_symmetry_cell_setting            triclinic
loop_
_symmetry_equiv_pos_as_xyz
  x,y,z
_cell_length_a                    12.3410
_cell_length_b                    12.3410
_cell_length_c                    58.8866
_cell_angle_alpha                 90.0000
_cell_angle_beta                  90.0000
_cell_angle_gamma                 120.0000
loop_
_atom_site_label
_atom_site_type_symbol
_atom_site_fract_x
_atom_site_fract_y
_atom_site_fract_z
_atom_site_U_iso_or_equiv
_atom_site_adp_type
_atom_site_occupancy
C1     C     0.78672   0.16991   0.52106   0.00000  Uiso   1.00
C2     C     0.66705   0.15541   0.53148   0.00000  Uiso   1.00
C3     C     0.54922   0.04976   0.53004   0.00000  Uiso   1.00
C4     C     0.45169   0.05508   0.54072   0.00000  Uiso   1.00
C5     C     0.26286   0.01628   0.55512   0.00000  Uiso   1.00
C6     C     0.83866   0.28525   0.50586   0.00000  Uiso   1.00
C7     C     0.86513   0.28877   0.48288   0.00000  Uiso   1.00
C8     C     0.91209   0.40339   0.47200   0.00000  Uiso   1.00
C9     C     0.98978   0.56619   0.44662   0.00000  Uiso   1.00
C10    C     0.87936   0.20430   0.54060   0.00000  Uiso   1.00
C11    C     0.94007   0.13977   0.54681   0.00000  Uiso   1.00
C12    C     0.02131   0.18626   0.56517   0.00000  Uiso   1.00
C13    C     0.16218   0.22337   0.59372   0.00000  Uiso   1.00
C14    C     0.82307   0.36722   0.54260   0.00000  Uiso   1.00
C15    C     0.68680   0.26258   0.54318   0.00000  Uiso   1.00
C16    C     0.58943   0.26806   0.55387   0.00000  Uiso   1.00
C17    C     0.47147   0.16244   0.55245   0.00000  Uiso   1.00
C18    C     0.85841   0.39242   0.51756   0.00000  Uiso   1.00
C19    C     0.90535   0.50707   0.50671   0.00000  Uiso   1.00
C20    C     0.93187   0.51076   0.48372   0.00000  Uiso   1.00
C21    C     0.89910   0.31147   0.55230   0.00000  Uiso   1.00
C22    C     0.98028   0.35807   0.57065   0.00000  Uiso   1.00
C23    C     0.04109   0.29363   0.57689   0.00000  Uiso   1.00
H24    H     0.77135   0.08648   0.51195   0.00000  Uiso   1.00
H25    H     0.53397   0.96684   0.52098   0.00000  Uiso   1.00
H26    H     0.84985   0.20582   0.47383   0.00000  Uiso   1.00
H27    H     0.92476   0.05684   0.53775   0.00000  Uiso   1.00
H28    H     0.27949   0.88148   0.53615   0.00000  Uiso   1.00
H29    H     0.94558   0.38538   0.43673   0.00000  Uiso   1.00
H30    H     0.10355   0.07124   0.57152   0.00000  Uiso   1.00
H31    H     0.83845   0.45067   0.55171   0.00000  Uiso   1.00
H32    H     0.60474   0.35101   0.56293   0.00000  Uiso   1.00
H33    H     0.92062   0.58999   0.51577   0.00000  Uiso   1.00
H34    H     0.99553   0.44101   0.57970   0.00000  Uiso   1.00
H35    H     0.33693   0.19329   0.57019   0.00000  Uiso   1.00
H36    H     0.00303   0.69720   0.47077   0.00000  Uiso   1.00
H37    H     0.16099   0.38305   0.60557   0.00000  Uiso   1.00
O38    O     0.15325   0.96528   0.55982   0.00000  Uiso   1.00
O39    O     0.02716   0.62638   0.42939   0.00000  Uiso   1.00
O40    O     0.23441   0.21423   0.60624   0.00000  Uiso   1.00
N41    N     0.32508   0.96853   0.54262   0.00000  Uiso   1.00
N42    N     0.94782   0.43965   0.44967   0.00000  Uiso   1.00
N43    N     0.09554   0.14597   0.57569   0.00000  Uiso   1.00
N44    N     0.35599   0.13632   0.56094   0.00000  Uiso   1.00
N45    N     0.97873   0.60743   0.46799   0.00000  Uiso   1.00
N46    N     0.12645   0.31375   0.59401   0.00000  Uiso   1.00
C47    C     0.83009   0.61681   0.18773   0.00000  Uiso   1.00
C48    C     0.84459   0.51165   0.19815   0.00000  Uiso   1.00
C49    C     0.95024   0.49946   0.19671   0.00000  Uiso   1.00
C50    C     0.94492   0.39662   0.20739   0.00000  Uiso   1.00
C51    C     0.98372   0.24659   0.22178   0.00000  Uiso   1.00
C52    C     0.71475   0.55342   0.17253   0.00000  Uiso   1.00
C53    C     0.71123   0.57637   0.14955   0.00000  Uiso   1.00
C54    C     0.59661   0.50870   0.13866   0.00000  Uiso   1.00
C55    C     0.43381   0.42358   0.11329   0.00000  Uiso   1.00
C56    C     0.79570   0.67506   0.20726   0.00000  Uiso   1.00
C57    C     0.86023   0.80029   0.21348   0.00000  Uiso   1.00
C58    C     0.81374   0.83505   0.23184   0.00000  Uiso   1.00
C59    C     0.77663   0.93880   0.26039   0.00000  Uiso   1.00
C60    C     0.63278   0.45585   0.20927   0.00000  Uiso   1.00
C61    C     0.73742   0.42422   0.20985   0.00000  Uiso   1.00
C62    C     0.73194   0.32137   0.22054   0.00000  Uiso   1.00
C63    C     0.83756   0.30903   0.21911   0.00000  Uiso   1.00
C64    C     0.60758   0.46599   0.18423   0.00000  Uiso   1.00
C65    C     0.49293   0.39828   0.17338   0.00000  Uiso   1.00
C66    C     0.48924   0.42111   0.15039   0.00000  Uiso   1.00
C67    C     0.68853   0.58763   0.21896   0.00000  Uiso   1.00
C68    C     0.64193   0.62220   0.23731   0.00000  Uiso   1.00
C69    C     0.70637   0.74746   0.24356   0.00000  Uiso   1.00
H70    H     0.91352   0.68488   0.17862   0.00000  Uiso   1.00
H71    H     0.03316   0.56713   0.18765   0.00000  Uiso   1.00
H72    H     0.79418   0.64404   0.14050   0.00000  Uiso   1.00
H73    H     0.94316   0.86792   0.20442   0.00000  Uiso   1.00
H74    H     0.11852   0.39801   0.20281   0.00000  Uiso   1.00
H75    H     0.61462   0.56019   0.10339   0.00000  Uiso   1.00
H76    H     0.92876   0.03231   0.23819   0.00000  Uiso   1.00
H77    H     0.54933   0.38778   0.21838   0.00000  Uiso   1.00
H78    H     0.64899   0.25373   0.22959   0.00000  Uiso   1.00
H79    H     0.41001   0.33063   0.18244   0.00000  Uiso   1.00
H80    H     0.55899   0.55452   0.24637   0.00000  Uiso   1.00
H81    H     0.80671   0.14363   0.23686   0.00000  Uiso   1.00
H82    H     0.30280   0.30583   0.13744   0.00000  Uiso   1.00
H83    H     0.61695   0.77794   0.27223   0.00000  Uiso   1.00
O84    O     0.03472   0.18798   0.22649   0.00000  Uiso   1.00
O85    O     0.37362   0.40078   0.09606   0.00000  Uiso   1.00
O86    O     0.78577   0.02018   0.27291   0.00000  Uiso   1.00
N87    N     0.03147   0.35655   0.20929   0.00000  Uiso   1.00
N88    N     0.56035   0.50817   0.11634   0.00000  Uiso   1.00
N89    N     0.85403   0.94957   0.24236   0.00000  Uiso   1.00
N90    N     0.86368   0.21968   0.22761   0.00000  Uiso   1.00
N91    N     0.39257   0.37130   0.13466   0.00000  Uiso   1.00
N92    N     0.68625   0.81269   0.26068   0.00000  Uiso   1.00
C93    C     0.38319   0.21328   0.85439   0.00000  Uiso   1.00
C94    C     0.48835   0.33295   0.86482   0.00000  Uiso   1.00
C95    C     0.50054   0.45078   0.86337   0.00000  Uiso   1.00
C96    C     0.60338   0.54831   0.87406   0.00000  Uiso   1.00
C97    C     0.75341   0.73714   0.88845   0.00000  Uiso   1.00
C98    C     0.44658   0.16134   0.83920   0.00000  Uiso   1.00
C99    C     0.42363   0.13487   0.81621   0.00000  Uiso   1.00
C100   C     0.49130   0.08791   0.80533   0.00000  Uiso   1.00
C101   C     0.57642   0.01022   0.77995   0.00000  Uiso   1.00
C102   C     0.32494   0.12064   0.87393   0.00000  Uiso   1.00
C103   C     0.19971   0.05993   0.88015   0.00000  Uiso   1.00
C104   C     0.16495   0.97869   0.89850   0.00000  Uiso   1.00
C105   C     0.06120   0.83782   0.92705   0.00000  Uiso   1.00
C106   C     0.54415   0.17693   0.87594   0.00000  Uiso   1.00
C107   C     0.57578   0.31320   0.87652   0.00000  Uiso   1.00
C108   C     0.67863   0.41057   0.88721   0.00000  Uiso   1.00
C109   C     0.69097   0.52853   0.88578   0.00000  Uiso   1.00
C110   C     0.53401   0.14159   0.85090   0.00000  Uiso   1.00
C111   C     0.60172   0.09465   0.84005   0.00000  Uiso   1.00
C112   C     0.57889   0.06813   0.81705   0.00000  Uiso   1.00
C113   C     0.41237   0.10090   0.88563   0.00000  Uiso   1.00
C114   C     0.37780   0.01972   0.90398   0.00000  Uiso   1.00
C115   C     0.25254   0.95891   0.91023   0.00000  Uiso   1.00
H116   H     0.31512   0.22865   0.84528   0.00000  Uiso   1.00
H117   H     0.43287   0.46603   0.85431   0.00000  Uiso   1.00
H118   H     0.35596   0.15015   0.80716   0.00000  Uiso   1.00
H119   H     0.13208   0.07524   0.87109   0.00000  Uiso   1.00
H120   H     0.60199   0.72051   0.86948   0.00000  Uiso   1.00
H121   H     0.43981   0.05442   0.77006   0.00000  Uiso   1.00
H122   H     0.96769   0.89645   0.90486   0.00000  Uiso   1.00
H123   H     0.61222   0.16155   0.88505   0.00000  Uiso   1.00
H124   H     0.74627   0.39526   0.89626   0.00000  Uiso   1.00
H125   H     0.66937   0.07938   0.84911   0.00000  Uiso   1.00
H126   H     0.44548   0.00447   0.91303   0.00000  Uiso   1.00
H127   H     0.85637   0.66307   0.90352   0.00000  Uiso   1.00
H128   H     0.69417   0.99697   0.80410   0.00000  Uiso   1.00
H129   H     0.22206   0.83901   0.93890   0.00000  Uiso   1.00
O130   O     0.81202   0.84675   0.89315   0.00000  Uiso   1.00
O131   O     0.59922   0.97284   0.76272   0.00000  Uiso   1.00
O132   O     0.97982   0.76559   0.93957   0.00000  Uiso   1.00
N133   N     0.64345   0.67492   0.87596   0.00000  Uiso   1.00
N134   N     0.49183   0.05218   0.78300   0.00000  Uiso   1.00
N135   N     0.05043   0.90446   0.90902   0.00000  Uiso   1.00
N136   N     0.78032   0.64401   0.89428   0.00000  Uiso   1.00
N137   N     0.62870   0.02127   0.80132   0.00000  Uiso   1.00
N138   N     0.18731   0.87355   0.92734   0.00000  Uiso   1.00
C139   C     0.21328   0.83009   0.02106   0.00000  Uiso   1.00
C140   C     0.33295   0.84459   0.03148   0.00000  Uiso   1.00
C141   C     0.45078   0.95024   0.03004   0.00000  Uiso   1.00
C142   C     0.54831   0.94492   0.04072   0.00000  Uiso   1.00
C143   C     0.73714   0.98372   0.05512   0.00000  Uiso   1.00
C144   C     0.16134   0.71475   0.00586   0.00000  Uiso   1.00
C145   C     0.13487   0.71123   0.98288   0.00000  Uiso   1.00
C146   C     0.08791   0.59661   0.97200   0.00000  Uiso   1.00
C147   C     0.01022   0.43381   0.94662   0.00000  Uiso   1.00
C148   C     0.12064   0.79570   0.04060   0.00000  Uiso   1.00
C149   C     0.05993   0.86023   0.04681   0.00000  Uiso   1.00
C150   C     0.97869   0.81374   0.06517   0.00000  Uiso   1.00
C151   C     0.83782   0.77663   0.09372   0.00000  Uiso   1.00
C152   C     0.17693   0.63278   0.04260   0.00000  Uiso   1.00
C153   C     0.31320   0.73742   0.04318   0.00000  Uiso   1.00
C154   C     0.41057   0.73194   0.05387   0.00000  Uiso   1.00
C155   C     0.52853   0.83756   0.05245   0.00000  Uiso   1.00
C156   C     0.14159   0.60758   0.01756   0.00000  Uiso   1.00
C157   C     0.09465   0.49293   0.00671   0.00000  Uiso   1.00
C158   C     0.06813   0.48924   0.98372   0.00000  Uiso   1.00
C159   C     0.10090   0.68853   0.05230   0.00000  Uiso   1.00
C160   C     0.01972   0.64193   0.07065   0.00000  Uiso   1.00
C161   C     0.95891   0.70637   0.07689   0.00000  Uiso   1.00
H162   H     0.22865   0.91352   0.01195   0.00000  Uiso   1.00
H163   H     0.46603   0.03316   0.02098   0.00000  Uiso   1.00
H164   H     0.15015   0.79418   0.97383   0.00000  Uiso   1.00
H165   H     0.07524   0.94316   0.03775   0.00000  Uiso   1.00
H166   H     0.72051   0.11852   0.03615   0.00000  Uiso   1.00
H167   H     0.05442   0.61462   0.93673   0.00000  Uiso   1.00
H168   H     0.89645   0.92876   0.07152   0.00000  Uiso   1.00
H169   H     0.16155   0.54933   0.05171   0.00000  Uiso   1.00
H170   H     0.39526   0.64899   0.06293   0.00000  Uiso   1.00
H171   H     0.07938   0.41001   0.01577   0.00000  Uiso   1.00
H172   H     0.00447   0.55899   0.07970   0.00000  Uiso   1.00
H173   H     0.66307   0.80671   0.07019   0.00000  Uiso   1.00
H174   H     0.99697   0.30280   0.97077   0.00000  Uiso   1.00
H175   H     0.83901   0.61695   0.10557   0.00000  Uiso   1.00
O176   O     0.84675   0.03472   0.05982   0.00000  Uiso   1.00
O177   O     0.97284   0.37362   0.92939   0.00000  Uiso   1.00
O178   O     0.76559   0.78577   0.10624   0.00000  Uiso   1.00
N179   N     0.67492   0.03147   0.04262   0.00000  Uiso   1.00
N180   N     0.05218   0.56035   0.94967   0.00000  Uiso   1.00
N181   N     0.90446   0.85403   0.07569   0.00000  Uiso   1.00
N182   N     0.64401   0.86368   0.06094   0.00000  Uiso   1.00
N183   N     0.02127   0.39257   0.96799   0.00000  Uiso   1.00
N184   N     0.87355   0.68625   0.09401   0.00000  Uiso   1.00
C185   C     0.16991   0.38319   0.68773   0.00000  Uiso   1.00
C186   C     0.15541   0.48835   0.69815   0.00000  Uiso   1.00
C187   C     0.04976   0.50054   0.69671   0.00000  Uiso   1.00
C188   C     0.05508   0.60338   0.70739   0.00000  Uiso   1.00
C189   C     0.01628   0.75341   0.72178   0.00000  Uiso   1.00
C190   C     0.28525   0.44658   0.67253   0.00000  Uiso   1.00
C191   C     0.28877   0.42363   0.64955   0.00000  Uiso   1.00
C192   C     0.40339   0.49130   0.63866   0.00000  Uiso   1.00
C193   C     0.56619   0.57642   0.61329   0.00000  Uiso   1.00
C194   C     0.20430   0.32494   0.70726   0.00000  Uiso   1.00
C195   C     0.13977   0.19971   0.71348   0.00000  Uiso   1.00
C196   C     0.18626   0.16495   0.73184   0.00000  Uiso   1.00
C197   C     0.22337   0.06120   0.76039   0.00000  Uiso   1.00
C198   C     0.36722   0.54415   0.70927   0.00000  Uiso   1.00
C199   C     0.26258   0.57578   0.70985   0.00000  Uiso   1.00
C200   C     0.26806   0.67863   0.72054   0.00000  Uiso   1.00
C201   C     0.16244   0.69097   0.71911   0.00000  Uiso   1.00
C202   C     0.39242   0.53401   0.68423   0.00000  Uiso   1.00
C203   C     0.50707   0.60172   0.67338   0.00000  Uiso   1.00
C204   C     0.51076   0.57889   0.65039   0.00000  Uiso   1.00
C205   C     0.31147   0.41237   0.71896   0.00000  Uiso   1.00
C206   C     0.35807   0.37780   0.73731   0.00000  Uiso   1.00
C207   C     0.29363   0.25254   0.74356   0.00000  Uiso   1.00
H208   H     0.08648   0.31512   0.67862   0.00000  Uiso   1.00
H209   H     0.96684   0.43287   0.68765   0.00000  Uiso   1.00
H210   H     0.20582   0.35596   0.64050   0.00000  Uiso   1.00
H211   H     0.05684   0.13208   0.70442   0.00000  Uiso   1.00
H212   H     0.88148   0.60199   0.70281   0.00000  Uiso   1.00
H213   H     0.38538   0.43981   0.60339   0.00000  Uiso   1.00
H214   H     0.07124   0.96769   0.73819   0.00000  Uiso   1.00
H215   H     0.45067   0.61222   0.71838   0.00000  Uiso   1.00
H216   H     0.35101   0.74627   0.72959   0.00000  Uiso   1.00
H217   H     0.58999   0.66937   0.68244   0.00000  Uiso   1.00
H218   H     0.44101   0.44548   0.74637   0.00000  Uiso   1.00
H219   H     0.19329   0.85637   0.73686   0.00000  Uiso   1.00
H220   H     0.69720   0.69417   0.63744   0.00000  Uiso   1.00
H221   H     0.38305   0.22206   0.77223   0.00000  Uiso   1.00
O222   O     0.96528   0.81202   0.72649   0.00000  Uiso   1.00
O223   O     0.62638   0.59922   0.59606   0.00000  Uiso   1.00
O224   O     0.21423   0.97982   0.77291   0.00000  Uiso   1.00
N225   N     0.96853   0.64345   0.70929   0.00000  Uiso   1.00
N226   N     0.43965   0.49183   0.61634   0.00000  Uiso   1.00
N227   N     0.14597   0.05043   0.74236   0.00000  Uiso   1.00
N228   N     0.13632   0.78032   0.72761   0.00000  Uiso   1.00
N229   N     0.60743   0.62870   0.63466   0.00000  Uiso   1.00
N230   N     0.31375   0.18731   0.76068   0.00000  Uiso   1.00
C231   C     0.61681   0.78672   0.35439   0.00000  Uiso   1.00
C232   C     0.51165   0.66705   0.36482   0.00000  Uiso   1.00
C233   C     0.49946   0.54922   0.36337   0.00000  Uiso   1.00
C234   C     0.39662   0.45169   0.37406   0.00000  Uiso   1.00
C235   C     0.24659   0.26286   0.38845   0.00000  Uiso   1.00
C236   C     0.55342   0.83866   0.33920   0.00000  Uiso   1.00
C237   C     0.57637   0.86513   0.31621   0.00000  Uiso   1.00
C238   C     0.50870   0.91209   0.30533   0.00000  Uiso   1.00
C239   C     0.42358   0.98978   0.27995   0.00000  Uiso   1.00
C240   C     0.67506   0.87936   0.37393   0.00000  Uiso   1.00
C241   C     0.80029   0.94007   0.38015   0.00000  Uiso   1.00
C242   C     0.83505   0.02131   0.39850   0.00000  Uiso   1.00
C243   C     0.93880   0.16218   0.42705   0.00000  Uiso   1.00
C244   C     0.45585   0.82307   0.37594   0.00000  Uiso   1.00
C245   C     0.42422   0.68680   0.37652   0.00000  Uiso   1.00
C246   C     0.32137   0.58943   0.38721   0.00000  Uiso   1.00
C247   C     0.30903   0.47147   0.38578   0.00000  Uiso   1.00
C248   C     0.46599   0.85841   0.35090   0.00000  Uiso   1.00
C249   C     0.39828   0.90535   0.34005   0.00000  Uiso   1.00
C250   C     0.42111   0.93187   0.31705   0.00000  Uiso   1.00
C251   C     0.58763   0.89910   0.38563   0.00000  Uiso   1.00
C252   C     0.62220   0.98028   0.40398   0.00000  Uiso   1.00
C253   C     0.74746   0.04109   0.41023   0.00000  Uiso   1.00
H254   H     0.68488   0.77135   0.34528   0.00000  Uiso   1.00
H255   H     0.56713   0.53397   0.35431   0.00000  Uiso   1.00
H256   H     0.64404   0.84985   0.30716   0.00000  Uiso   1.00
H257   H     0.86792   0.92476   0.37109   0.00000  Uiso   1.00
H258   H     0.39801   0.27949   0.36948   0.00000  Uiso   1.00
H259   H     0.56019   0.94558   0.27006   0.00000  Uiso   1.00
H260   H     0.03231   0.10355   0.40486   0.00000  Uiso   1.00
H261   H     0.38778   0.83845   0.38505   0.00000  Uiso   1.00
H262   H     0.25373   0.60474   0.39626   0.00000  Uiso   1.00
H263   H     0.33063   0.92062   0.34911   0.00000  Uiso   1.00
H264   H     0.55452   0.99553   0.41303   0.00000  Uiso   1.00
H265   H     0.14363   0.33693   0.40352   0.00000  Uiso   1.00
H266   H     0.30583   0.00303   0.30410   0.00000  Uiso   1.00
H267   H     0.77794   0.16099   0.43890   0.00000  Uiso   1.00
O268   O     0.18798   0.15325   0.39315   0.00000  Uiso   1.00
O269   O     0.40078   0.02716   0.26272   0.00000  Uiso   1.00
O270   O     0.02018   0.23441   0.43957   0.00000  Uiso   1.00
N271   N     0.35655   0.32508   0.37596   0.00000  Uiso   1.00
N272   N     0.50817   0.94782   0.28300   0.00000  Uiso   1.00
N273   N     0.94957   0.09554   0.40902   0.00000  Uiso   1.00
N274   N     0.21968   0.35599   0.39428   0.00000  Uiso   1.00
N275   N     0.37130   0.97873   0.30132   0.00000  Uiso   1.00
N276   N     0.81269   0.12645   0.42734   0.00000  Uiso   1.00
C277   C     0.16991   0.78672   0.14561   0.00000  Uiso   1.00
C278   C     0.15541   0.66705   0.13518   0.00000  Uiso   1.00
C279   C     0.04976   0.54922   0.13663   0.00000  Uiso   1.00
C280   C     0.05508   0.45169   0.12594   0.00000  Uiso   1.00
C281   C     0.01628   0.26286   0.11155   0.00000  Uiso   1.00
C282   C     0.28525   0.83866   0.16080   0.00000  Uiso   1.00
C283   C     0.28877   0.86513   0.18379   0.00000  Uiso   1.00
C284   C     0.40339   0.91209   0.19467   0.00000  Uiso   1.00
C285   C     0.56619   0.98978   0.22005   0.00000  Uiso   1.00
C286   C     0.20430   0.87936   0.12607   0.00000  Uiso   1.00
C287   C     0.13977   0.94007   0.11985   0.00000  Uiso   1.00
C288   C     0.18626   0.02131   0.10150   0.00000  Uiso   1.00
C289   C     0.22337   0.16218   0.07295   0.00000  Uiso   1.00
C290   C     0.36722   0.82307   0.12406   0.00000  Uiso   1.00
C291   C     0.26258   0.68680   0.12348   0.00000  Uiso   1.00
C292   C     0.26806   0.58943   0.11279   0.00000  Uiso   1.00
C293   C     0.16244   0.47147   0.11422   0.00000  Uiso   1.00
C294   C     0.39242   0.85841   0.14910   0.00000  Uiso   1.00
C295   C     0.50707   0.90535   0.15995   0.00000  Uiso   1.00
C296   C     0.51076   0.93187   0.18295   0.00000  Uiso   1.00
C297   C     0.31147   0.89910   0.11437   0.00000  Uiso   1.00
C298   C     0.35807   0.98028   0.09602   0.00000  Uiso   1.00
C299   C     0.29363   0.04109   0.08977   0.00000  Uiso   1.00
H300   H     0.08648   0.77135   0.15472   0.00000  Uiso   1.00
H301   H     0.96684   0.53397   0.14569   0.00000  Uiso   1.00
H302   H     0.20582   0.84985   0.19284   0.00000  Uiso   1.00
H303   H     0.05684   0.92476   0.12891   0.00000  Uiso   1.00
H304   H     0.88148   0.27949   0.13052   0.00000  Uiso   1.00
H305   H     0.38538   0.94558   0.22994   0.00000  Uiso   1.00
H306   H     0.07124   0.10355   0.09514   0.00000  Uiso   1.00
H307   H     0.45067   0.83845   0.11495   0.00000  Uiso   1.00
H308   H     0.35101   0.60474   0.10374   0.00000  Uiso   1.00
H309   H     0.58999   0.92062   0.15089   0.00000  Uiso   1.00
H310   H     0.44101   0.99553   0.08697   0.00000  Uiso   1.00
H311   H     0.19329   0.33693   0.09648   0.00000  Uiso   1.00
H312   H     0.69720   0.00303   0.19590   0.00000  Uiso   1.00
H313   H     0.38305   0.16099   0.06110   0.00000  Uiso   1.00
O314   O     0.96528   0.15325   0.10685   0.00000  Uiso   1.00
O315   O     0.62638   0.02716   0.23728   0.00000  Uiso   1.00
O316   O     0.21423   0.23441   0.06043   0.00000  Uiso   1.00
N317   N     0.96853   0.32508   0.12404   0.00000  Uiso   1.00
N318   N     0.43965   0.94782   0.21700   0.00000  Uiso   1.00
N319   N     0.14597   0.09554   0.09098   0.00000  Uiso   1.00
N320   N     0.13632   0.35599   0.10572   0.00000  Uiso   1.00
N321   N     0.60743   0.97873   0.19868   0.00000  Uiso   1.00
N322   N     0.31375   0.12645   0.07266   0.00000  Uiso   1.00
C323   C     0.61681   0.83009   0.47894   0.00000  Uiso   1.00
C324   C     0.51165   0.84459   0.46852   0.00000  Uiso   1.00
C325   C     0.49946   0.95024   0.46996   0.00000  Uiso   1.00
C326   C     0.39662   0.94492   0.45928   0.00000  Uiso   1.00
C327   C     0.24659   0.98372   0.44488   0.00000  Uiso   1.00
C328   C     0.55342   0.71475   0.49414   0.00000  Uiso   1.00
C329   C     0.57637   0.71123   0.51712   0.00000  Uiso   1.00
C330   C     0.50870   0.59661   0.52800   0.00000  Uiso   1.00
C331   C     0.42358   0.43381   0.55338   0.00000  Uiso   1.00
C332   C     0.67506   0.79570   0.45940   0.00000  Uiso   1.00
C333   C     0.80029   0.86023   0.45319   0.00000  Uiso   1.00
C334   C     0.83505   0.81374   0.43483   0.00000  Uiso   1.00
C335   C     0.93880   0.77663   0.40628   0.00000  Uiso   1.00
C336   C     0.45585   0.63278   0.45740   0.00000  Uiso   1.00
C337   C     0.42422   0.73742   0.45682   0.00000  Uiso   1.00
C338   C     0.32137   0.73194   0.44613   0.00000  Uiso   1.00
C339   C     0.30903   0.83756   0.44755   0.00000  Uiso   1.00
C340   C     0.46599   0.60758   0.48244   0.00000  Uiso   1.00
C341   C     0.39828   0.49293   0.49329   0.00000  Uiso   1.00
C342   C     0.42111   0.48924   0.51628   0.00000  Uiso   1.00
C343   C     0.58763   0.68853   0.44770   0.00000  Uiso   1.00
C344   C     0.62220   0.64193   0.42935   0.00000  Uiso   1.00
C345   C     0.74746   0.70637   0.42311   0.00000  Uiso   1.00
H346   H     0.68488   0.91352   0.48805   0.00000  Uiso   1.00
H347   H     0.56713   0.03316   0.47902   0.00000  Uiso   1.00
H348   H     0.64404   0.79418   0.52617   0.00000  Uiso   1.00
H349   H     0.86792   0.94316   0.46225   0.00000  Uiso   1.00
H350   H     0.39801   0.11852   0.46385   0.00000  Uiso   1.00
H351   H     0.56019   0.61462   0.56327   0.00000  Uiso   1.00
H352   H     0.03231   0.92876   0.42848   0.00000  Uiso   1.00
H353   H     0.38778   0.54933   0.44829   0.00000  Uiso   1.00
H354   H     0.25373   0.64899   0.43707   0.00000  Uiso   1.00
H355   H     0.33063   0.41001   0.48423   0.00000  Uiso   1.00
H356   H     0.55452   0.55899   0.42030   0.00000  Uiso   1.00
H357   H     0.14363   0.80671   0.42981   0.00000  Uiso   1.00
H358   H     0.30583   0.30280   0.52923   0.00000  Uiso   1.00
H359   H     0.77794   0.61695   0.39443   0.00000  Uiso   1.00
O360   O     0.18798   0.03472   0.44018   0.00000  Uiso   1.00
O361   O     0.40078   0.37362   0.57061   0.00000  Uiso   1.00
O362   O     0.02018   0.78577   0.39376   0.00000  Uiso   1.00
N363   N     0.35655   0.03147   0.45738   0.00000  Uiso   1.00
N364   N     0.50817   0.56035   0.55033   0.00000  Uiso   1.00
N365   N     0.94957   0.85403   0.42431   0.00000  Uiso   1.00
N366   N     0.21968   0.86368   0.43906   0.00000  Uiso   1.00
N367   N     0.37130   0.39257   0.53201   0.00000  Uiso   1.00
N368   N     0.81269   0.68625   0.40599   0.00000  Uiso   1.00
C369   C     0.21328   0.38319   0.81227   0.00000  Uiso   1.00
C370   C     0.33295   0.48835   0.80185   0.00000  Uiso   1.00
C371   C     0.45078   0.50054   0.80329   0.00000  Uiso   1.00
C372   C     0.54831   0.60338   0.79261   0.00000  Uiso   1.00
C373   C     0.73714   0.75341   0.77822   0.00000  Uiso   1.00
C374   C     0.16134   0.44658   0.82747   0.00000  Uiso   1.00
C375   C     0.13487   0.42363   0.85045   0.00000  Uiso   1.00
C376   C     0.08791   0.49130   0.86134   0.00000  Uiso   1.00
C377   C     0.01022   0.57642   0.88671   0.00000  Uiso   1.00
C378   C     0.12064   0.32494   0.79274   0.00000  Uiso   1.00
C379   C     0.05993   0.19971   0.78652   0.00000  Uiso   1.00
C380   C     0.97869   0.16495   0.76816   0.00000  Uiso   1.00
C381   C     0.83782   0.06120   0.73961   0.00000  Uiso   1.00
C382   C     0.17693   0.54415   0.79073   0.00000  Uiso   1.00
C383   C     0.31320   0.57578   0.79015   0.00000  Uiso   1.00
C384   C     0.41057   0.67863   0.77946   0.00000  Uiso   1.00
C385   C     0.52853   0.69097   0.78089   0.00000  Uiso   1.00
C386   C     0.14159   0.53401   0.81577   0.00000  Uiso   1.00
C387   C     0.09465   0.60172   0.82662   0.00000  Uiso   1.00
C388   C     0.06813   0.57889   0.84961   0.00000  Uiso   1.00
C389   C     0.10090   0.41237   0.78104   0.00000  Uiso   1.00
C390   C     0.01972   0.37780   0.76269   0.00000  Uiso   1.00
C391   C     0.95891   0.25254   0.75644   0.00000  Uiso   1.00
H392   H     0.22865   0.31512   0.82138   0.00000  Uiso   1.00
H393   H     0.46603   0.43287   0.81235   0.00000  Uiso   1.00
H394   H     0.15015   0.35596   0.85950   0.00000  Uiso   1.00
H395   H     0.07524   0.13208   0.79558   0.00000  Uiso   1.00
H396   H     0.72051   0.60199   0.79719   0.00000  Uiso   1.00
H397   H     0.05442   0.43981   0.89661   0.00000  Uiso   1.00
H398   H     0.89645   0.96769   0.76181   0.00000  Uiso   1.00
H399   H     0.16155   0.61222   0.78162   0.00000  Uiso   1.00
H400   H     0.39526   0.74627   0.77041   0.00000  Uiso   1.00
H401   H     0.07938   0.66937   0.81756   0.00000  Uiso   1.00
H402   H     0.00447   0.44548   0.75363   0.00000  Uiso   1.00
H403   H     0.66307   0.85637   0.76314   0.00000  Uiso   1.00
H404   H     0.99697   0.69417   0.86256   0.00000  Uiso   1.00
H405   H     0.83901   0.22206   0.72777   0.00000  Uiso   1.00
O406   O     0.84675   0.81202   0.77351   0.00000  Uiso   1.00
O407   O     0.97284   0.59922   0.90394   0.00000  Uiso   1.00
O408   O     0.76559   0.97982   0.72709   0.00000  Uiso   1.00
N409   N     0.67492   0.64345   0.79071   0.00000  Uiso   1.00
N410   N     0.05218   0.49183   0.88366   0.00000  Uiso   1.00
N411   N     0.90446   0.05043   0.75764   0.00000  Uiso   1.00
N412   N     0.64401   0.78032   0.77239   0.00000  Uiso   1.00
N413   N     0.02127   0.62870   0.86534   0.00000  Uiso   1.00
N414   N     0.87355   0.18731   0.73932   0.00000  Uiso   1.00
C415   C     0.83009   0.21328   0.64561   0.00000  Uiso   1.00
C416   C     0.84459   0.33295   0.63518   0.00000  Uiso   1.00
C417   C     0.95024   0.45078   0.63663   0.00000  Uiso   1.00
C418   C     0.94492   0.54831   0.62594   0.00000  Uiso   1.00
C419   C     0.98372   0.73714   0.61155   0.00000  Uiso   1.00
C420   C     0.71475   0.16134   0.66080   0.00000  Uiso   1.00
C421   C     0.71123   0.13487   0.68379   0.00000  Uiso   1.00
C422   C     0.59661   0.08791   0.69467   0.00000  Uiso   1.00
C423   C     0.43381   0.01022   0.72005   0.00000  Uiso   1.00
C424   C     0.79570   0.12064   0.62607   0.00000  Uiso   1.00
C425   C     0.86023   0.05993   0.61985   0.00000  Uiso   1.00
C426   C     0.81374   0.97869   0.60150   0.00000  Uiso   1.00
C427   C     0.77663   0.83782   0.57295   0.00000  Uiso   1.00
C428   C     0.63278   0.17693   0.62406   0.00000  Uiso   1.00
C429   C     0.73742   0.31320   0.62348   0.00000  Uiso   1.00
C430   C     0.73194   0.41057   0.61279   0.00000  Uiso   1.00
C431   C     0.83756   0.52853   0.61422   0.00000  Uiso   1.00
C432   C     0.60758   0.14159   0.64910   0.00000  Uiso   1.00
C433   C     0.49293   0.09465   0.65995   0.00000  Uiso   1.00
C434   C     0.48924   0.06813   0.68295   0.00000  Uiso   1.00
C435   C     0.68853   0.10090   0.61437   0.00000  Uiso   1.00
C436   C     0.64193   0.01972   0.59602   0.00000  Uiso   1.00
C437   C     0.70637   0.95891   0.58977   0.00000  Uiso   1.00
H438   H     0.91352   0.22865   0.65472   0.00000  Uiso   1.00
H439   H     0.03316   0.46603   0.64569   0.00000  Uiso   1.00
H440   H     0.79418   0.15015   0.69284   0.00000  Uiso   1.00
H441   H     0.94316   0.07524   0.62891   0.00000  Uiso   1.00
H442   H     0.11852   0.72051   0.63052   0.00000  Uiso   1.00
H443   H     0.61462   0.05442   0.72994   0.00000  Uiso   1.00
H444   H     0.92876   0.89645   0.59514   0.00000  Uiso   1.00
H445   H     0.54933   0.16155   0.61495   0.00000  Uiso   1.00
H446   H     0.64899   0.39526   0.60374   0.00000  Uiso   1.00
H447   H     0.41001   0.07938   0.65089   0.00000  Uiso   1.00
H448   H     0.55899   0.00447   0.58697   0.00000  Uiso   1.00
H449   H     0.80671   0.66307   0.59648   0.00000  Uiso   1.00
H450   H     0.30280   0.99697   0.69590   0.00000  Uiso   1.00
H451   H     0.61695   0.83901   0.56110   0.00000  Uiso   1.00
O452   O     0.03472   0.84675   0.60685   0.00000  Uiso   1.00
O453   O     0.37362   0.97284   0.73728   0.00000  Uiso   1.00
O454   O     0.78577   0.76559   0.56043   0.00000  Uiso   1.00
N455   N     0.03147   0.67492   0.62404   0.00000  Uiso   1.00
N456   N     0.56035   0.05218   0.71700   0.00000  Uiso   1.00
N457   N     0.85403   0.90446   0.59098   0.00000  Uiso   1.00
N458   N     0.86368   0.64401   0.60572   0.00000  Uiso   1.00
N459   N     0.39257   0.02127   0.69868   0.00000  Uiso   1.00
N460   N     0.68625   0.87355   0.57266   0.00000  Uiso   1.00
C461   C     0.38319   0.16991   0.97894   0.00000  Uiso   1.00
C462   C     0.48835   0.15541   0.96852   0.00000  Uiso   1.00
C463   C     0.50054   0.04976   0.96996   0.00000  Uiso   1.00
C464   C     0.60338   0.05508   0.95928   0.00000  Uiso   1.00
C465   C     0.75341   0.01628   0.94488   0.00000  Uiso   1.00
C466   C     0.44658   0.28525   0.99414   0.00000  Uiso   1.00
C467   C     0.42363   0.28877   0.01712   0.00000  Uiso   1.00
C468   C     0.49130   0.40339   0.02800   0.00000  Uiso   1.00
C469   C     0.57642   0.56619   0.05338   0.00000  Uiso   1.00
C470   C     0.32494   0.20430   0.95940   0.00000  Uiso   1.00
C471   C     0.19971   0.13977   0.95319   0.00000  Uiso   1.00
C472   C     0.16495   0.18626   0.93483   0.00000  Uiso   1.00
C473   C     0.06120   0.22337   0.90628   0.00000  Uiso   1.00
C474   C     0.54415   0.36722   0.95740   0.00000  Uiso   1.00
C475   C     0.57578   0.26258   0.95682   0.00000  Uiso   1.00
C476   C     0.67863   0.26806   0.94613   0.00000  Uiso   1.00
C477   C     0.69097   0.16244   0.94755   0.00000  Uiso   1.00
C478   C     0.53401   0.39242   0.98244   0.00000  Uiso   1.00
C479   C     0.60172   0.50707   0.99329   0.00000  Uiso   1.00
C480   C     0.57889   0.51076   0.01628   0.00000  Uiso   1.00
C481   C     0.41237   0.31147   0.94770   0.00000  Uiso   1.00
C482   C     0.37780   0.35807   0.92935   0.00000  Uiso   1.00
C483   C     0.25254   0.29363   0.92311   0.00000  Uiso   1.00
H484   H     0.31512   0.08648   0.98805   0.00000  Uiso   1.00
H485   H     0.43287   0.96684   0.97902   0.00000  Uiso   1.00
H486   H     0.35596   0.20582   0.02617   0.00000  Uiso   1.00
H487   H     0.13208   0.05684   0.96225   0.00000  Uiso   1.00
H488   H     0.60199   0.88148   0.96385   0.00000  Uiso   1.00
H489   H     0.43981   0.38538   0.06327   0.00000  Uiso   1.00
H490   H     0.96769   0.07124   0.92848   0.00000  Uiso   1.00
H491   H     0.61222   0.45067   0.94829   0.00000  Uiso   1.00
H492   H     0.74627   0.35101   0.93707   0.00000  Uiso   1.00
H493   H     0.66937   0.58999   0.98423   0.00000  Uiso   1.00
H494   H     0.44548   0.44101   0.92030   0.00000  Uiso   1.00
H495   H     0.85637   0.19329   0.92981   0.00000  Uiso   1.00
H496   H     0.69417   0.69720   0.02923   0.00000  Uiso   1.00
H497   H     0.22206   0.38305   0.89443   0.00000  Uiso   1.00
O498   O     0.81202   0.96528   0.94018   0.00000  Uiso   1.00
O499   O     0.59922   0.62638   0.07061   0.00000  Uiso   1.00
O500   O     0.97982   0.21423   0.89376   0.00000  Uiso   1.00
N501   N     0.64345   0.96853   0.95738   0.00000  Uiso   1.00
N502   N     0.49183   0.43965   0.05033   0.00000  Uiso   1.00
N503   N     0.05043   0.14597   0.92431   0.00000  Uiso   1.00
N504   N     0.78032   0.13632   0.93906   0.00000  Uiso   1.00
N505   N     0.62870   0.60743   0.03201   0.00000  Uiso   1.00
N506   N     0.18731   0.31375   0.90599   0.00000  Uiso   1.00
C507   C     0.78672   0.61681   0.31227   0.00000  Uiso   1.00
C508   C     0.66705   0.51165   0.30185   0.00000  Uiso   1.00
C509   C     0.54922   0.49946   0.30329   0.00000  Uiso   1.00
C510   C     0.45169   0.39662   0.29261   0.00000  Uiso   1.00
C511   C     0.26286   0.24659   0.27822   0.00000  Uiso   1.00
C512   C     0.83866   0.55342   0.32747   0.00000  Uiso   1.00
C513   C     0.86513   0.57637   0.35045   0.00000  Uiso   1.00
C514   C     0.91209   0.50870   0.36134   0.00000  Uiso   1.00
C515   C     0.98978   0.42358   0.38671   0.00000  Uiso   1.00
C516   C     0.87936   0.67506   0.29274   0.00000  Uiso   1.00
C517   C     0.94007   0.80029   0.28652   0.00000  Uiso   1.00
C518   C     0.02131   0.83505   0.26816   0.00000  Uiso   1.00
C519   C     0.16218   0.93880   0.23961   0.00000  Uiso   1.00
C520   C     0.82307   0.45585   0.29073   0.00000  Uiso   1.00
C521   C     0.68680   0.42422   0.29015   0.00000  Uiso   1.00
C522   C     0.58943   0.32137   0.27946   0.00000  Uiso   1.00
C523   C     0.47147   0.30903   0.28089   0.00000  Uiso   1.00
C524   C     0.85841   0.46599   0.31577   0.00000  Uiso   1.00
C525   C     0.90535   0.39828   0.32662   0.00000  Uiso   1.00
C526   C     0.93187   0.42111   0.34961   0.00000  Uiso   1.00
C527   C     0.89910   0.58763   0.28104   0.00000  Uiso   1.00
C528   C     0.98028   0.62220   0.26269   0.00000  Uiso   1.00
C529   C     0.04109   0.74746   0.25644   0.00000  Uiso   1.00
H530   H     0.77135   0.68488   0.32138   0.00000  Uiso   1.00
H531   H     0.53397   0.56713   0.31235   0.00000  Uiso   1.00
H532   H     0.84985   0.64404   0.35950   0.00000  Uiso   1.00
H533   H     0.92476   0.86792   0.29558   0.00000  Uiso   1.00
H534   H     0.27949   0.39801   0.29719   0.00000  Uiso   1.00
H535   H     0.94558   0.56019   0.39661   0.00000  Uiso   1.00
H536   H     0.10355   0.03231   0.26181   0.00000  Uiso   1.00
H537   H     0.83845   0.38778   0.28162   0.00000  Uiso   1.00
H538   H     0.60474   0.25373   0.27041   0.00000  Uiso   1.00
H539   H     0.92062   0.33063   0.31756   0.00000  Uiso   1.00
H540   H     0.99553   0.55452   0.25363   0.00000  Uiso   1.00
H541   H     0.33693   0.14363   0.26314   0.00000  Uiso   1.00
H542   H     0.00303   0.30583   0.36256   0.00000  Uiso   1.00
H543   H     0.16099   0.77794   0.22777   0.00000  Uiso   1.00
O544   O     0.15325   0.18798   0.27351   0.00000  Uiso   1.00
O545   O     0.02716   0.40078   0.40394   0.00000  Uiso   1.00
O546   O     0.23441   0.02018   0.22709   0.00000  Uiso   1.00
N547   N     0.32508   0.35655   0.29071   0.00000  Uiso   1.00
N548   N     0.94782   0.50817   0.38366   0.00000  Uiso   1.00
N549   N     0.09554   0.94957   0.25764   0.00000  Uiso   1.00
N550   N     0.35599   0.21968   0.27239   0.00000  Uiso   1.00
N551   N     0.97873   0.37130   0.36534   0.00000  Uiso   1.00
N552   N     0.12645   0.81269   0.23932   0.00000  Uiso   1.00
