data_job_06844
_audit_creation_date              2018-12-19
_audit_creation_method            'Materials Studio'
_symmetry_space_group_name_H-M    'P1'
_symmetry_Int_Tables_number       1
_symmetry_cell_setting            triclinic
loop_
_symmetry_equiv_pos_as_xyz
  x,y,z
_cell_length_a                    20.9689
_cell_length_b                    21.3873
_cell_length_c                    22.4558
_cell_angle_alpha                 63.4876
_cell_angle_beta                  101.9441
_cell_angle_gamma                 102.0890
loop_
_atom_site_label
_atom_site_type_symbol
_atom_site_fract_x
_atom_site_fract_y
_atom_site_fract_z
_atom_site_U_iso_or_equiv
_atom_site_adp_type
_atom_site_occupancy
C1     C     0.10437   0.15640   0.51634   0.00000  Uiso   1.00
C2     C     0.09951   0.08069   0.57006   0.00000  Uiso   1.00
C3     C     0.04241   0.03945   0.59534   0.00000  Uiso   1.00
C4     C     0.04825   0.97151   0.64431   0.00000  Uiso   1.00
C5     C     0.03146   0.85787   0.72427   0.00000  Uiso   1.00
C6     C     0.15513   0.19963   0.54728   0.00000  Uiso   1.00
C7     C     0.14480   0.25840   0.55339   0.00000  Uiso   1.00
C8     C     0.19747   0.29059   0.58317   0.00000  Uiso   1.00
C9     C     0.26705   0.36164   0.62772   0.00000  Uiso   1.00
C10    C     0.13518   0.15646   0.46047   0.00000  Uiso   1.00
C11    C     0.10808   0.17895   0.39359   0.00000  Uiso   1.00
C12    C     0.14396   0.17481   0.35027   0.00000  Uiso   1.00
C13    C     0.18255   0.17883   0.26003   0.00000  Uiso   1.00
C14    C     0.21629   0.10908   0.55833   0.00000  Uiso   1.00
C15    C     0.16030   0.05499   0.59287   0.00000  Uiso   1.00
C16    C     0.16623   0.98710   0.64180   0.00000  Uiso   1.00
C17    C     0.10915   0.94576   0.66715   0.00000  Uiso   1.00
C18    C     0.21592   0.17393   0.57008   0.00000  Uiso   1.00
C19    C     0.26862   0.20604   0.59985   0.00000  Uiso   1.00
C20    C     0.25837   0.26484   0.60602   0.00000  Uiso   1.00
C21    C     0.19597   0.13076   0.48327   0.00000  Uiso   1.00
C22    C     0.23190   0.12659   0.44004   0.00000  Uiso   1.00
C23    C     0.20486   0.14906   0.37311   0.00000  Uiso   1.00
H24    H     0.05705   0.17641   0.49859   0.00000  Uiso   1.00
H25    H     0.99537   0.05936   0.57769   0.00000  Uiso   1.00
H26    H     0.09775   0.27828   0.53574   0.00000  Uiso   1.00
H27    H     0.06103   0.19883   0.37596   0.00000  Uiso   1.00
H28    H     0.95381   0.91826   0.67546   0.00000  Uiso   1.00
H29    H     0.16969   0.37987   0.58698   0.00000  Uiso   1.00
H30    H     0.09226   0.21236   0.25005   0.00000  Uiso   1.00
H31    H     0.26362   0.08907   0.57608   0.00000  Uiso   1.00
H32    H     0.21328   0.96722   0.65944   0.00000  Uiso   1.00
H33    H     0.31566   0.18614   0.61749   0.00000  Uiso   1.00
H34    H     0.27894   0.10670   0.45771   0.00000  Uiso   1.00
H35    H     0.13067   0.84348   0.74182   0.00000  Uiso   1.00
H36    H     0.34655   0.30509   0.65334   0.00000  Uiso   1.00
H37    H     0.26912   0.13757   0.31641   0.00000  Uiso   1.00
O38    O     0.00540   0.80230   0.76209   0.00000  Uiso   1.00
O39    O     0.28863   0.40792   0.64600   0.00000  Uiso   1.00
O40    O     0.18704   0.18814   0.20396   0.00000  Uiso   1.00
N41    N     0.00234   0.91738   0.67963   0.00000  Uiso   1.00
N42    N     0.20417   0.34895   0.59692   0.00000  Uiso   1.00
N43    N     0.13179   0.19236   0.28191   0.00000  Uiso   1.00
N44    N     0.09751   0.87714   0.71533   0.00000  Uiso   1.00
N45    N     0.29934   0.30871   0.63262   0.00000  Uiso   1.00
N46    N     0.22695   0.15212   0.31762   0.00000  Uiso   1.00
C47    C     0.74183   0.22191   0.19638   0.00000  Uiso   1.00
C48    C     0.67309   0.24143   0.16426   0.00000  Uiso   1.00
C49    C     0.65734   0.30934   0.12606   0.00000  Uiso   1.00
C50    C     0.59158   0.31613   0.10113   0.00000  Uiso   1.00
C51    C     0.49217   0.35543   0.04932   0.00000  Uiso   1.00
C52    C     0.73747   0.17821   0.27111   0.00000  Uiso   1.00
C53    C     0.77586   0.19296   0.32275   0.00000  Uiso   1.00
C54    C     0.76430   0.14652   0.38777   0.00000  Uiso   1.00
C55    C     0.76487   0.08764   0.50186   0.00000  Uiso   1.00
C56    C     0.75411   0.17158   0.16998   0.00000  Uiso   1.00
C57    C     0.80649   0.18074   0.13661   0.00000  Uiso   1.00
C58    C     0.80895   0.12870   0.11649   0.00000  Uiso   1.00
C59    C     0.83535   0.05952   0.07356   0.00000  Uiso   1.00
C60    C     0.65306   0.11319   0.22002   0.00000  Uiso   1.00
C61    C     0.62487   0.18238   0.17710   0.00000  Uiso   1.00
C62    C     0.55912   0.18906   0.15222   0.00000  Uiso   1.00
C63    C     0.54327   0.25697   0.11399   0.00000  Uiso   1.00
C64    C     0.68925   0.11916   0.28395   0.00000  Uiso   1.00
C65    C     0.67764   0.07268   0.34891   0.00000  Uiso   1.00
C66    C     0.71599   0.08736   0.40063   0.00000  Uiso   1.00
C67    C     0.70589   0.11252   0.18282   0.00000  Uiso   1.00
C68    C     0.70827   0.06046   0.16276   0.00000  Uiso   1.00
C69    C     0.76064   0.06954   0.12936   0.00000  Uiso   1.00
H70    H     0.77938   0.26788   0.18639   0.00000  Uiso   1.00
H71    H     0.69467   0.35503   0.11614   0.00000  Uiso   1.00
H72    H     0.81317   0.23866   0.31280   0.00000  Uiso   1.00
H73    H     0.84379   0.22644   0.12668   0.00000  Uiso   1.00
H74    H     0.57949   0.42561   0.04394   0.00000  Uiso   1.00
H75    H     0.82937   0.18023   0.45861   0.00000  Uiso   1.00
H76    H     0.89395   0.15447   0.06614   0.00000  Uiso   1.00
H77    H     0.61552   0.06721   0.23002   0.00000  Uiso   1.00
H78    H     0.52182   0.14335   0.16216   0.00000  Uiso   1.00
H79    H     0.64032   0.02698   0.35882   0.00000  Uiso   1.00
H80    H     0.67095   0.01477   0.17271   0.00000  Uiso   1.00
H81    H     0.43919   0.25380   0.08129   0.00000  Uiso   1.00
H82    H     0.68908   0.00842   0.49597   0.00000  Uiso   1.00
H83    H     0.75366   0.98266   0.10350   0.00000  Uiso   1.00
O84    O     0.45065   0.39342   0.01721   0.00000  Uiso   1.00
O85    O     0.77850   0.07148   0.56124   0.00000  Uiso   1.00
O86    O     0.86323   0.03768   0.04633   0.00000  Uiso   1.00
N87    N     0.55933   0.37473   0.06203   0.00000  Uiso   1.00
N88    N     0.79295   0.14532   0.44972   0.00000  Uiso   1.00
N89    N     0.85334   0.12122   0.08282   0.00000  Uiso   1.00
N90    N     0.48384   0.28228   0.08213   0.00000  Uiso   1.00
N91    N     0.71746   0.05287   0.46982   0.00000  Uiso   1.00
N92    N     0.77785   0.02877   0.10292   0.00000  Uiso   1.00
C93    C     0.52313   0.63435   0.74165   0.00000  Uiso   1.00
C94    C     0.51856   0.59467   0.69858   0.00000  Uiso   1.00
C95    C     0.47361   0.53605   0.70121   0.00000  Uiso   1.00
C96    C     0.47748   0.50737   0.65768   0.00000  Uiso   1.00
C97    C     0.46324   0.44133   0.59759   0.00000  Uiso   1.00
C98    C     0.59339   0.63407   0.77743   0.00000  Uiso   1.00
C99    C     0.61135   0.60858   0.84636   0.00000  Uiso   1.00
C100   C     0.67820   0.61308   0.86920   0.00000  Uiso   1.00
C101   C     0.78013   0.60825   0.93153   0.00000  Uiso   1.00
C102   C     0.51693   0.71084   0.69276   0.00000  Uiso   1.00
C103   C     0.47062   0.74992   0.69051   0.00000  Uiso   1.00
C104   C     0.47312   0.81907   0.64207   0.00000  Uiso   1.00
C105   C     0.45633   0.93345   0.57294   0.00000  Uiso   1.00
C106   C     0.60994   0.68767   0.65966   0.00000  Uiso   1.00
C107   C     0.56572   0.62363   0.65404   0.00000  Uiso   1.00
C108   C     0.56965   0.59503   0.61049   0.00000  Uiso   1.00
C109   C     0.52471   0.53638   0.61306   0.00000  Uiso   1.00
C110   C     0.64054   0.66303   0.73290   0.00000  Uiso   1.00
C111   C     0.70739   0.66757   0.75564   0.00000  Uiso   1.00
C112   C     0.72544   0.64209   0.82458   0.00000  Uiso   1.00
C113   C     0.56408   0.73981   0.64822   0.00000  Uiso   1.00
C114   C     0.56666   0.80891   0.59978   0.00000  Uiso   1.00
C115   C     0.52036   0.84808   0.59745   0.00000  Uiso   1.00
H116   H     0.48643   0.61180   0.77633   0.00000  Uiso   1.00
H117   H     0.43713   0.51365   0.73569   0.00000  Uiso   1.00
H118   H     0.57485   0.58618   0.88081   0.00000  Uiso   1.00
H119   H     0.43414   0.72749   0.72498   0.00000  Uiso   1.00
H120   H     0.40329   0.41758   0.67101   0.00000  Uiso   1.00
H121   H     0.69367   0.57053   0.97701   0.00000  Uiso   1.00
H122   H     0.39696   0.86853   0.64841   0.00000  Uiso   1.00
H123   H     0.64665   0.71021   0.62498   0.00000  Uiso   1.00
H124   H     0.60615   0.61746   0.57603   0.00000  Uiso   1.00
H125   H     0.74386   0.68999   0.72115   0.00000  Uiso   1.00
H126   H     0.60315   0.83130   0.56533   0.00000  Uiso   1.00
H127   H     0.54047   0.50183   0.54142   0.00000  Uiso   1.00
H128   H     0.83085   0.65479   0.84742   0.00000  Uiso   1.00
H129   H     0.53414   0.95278   0.51883   0.00000  Uiso   1.00
O130   O     0.44236   0.39689   0.57676   0.00000  Uiso   1.00
O131   O     0.82332   0.59758   0.97822   0.00000  Uiso   1.00
O132   O     0.43405   0.98854   0.54711   0.00000  Uiso   1.00
N133   N     0.44113   0.45014   0.64722   0.00000  Uiso   1.00
N134   N     0.71261   0.59314   0.93331   0.00000  Uiso   1.00
N135   N     0.43522   0.87174   0.62611   0.00000  Uiso   1.00
N136   N     0.51494   0.49548   0.57749   0.00000  Uiso   1.00
N137   N     0.78643   0.63848   0.86358   0.00000  Uiso   1.00
N138   N     0.50904   0.91708   0.55638   0.00000  Uiso   1.00
C139   C     0.26259   0.71764   0.12351   0.00000  Uiso   1.00
C140   C     0.22614   0.64284   0.15068   0.00000  Uiso   1.00
C141   C     0.19993   0.60377   0.11374   0.00000  Uiso   1.00
C142   C     0.16842   0.53632   0.14782   0.00000  Uiso   1.00
C143   C     0.11262   0.42431   0.17959   0.00000  Uiso   1.00
C144   C     0.32946   0.71426   0.16659   0.00000  Uiso   1.00
C145   C     0.39010   0.73526   0.14303   0.00000  Uiso   1.00
C146   C     0.44557   0.72795   0.19051   0.00000  Uiso   1.00
C147   C     0.55016   0.72689   0.24697   0.00000  Uiso   1.00
C148   C     0.22579   0.76134   0.13976   0.00000  Uiso   1.00
C149   C     0.19928   0.82193   0.09363   0.00000  Uiso   1.00
C150   C     0.16748   0.85427   0.11852   0.00000  Uiso   1.00
C151   C     0.11111   0.92629   0.13332   0.00000  Uiso   1.00
C152   C     0.25325   0.66733   0.24972   0.00000  Uiso   1.00
C153   C     0.22107   0.61551   0.21923   0.00000  Uiso   1.00
C154   C     0.18959   0.54810   0.25338   0.00000  Uiso   1.00
C155   C     0.16333   0.50894   0.21650   0.00000  Uiso   1.00
C156   C     0.32438   0.68694   0.23514   0.00000  Uiso   1.00
C157   C     0.37977   0.67960   0.28267   0.00000  Uiso   1.00
C158   C     0.44048   0.70057   0.25919   0.00000  Uiso   1.00
C159   C     0.22071   0.73401   0.20831   0.00000  Uiso   1.00
C160   C     0.18894   0.76626   0.23327   0.00000  Uiso   1.00
C161   C     0.16239   0.82689   0.18720   0.00000  Uiso   1.00
H162   H     0.26655   0.73892   0.07014   0.00000  Uiso   1.00
H163   H     0.20387   0.62493   0.06069   0.00000  Uiso   1.00
H164   H     0.39402   0.75641   0.08998   0.00000  Uiso   1.00
H165   H     0.20322   0.84306   0.04059   0.00000  Uiso   1.00
H166   H     0.13216   0.48650   0.08045   0.00000  Uiso   1.00
H167   H     0.53310   0.76376   0.14220   0.00000  Uiso   1.00
H168   H     0.13077   0.94648   0.03805   0.00000  Uiso   1.00
H169   H     0.24930   0.64605   0.30310   0.00000  Uiso   1.00
H170   H     0.18567   0.52697   0.30643   0.00000  Uiso   1.00
H171   H     0.37582   0.65845   0.33571   0.00000  Uiso   1.00
H172   H     0.18502   0.74510   0.28633   0.00000  Uiso   1.00
H173   H     0.11739   0.40699   0.27991   0.00000  Uiso   1.00
H174   H     0.51833   0.68425   0.34165   0.00000  Uiso   1.00
H175   H     0.11600   0.86697   0.23750   0.00000  Uiso   1.00
O176   O     0.08325   0.37008   0.17818   0.00000  Uiso   1.00
O177   O     0.60926   0.73384   0.25918   0.00000  Uiso   1.00
O178   O     0.08142   0.97356   0.12254   0.00000  Uiso   1.00
N179   N     0.13740   0.48414   0.12693   0.00000  Uiso   1.00
N180   N     0.51226   0.74334   0.18466   0.00000  Uiso   1.00
N181   N     0.13613   0.91418   0.08730   0.00000  Uiso   1.00
N182   N     0.12946   0.44135   0.23426   0.00000  Uiso   1.00
N183   N     0.50431   0.70056   0.29198   0.00000  Uiso   1.00
N184   N     0.12818   0.87140   0.19462   0.00000  Uiso   1.00
C185   C     0.99497   0.66395   0.59451   0.00000  Uiso   1.00
C186   C     0.04644   0.68979   0.54664   0.00000  Uiso   1.00
C187   C     0.05218   0.75442   0.49138   0.00000  Uiso   1.00
C188   C     0.10254   0.76814   0.45390   0.00000  Uiso   1.00
C189   C     0.17592   0.81575   0.37696   0.00000  Uiso   1.00
C190   C     0.03319   0.64588   0.66446   0.00000  Uiso   1.00
C191   C     0.02779   0.67359   0.70826   0.00000  Uiso   1.00
C192   C     0.06700   0.65033   0.76996   0.00000  Uiso   1.00
C193   C     0.11979   0.62975   0.87596   0.00000  Uiso   1.00
C194   C     0.95960   0.59411   0.59417   0.00000  Uiso   1.00
C195   C     0.89232   0.57828   0.57889   0.00000  Uiso   1.00
C196   C     0.86957   0.51143   0.58142   0.00000  Uiso   1.00
C197   C     0.80809   0.41046   0.57829   0.00000  Uiso   1.00
C198   C     0.07421   0.57337   0.62621   0.00000  Uiso   1.00
C199   C     0.08947   0.64059   0.56386   0.00000  Uiso   1.00
C200   C     0.13984   0.65420   0.52645   0.00000  Uiso   1.00
C201   C     0.14566   0.71885   0.47114   0.00000  Uiso   1.00
C202   C     0.07623   0.59668   0.68168   0.00000  Uiso   1.00
C203   C     0.11545   0.57337   0.74333   0.00000  Uiso   1.00
C204   C     0.11012   0.60105   0.78721   0.00000  Uiso   1.00
C205   C     0.00264   0.54491   0.61138   0.00000  Uiso   1.00
C206   C     0.97999   0.47807   0.61396   0.00000  Uiso   1.00
C207   C     0.91268   0.46214   0.59868   0.00000  Uiso   1.00
H208   H     0.96147   0.70225   0.58111   0.00000  Uiso   1.00
H209   H     0.01887   0.79249   0.47807   0.00000  Uiso   1.00
H210   H     0.99448   0.71166   0.69492   0.00000  Uiso   1.00
H211   H     0.85903   0.61637   0.56556   0.00000  Uiso   1.00
H212   H     0.10149   0.87084   0.37145   0.00000  Uiso   1.00
H213   H     0.05006   0.70039   0.82869   0.00000  Uiso   1.00
H214   H     0.76443   0.49945   0.55592   0.00000  Uiso   1.00
H215   H     0.10772   0.53506   0.63962   0.00000  Uiso   1.00
H216   H     0.17314   0.61612   0.53979   0.00000  Uiso   1.00
H217   H     0.14875   0.53530   0.75664   0.00000  Uiso   1.00
H218   H     0.01330   0.44001   0.62728   0.00000  Uiso   1.00
H219   H     0.22671   0.72770   0.42154   0.00000  Uiso   1.00
H220   H     0.17527   0.55725   0.87879   0.00000  Uiso   1.00
H221   H     0.88965   0.35631   0.60601   0.00000  Uiso   1.00
O222   O     0.20451   0.85561   0.32978   0.00000  Uiso   1.00
O223   O     0.13702   0.63199   0.92967   0.00000  Uiso   1.00
O224   O     0.76229   0.36836   0.57179   0.00000  Uiso   1.00
N225   N     0.12198   0.82602   0.39693   0.00000  Uiso   1.00
N226   N     0.07389   0.66667   0.82442   0.00000  Uiso   1.00
N227   N     0.80686   0.47880   0.56942   0.00000  Uiso   1.00
N228   N     0.18935   0.74899   0.42388   0.00000  Uiso   1.00
N229   N     0.14127   0.58965   0.85137   0.00000  Uiso   1.00
N230   N     0.87423   0.40178   0.59637   0.00000  Uiso   1.00
C231   C     0.74180   0.79888   0.16870   0.00000  Uiso   1.00
C232   C     0.70880   0.85521   0.10658   0.00000  Uiso   1.00
C233   C     0.64972   0.87764   0.10189   0.00000  Uiso   1.00
C234   C     0.62782   0.92974   0.04068   0.00000  Uiso   1.00
C235   C     0.57114   0.01288   0.95252   0.00000  Uiso   1.00
C236   C     0.81057   0.83386   0.18373   0.00000  Uiso   1.00
C237   C     0.83705   0.83833   0.24391   0.00000  Uiso   1.00
C238   C     0.90083   0.87246   0.24764   0.00000  Uiso   1.00
C239   C     0.00217   0.92241   0.27927   0.00000  Uiso   1.00
C240   C     0.75137   0.74366   0.14703   0.00000  Uiso   1.00
C241   C     0.72810   0.67227   0.17636   0.00000  Uiso   1.00
C242   C     0.74205   0.63045   0.14921   0.00000  Uiso   1.00
C243   C     0.75147   0.54034   0.12386   0.00000  Uiso   1.00
C244   C     0.80798   0.85153   0.06834   0.00000  Uiso   1.00
C245   C     0.74475   0.88381   0.05207   0.00000  Uiso   1.00
C246   C     0.72294   0.93589   0.99084   0.00000  Uiso   1.00
C247   C     0.66383   0.95839   0.98606   0.00000  Uiso   1.00
C248   C     0.84652   0.86246   0.12922   0.00000  Uiso   1.00
C249   C     0.91028   0.89659   0.13286   0.00000  Uiso   1.00
C250   C     0.93685   0.90111   0.19303   0.00000  Uiso   1.00
C251   C     0.78732   0.77226   0.09251   0.00000  Uiso   1.00
C252   C     0.80132   0.73053   0.06531   0.00000  Uiso   1.00
C253   C     0.77806   0.65910   0.09459   0.00000  Uiso   1.00
H254   H     0.71382   0.77661   0.21115   0.00000  Uiso   1.00
H255   H     0.62192   0.85549   0.14409   0.00000  Uiso   1.00
H256   H     0.80923   0.81619   0.28609   0.00000  Uiso   1.00
H257   H     0.70028   0.65016   0.21855   0.00000  Uiso   1.00
H258   H     0.53590   0.95558   0.04571   0.00000  Uiso   1.00
H259   H     0.93086   0.87268   0.34512   0.00000  Uiso   1.00
H260   H     0.70113   0.52257   0.20271   0.00000  Uiso   1.00
H261   H     0.83597   0.87380   0.02590   0.00000  Uiso   1.00
H262   H     0.75077   0.95802   0.94867   0.00000  Uiso   1.00
H263   H     0.93808   0.91871   0.09067   0.00000  Uiso   1.00
H264   H     0.82914   0.75268   0.02313   0.00000  Uiso   1.00
H265   H     0.64048   0.03879   0.88710   0.00000  Uiso   1.00
H266   H     0.03544   0.95589   0.18652   0.00000  Uiso   1.00
H267   H     0.80571   0.60579   0.04409   0.00000  Uiso   1.00
O268   O     0.52995   0.05085   0.91895   0.00000  Uiso   1.00
O269   O     0.04812   0.94207   0.31178   0.00000  Uiso   1.00
O270   O     0.74672   0.48274   0.12493   0.00000  Uiso   1.00
N271   N     0.57219   0.96360   0.01897   0.00000  Uiso   1.00
N272   N     0.94146   0.88610   0.29891   0.00000  Uiso   1.00
N273   N     0.72670   0.55877   0.16577   0.00000  Uiso   1.00
N274   N     0.62847   0.00837   0.93363   0.00000  Uiso   1.00
N275   N     0.99773   0.93088   0.21356   0.00000  Uiso   1.00
N276   N     0.78297   0.60355   0.08042   0.00000  Uiso   1.00
C277   C     0.89563   0.84360   0.48366   0.00000  Uiso   1.00
C278   C     0.90049   0.91931   0.42994   0.00000  Uiso   1.00
C279   C     0.95759   0.96055   0.40466   0.00000  Uiso   1.00
C280   C     0.95175   0.02849   0.35569   0.00000  Uiso   1.00
C281   C     0.96854   0.14213   0.27573   0.00000  Uiso   1.00
C282   C     0.84487   0.80037   0.45272   0.00000  Uiso   1.00
C283   C     0.85520   0.74160   0.44661   0.00000  Uiso   1.00
C284   C     0.80253   0.70941   0.41683   0.00000  Uiso   1.00
C285   C     0.73295   0.63836   0.37228   0.00000  Uiso   1.00
C286   C     0.86482   0.84354   0.53953   0.00000  Uiso   1.00
C287   C     0.89192   0.82105   0.60641   0.00000  Uiso   1.00
C288   C     0.85604   0.82519   0.64973   0.00000  Uiso   1.00
C289   C     0.81745   0.82117   0.73997   0.00000  Uiso   1.00
C290   C     0.78371   0.89092   0.44167   0.00000  Uiso   1.00
C291   C     0.83970   0.94501   0.40713   0.00000  Uiso   1.00
C292   C     0.83377   0.01290   0.35820   0.00000  Uiso   1.00
C293   C     0.89085   0.05424   0.33285   0.00000  Uiso   1.00
C294   C     0.78408   0.82607   0.42992   0.00000  Uiso   1.00
C295   C     0.73138   0.79396   0.40015   0.00000  Uiso   1.00
C296   C     0.74163   0.73516   0.39398   0.00000  Uiso   1.00
C297   C     0.80403   0.86924   0.51673   0.00000  Uiso   1.00
C298   C     0.76810   0.87341   0.55996   0.00000  Uiso   1.00
C299   C     0.79514   0.85094   0.62689   0.00000  Uiso   1.00
H300   H     0.94295   0.82359   0.50141   0.00000  Uiso   1.00
H301   H     0.00463   0.94064   0.42231   0.00000  Uiso   1.00
H302   H     0.90225   0.72172   0.46426   0.00000  Uiso   1.00
H303   H     0.93897   0.80117   0.62404   0.00000  Uiso   1.00
H304   H     0.04619   0.08174   0.32454   0.00000  Uiso   1.00
H305   H     0.83031   0.62013   0.41302   0.00000  Uiso   1.00
H306   H     0.90774   0.78764   0.74995   0.00000  Uiso   1.00
H307   H     0.73638   0.91093   0.42392   0.00000  Uiso   1.00
H308   H     0.78672   0.03278   0.34056   0.00000  Uiso   1.00
H309   H     0.68434   0.81386   0.38251   0.00000  Uiso   1.00
H310   H     0.72106   0.89330   0.54229   0.00000  Uiso   1.00
H311   H     0.86933   0.15652   0.25818   0.00000  Uiso   1.00
H312   H     0.65345   0.69491   0.34666   0.00000  Uiso   1.00
H313   H     0.73088   0.86243   0.68359   0.00000  Uiso   1.00
O314   O     0.99460   0.19770   0.23791   0.00000  Uiso   1.00
O315   O     0.71137   0.59208   0.35400   0.00000  Uiso   1.00
O316   O     0.81296   0.81186   0.79604   0.00000  Uiso   1.00
N317   N     0.99766   0.08262   0.32037   0.00000  Uiso   1.00
N318   N     0.79583   0.65105   0.40308   0.00000  Uiso   1.00
N319   N     0.86821   0.80764   0.71809   0.00000  Uiso   1.00
N320   N     0.90249   0.12286   0.28467   0.00000  Uiso   1.00
N321   N     0.70066   0.69129   0.36738   0.00000  Uiso   1.00
N322   N     0.77305   0.84788   0.68238   0.00000  Uiso   1.00
C323   C     0.25817   0.77809   0.80362   0.00000  Uiso   1.00
C324   C     0.32691   0.75857   0.83574   0.00000  Uiso   1.00
C325   C     0.34266   0.69066   0.87394   0.00000  Uiso   1.00
C326   C     0.40842   0.68387   0.89887   0.00000  Uiso   1.00
C327   C     0.50783   0.64457   0.95068   0.00000  Uiso   1.00
C328   C     0.26253   0.82179   0.72889   0.00000  Uiso   1.00
C329   C     0.22414   0.80704   0.67725   0.00000  Uiso   1.00
C330   C     0.23570   0.85348   0.61223   0.00000  Uiso   1.00
C331   C     0.23513   0.91236   0.49814   0.00000  Uiso   1.00
C332   C     0.24589   0.82842   0.83002   0.00000  Uiso   1.00
C333   C     0.19351   0.81926   0.86339   0.00000  Uiso   1.00
C334   C     0.19105   0.87130   0.88351   0.00000  Uiso   1.00
C335   C     0.16465   0.94048   0.92644   0.00000  Uiso   1.00
C336   C     0.34694   0.88681   0.77998   0.00000  Uiso   1.00
C337   C     0.37513   0.81762   0.82290   0.00000  Uiso   1.00
C338   C     0.44088   0.81094   0.84778   0.00000  Uiso   1.00
C339   C     0.45673   0.74303   0.88601   0.00000  Uiso   1.00
C340   C     0.31075   0.88084   0.71605   0.00000  Uiso   1.00
C341   C     0.32236   0.92732   0.65109   0.00000  Uiso   1.00
C342   C     0.28401   0.91264   0.59937   0.00000  Uiso   1.00
C343   C     0.29411   0.88748   0.81718   0.00000  Uiso   1.00
C344   C     0.29173   0.93954   0.83724   0.00000  Uiso   1.00
C345   C     0.23936   0.93046   0.87064   0.00000  Uiso   1.00
H346   H     0.22062   0.73212   0.81361   0.00000  Uiso   1.00
H347   H     0.30533   0.64497   0.88386   0.00000  Uiso   1.00
H348   H     0.18683   0.76134   0.68720   0.00000  Uiso   1.00
H349   H     0.15621   0.77356   0.87332   0.00000  Uiso   1.00
H350   H     0.42051   0.57439   0.95606   0.00000  Uiso   1.00
H351   H     0.17063   0.81977   0.54139   0.00000  Uiso   1.00
H352   H     0.10605   0.84553   0.93386   0.00000  Uiso   1.00
H353   H     0.38448   0.93279   0.76998   0.00000  Uiso   1.00
H354   H     0.47818   0.85665   0.83784   0.00000  Uiso   1.00
H355   H     0.35968   0.97302   0.64118   0.00000  Uiso   1.00
H356   H     0.32905   0.98523   0.82729   0.00000  Uiso   1.00
H357   H     0.56081   0.74620   0.91871   0.00000  Uiso   1.00
H358   H     0.31092   0.99158   0.50403   0.00000  Uiso   1.00
H359   H     0.24634   0.01734   0.89650   0.00000  Uiso   1.00
O360   O     0.54935   0.60658   0.98279   0.00000  Uiso   1.00
O361   O     0.22150   0.92852   0.43876   0.00000  Uiso   1.00
O362   O     0.13677   0.96232   0.95367   0.00000  Uiso   1.00
N363   N     0.44067   0.62527   0.93797   0.00000  Uiso   1.00
N364   N     0.20705   0.85468   0.55028   0.00000  Uiso   1.00
N365   N     0.14666   0.87878   0.91718   0.00000  Uiso   1.00
N366   N     0.51616   0.71772   0.91787   0.00000  Uiso   1.00
N367   N     0.28254   0.94713   0.53018   0.00000  Uiso   1.00
N368   N     0.22215   0.97123   0.89708   0.00000  Uiso   1.00
C369   C     0.47687   0.36565   0.25835   0.00000  Uiso   1.00
C370   C     0.48144   0.40533   0.30142   0.00000  Uiso   1.00
C371   C     0.52639   0.46395   0.29879   0.00000  Uiso   1.00
C372   C     0.52252   0.49263   0.34232   0.00000  Uiso   1.00
C373   C     0.53676   0.55867   0.40241   0.00000  Uiso   1.00
C374   C     0.40661   0.36593   0.22257   0.00000  Uiso   1.00
C375   C     0.38865   0.39142   0.15364   0.00000  Uiso   1.00
C376   C     0.32180   0.38692   0.13080   0.00000  Uiso   1.00
C377   C     0.21987   0.39175   0.06847   0.00000  Uiso   1.00
C378   C     0.48307   0.28916   0.30724   0.00000  Uiso   1.00
C379   C     0.52938   0.25008   0.30949   0.00000  Uiso   1.00
C380   C     0.52688   0.18093   0.35793   0.00000  Uiso   1.00
C381   C     0.54367   0.06655   0.42706   0.00000  Uiso   1.00
C382   C     0.39006   0.31233   0.34034   0.00000  Uiso   1.00
C383   C     0.43428   0.37637   0.34596   0.00000  Uiso   1.00
C384   C     0.43035   0.40497   0.38951   0.00000  Uiso   1.00
C385   C     0.47529   0.46362   0.38694   0.00000  Uiso   1.00
C386   C     0.35946   0.33697   0.26710   0.00000  Uiso   1.00
C387   C     0.29261   0.33243   0.24436   0.00000  Uiso   1.00
C388   C     0.27456   0.35791   0.17542   0.00000  Uiso   1.00
C389   C     0.43592   0.26019   0.35178   0.00000  Uiso   1.00
C390   C     0.43334   0.19109   0.40022   0.00000  Uiso   1.00
C391   C     0.47964   0.15192   0.40255   0.00000  Uiso   1.00
H392   H     0.51357   0.38820   0.22367   0.00000  Uiso   1.00
H393   H     0.56287   0.48635   0.26431   0.00000  Uiso   1.00
H394   H     0.42515   0.41382   0.11919   0.00000  Uiso   1.00
H395   H     0.56586   0.27251   0.27502   0.00000  Uiso   1.00
H396   H     0.59671   0.58242   0.32899   0.00000  Uiso   1.00
H397   H     0.30633   0.42947   0.02299   0.00000  Uiso   1.00
H398   H     0.60304   0.13147   0.35159   0.00000  Uiso   1.00
H399   H     0.35335   0.28979   0.37502   0.00000  Uiso   1.00
H400   H     0.39385   0.38254   0.42397   0.00000  Uiso   1.00
H401   H     0.25614   0.31001   0.27885   0.00000  Uiso   1.00
H402   H     0.39685   0.16870   0.43467   0.00000  Uiso   1.00
H403   H     0.45953   0.49817   0.45858   0.00000  Uiso   1.00
H404   H     0.16915   0.34521   0.15258   0.00000  Uiso   1.00
H405   H     0.46586   0.04722   0.48117   0.00000  Uiso   1.00
O406   O     0.55764   0.60311   0.42324   0.00000  Uiso   1.00
O407   O     0.17668   0.40242   0.02178   0.00000  Uiso   1.00
O408   O     0.56595   0.01146   0.45289   0.00000  Uiso   1.00
N409   N     0.55887   0.54986   0.35278   0.00000  Uiso   1.00
N410   N     0.28739   0.40686   0.06669   0.00000  Uiso   1.00
N411   N     0.56478   0.12826   0.37389   0.00000  Uiso   1.00
N412   N     0.48506   0.50452   0.42251   0.00000  Uiso   1.00
N413   N     0.21357   0.36152   0.13642   0.00000  Uiso   1.00
N414   N     0.49096   0.08292   0.44362   0.00000  Uiso   1.00
C415   C     0.73741   0.28236   0.87649   0.00000  Uiso   1.00
C416   C     0.77386   0.35716   0.84932   0.00000  Uiso   1.00
C417   C     0.80007   0.39623   0.88626   0.00000  Uiso   1.00
C418   C     0.83158   0.46368   0.85218   0.00000  Uiso   1.00
C419   C     0.88738   0.57569   0.82041   0.00000  Uiso   1.00
C420   C     0.67054   0.28574   0.83341   0.00000  Uiso   1.00
C421   C     0.60990   0.26474   0.85697   0.00000  Uiso   1.00
C422   C     0.55443   0.27205   0.80949   0.00000  Uiso   1.00
C423   C     0.44984   0.27311   0.75303   0.00000  Uiso   1.00
C424   C     0.77421   0.23866   0.86024   0.00000  Uiso   1.00
C425   C     0.80072   0.17807   0.90637   0.00000  Uiso   1.00
C426   C     0.83252   0.14573   0.88148   0.00000  Uiso   1.00
C427   C     0.88889   0.07371   0.86668   0.00000  Uiso   1.00
C428   C     0.74675   0.33267   0.75028   0.00000  Uiso   1.00
C429   C     0.77893   0.38449   0.78077   0.00000  Uiso   1.00
C430   C     0.81041   0.45190   0.74662   0.00000  Uiso   1.00
C431   C     0.83667   0.49106   0.78350   0.00000  Uiso   1.00
C432   C     0.67562   0.31306   0.76486   0.00000  Uiso   1.00
C433   C     0.62023   0.32040   0.71733   0.00000  Uiso   1.00
C434   C     0.55952   0.29943   0.74081   0.00000  Uiso   1.00
C435   C     0.77929   0.26599   0.79169   0.00000  Uiso   1.00
C436   C     0.81106   0.23374   0.76673   0.00000  Uiso   1.00
C437   C     0.83761   0.17311   0.81280   0.00000  Uiso   1.00
H438   H     0.73345   0.26108   0.92986   0.00000  Uiso   1.00
H439   H     0.79613   0.37507   0.93931   0.00000  Uiso   1.00
H440   H     0.60598   0.24359   0.91002   0.00000  Uiso   1.00
H441   H     0.79678   0.15694   0.95941   0.00000  Uiso   1.00
H442   H     0.86784   0.51350   0.91955   0.00000  Uiso   1.00
H443   H     0.46690   0.23624   0.85780   0.00000  Uiso   1.00
H444   H     0.86923   0.05352   0.96195   0.00000  Uiso   1.00
H445   H     0.75070   0.35395   0.69690   0.00000  Uiso   1.00
H446   H     0.81433   0.47303   0.69357   0.00000  Uiso   1.00
H447   H     0.62418   0.34155   0.66429   0.00000  Uiso   1.00
H448   H     0.81498   0.25490   0.71367   0.00000  Uiso   1.00
H449   H     0.88261   0.59301   0.72009   0.00000  Uiso   1.00
H450   H     0.48167   0.31575   0.65835   0.00000  Uiso   1.00
H451   H     0.88400   0.13303   0.76250   0.00000  Uiso   1.00
O452   O     0.91675   0.62992   0.82182   0.00000  Uiso   1.00
O453   O     0.39074   0.26616   0.74082   0.00000  Uiso   1.00
O454   O     0.91858   0.02644   0.87746   0.00000  Uiso   1.00
N455   N     0.86260   0.51586   0.87307   0.00000  Uiso   1.00
N456   N     0.48774   0.25666   0.81534   0.00000  Uiso   1.00
N457   N     0.86387   0.08582   0.91270   0.00000  Uiso   1.00
N458   N     0.87054   0.55865   0.76574   0.00000  Uiso   1.00
N459   N     0.49569   0.29944   0.70802   0.00000  Uiso   1.00
N460   N     0.87182   0.12860   0.80538   0.00000  Uiso   1.00
C461   C     0.00503   0.33605   0.40549   0.00000  Uiso   1.00
C462   C     0.95356   0.31021   0.45336   0.00000  Uiso   1.00
C463   C     0.94782   0.24558   0.50862   0.00000  Uiso   1.00
C464   C     0.89746   0.23186   0.54610   0.00000  Uiso   1.00
C465   C     0.82408   0.18425   0.62304   0.00000  Uiso   1.00
C466   C     0.96681   0.35412   0.33554   0.00000  Uiso   1.00
C467   C     0.97221   0.32641   0.29174   0.00000  Uiso   1.00
C468   C     0.93300   0.34967   0.23004   0.00000  Uiso   1.00
C469   C     0.88021   0.37025   0.12404   0.00000  Uiso   1.00
C470   C     0.04040   0.40589   0.40583   0.00000  Uiso   1.00
C471   C     0.10768   0.42172   0.42111   0.00000  Uiso   1.00
C472   C     0.13043   0.48857   0.41858   0.00000  Uiso   1.00
C473   C     0.19191   0.58954   0.42171   0.00000  Uiso   1.00
C474   C     0.92579   0.42663   0.37379   0.00000  Uiso   1.00
C475   C     0.91053   0.35941   0.43614   0.00000  Uiso   1.00
C476   C     0.86016   0.34580   0.47355   0.00000  Uiso   1.00
C477   C     0.85434   0.28115   0.52886   0.00000  Uiso   1.00
C478   C     0.92377   0.40332   0.31832   0.00000  Uiso   1.00
C479   C     0.88455   0.42663   0.25667   0.00000  Uiso   1.00
C480   C     0.88988   0.39895   0.21279   0.00000  Uiso   1.00
C481   C     0.99736   0.45509   0.38862   0.00000  Uiso   1.00
C482   C     0.02001   0.52193   0.38604   0.00000  Uiso   1.00
C483   C     0.08732   0.53786   0.40132   0.00000  Uiso   1.00
H484   H     0.03853   0.29775   0.41889   0.00000  Uiso   1.00
H485   H     0.98113   0.20751   0.52193   0.00000  Uiso   1.00
H486   H     0.00552   0.28834   0.30508   0.00000  Uiso   1.00
H487   H     0.14097   0.38363   0.43444   0.00000  Uiso   1.00
H488   H     0.89851   0.12916   0.62855   0.00000  Uiso   1.00
H489   H     0.94994   0.29961   0.17131   0.00000  Uiso   1.00
H490   H     0.23557   0.50055   0.44408   0.00000  Uiso   1.00
H491   H     0.89228   0.46494   0.36038   0.00000  Uiso   1.00
H492   H     0.82686   0.38388   0.46021   0.00000  Uiso   1.00
H493   H     0.85125   0.46470   0.24336   0.00000  Uiso   1.00
H494   H     0.98670   0.55999   0.37272   0.00000  Uiso   1.00
H495   H     0.77329   0.27230   0.57846   0.00000  Uiso   1.00
H496   H     0.82473   0.44275   0.12121   0.00000  Uiso   1.00
H497   H     0.11035   0.64369   0.39399   0.00000  Uiso   1.00
O498   O     0.79549   0.14439   0.67022   0.00000  Uiso   1.00
O499   O     0.86298   0.36801   0.07033   0.00000  Uiso   1.00
O500   O     0.23771   0.63164   0.42821   0.00000  Uiso   1.00
N501   N     0.87802   0.17398   0.60307   0.00000  Uiso   1.00
N502   N     0.92611   0.33333   0.17558   0.00000  Uiso   1.00
N503   N     0.19314   0.52120   0.43058   0.00000  Uiso   1.00
N504   N     0.81065   0.25101   0.57612   0.00000  Uiso   1.00
N505   N     0.85873   0.41035   0.14863   0.00000  Uiso   1.00
N506   N     0.12577   0.59822   0.40363   0.00000  Uiso   1.00
C507   C     0.25820   0.20112   0.83130   0.00000  Uiso   1.00
C508   C     0.29120   0.14479   0.89342   0.00000  Uiso   1.00
C509   C     0.35028   0.12236   0.89811   0.00000  Uiso   1.00
C510   C     0.37218   0.07026   0.95932   0.00000  Uiso   1.00
C511   C     0.42886   0.98712   0.04748   0.00000  Uiso   1.00
C512   C     0.18943   0.16614   0.81627   0.00000  Uiso   1.00
C513   C     0.16295   0.16167   0.75609   0.00000  Uiso   1.00
C514   C     0.09917   0.12754   0.75236   0.00000  Uiso   1.00
C515   C     0.99783   0.07759   0.72073   0.00000  Uiso   1.00
C516   C     0.24863   0.25634   0.85297   0.00000  Uiso   1.00
C517   C     0.27190   0.32773   0.82364   0.00000  Uiso   1.00
C518   C     0.25795   0.36955   0.85079   0.00000  Uiso   1.00
C519   C     0.24853   0.45966   0.87614   0.00000  Uiso   1.00
C520   C     0.19202   0.14847   0.93166   0.00000  Uiso   1.00
C521   C     0.25525   0.11619   0.94793   0.00000  Uiso   1.00
C522   C     0.27706   0.06411   0.00916   0.00000  Uiso   1.00
C523   C     0.33617   0.04161   0.01394   0.00000  Uiso   1.00
C524   C     0.15348   0.13754   0.87078   0.00000  Uiso   1.00
C525   C     0.08972   0.10341   0.86714   0.00000  Uiso   1.00
C526   C     0.06315   0.09889   0.80697   0.00000  Uiso   1.00
C527   C     0.21268   0.22774   0.90749   0.00000  Uiso   1.00
C528   C     0.19868   0.26947   0.93469   0.00000  Uiso   1.00
C529   C     0.22194   0.34090   0.90541   0.00000  Uiso   1.00
H530   H     0.28618   0.22339   0.78885   0.00000  Uiso   1.00
H531   H     0.37808   0.14451   0.85591   0.00000  Uiso   1.00
H532   H     0.19077   0.18381   0.71391   0.00000  Uiso   1.00
H533   H     0.29972   0.34984   0.78145   0.00000  Uiso   1.00
H534   H     0.46410   0.04442   0.95429   0.00000  Uiso   1.00
H535   H     0.06914   0.12732   0.65488   0.00000  Uiso   1.00
H536   H     0.29887   0.47743   0.79729   0.00000  Uiso   1.00
H537   H     0.16403   0.12620   0.97410   0.00000  Uiso   1.00
H538   H     0.24923   0.04198   0.05133   0.00000  Uiso   1.00
H539   H     0.06192   0.08129   0.90933   0.00000  Uiso   1.00
H540   H     0.17086   0.24732   0.97687   0.00000  Uiso   1.00
H541   H     0.35952   0.96121   0.11290   0.00000  Uiso   1.00
H542   H     0.96456   0.04411   0.81348   0.00000  Uiso   1.00
H543   H     0.19429   0.39421   0.95591   0.00000  Uiso   1.00
O544   O     0.47005   0.94915   0.08105   0.00000  Uiso   1.00
O545   O     0.95188   0.05793   0.68822   0.00000  Uiso   1.00
O546   O     0.25328   0.51726   0.87507   0.00000  Uiso   1.00
N547   N     0.42781   0.03640   0.98103   0.00000  Uiso   1.00
N548   N     0.05854   0.11390   0.70109   0.00000  Uiso   1.00
N549   N     0.27330   0.44123   0.83423   0.00000  Uiso   1.00
N550   N     0.37153   0.99163   0.06637   0.00000  Uiso   1.00
N551   N     0.00227   0.06912   0.78644   0.00000  Uiso   1.00
N552   N     0.21703   0.39645   0.91958   0.00000  Uiso   1.00
