data_job_03054
_audit_creation_date              2018-12-19
_audit_creation_method            'Materials Studio'
_symmetry_space_group_name_H-M    'P1'
_symmetry_Int_Tables_number       1
_symmetry_cell_setting            triclinic
loop_
_symmetry_equiv_pos_as_xyz
  x,y,z
_cell_length_a                    30.1106
_cell_length_b                    41.4588
_cell_length_c                    7.0571
_cell_angle_alpha                 90.0000
_cell_angle_beta                  90.0000
_cell_angle_gamma                 90.0000
loop_
_atom_site_label
_atom_site_type_symbol
_atom_site_fract_x
_atom_site_fract_y
_atom_site_fract_z
_atom_site_U_iso_or_equiv
_atom_site_adp_type
_atom_site_occupancy
C1     C     0.21214   0.08568   0.36143   0.00000  Uiso   1.00
C2     C     0.24439   0.07056   0.50239   0.00000  Uiso   1.00
C3     C     0.28536   0.05718   0.45830   0.00000  Uiso   1.00
C4     C     0.30991   0.04457   0.60744   0.00000  Uiso   1.00
C5     C     0.36239   0.02096   0.79794   0.00000  Uiso   1.00
C6     C     0.16842   0.06756   0.38497   0.00000  Uiso   1.00
C7     C     0.14550   0.05166   0.24214   0.00000  Uiso   1.00
C8     C     0.10609   0.03653   0.29245   0.00000  Uiso   1.00
C9     C     0.04061   0.00829   0.30062   0.00000  Uiso   1.00
C10    C     0.20357   0.11987   0.43218   0.00000  Uiso   1.00
C11    C     0.21021   0.14796   0.32903   0.00000  Uiso   1.00
C12    C     0.20039   0.17687   0.41907   0.00000  Uiso   1.00
C13    C     0.18948   0.22985   0.50054   0.00000  Uiso   1.00
C14    C     0.18289   0.08707   0.70471   0.00000  Uiso   1.00
C15    C     0.22850   0.07131   0.68884   0.00000  Uiso   1.00
C16    C     0.25300   0.05872   0.83810   0.00000  Uiso   1.00
C17    C     0.29400   0.04533   0.79424   0.00000  Uiso   1.00
C18    C     0.15253   0.06831   0.57141   0.00000  Uiso   1.00
C19    C     0.11314   0.05320   0.62194   0.00000  Uiso   1.00
C20    C     0.09018   0.03729   0.47924   0.00000  Uiso   1.00
C21    C     0.18769   0.12063   0.61863   0.00000  Uiso   1.00
C22    C     0.17785   0.14950   0.70884   0.00000  Uiso   1.00
C23    C     0.18447   0.17763   0.60586   0.00000  Uiso   1.00
H24    H     0.22451   0.08509   0.21627   0.00000  Uiso   1.00
H25    H     0.29764   0.05660   0.31398   0.00000  Uiso   1.00
H26    H     0.15780   0.05109   0.09787   0.00000  Uiso   1.00
H27    H     0.22250   0.14737   0.18475   0.00000  Uiso   1.00
H28    H     0.37171   0.02533   0.50454   0.00000  Uiso   1.00
H29    H     0.07685   0.01372   0.04883   0.00000  Uiso   1.00
H30    H     0.21327   0.21675   0.23203   0.00000  Uiso   1.00
H31    H     0.17052   0.08766   0.84987   0.00000  Uiso   1.00
H32    H     0.24070   0.05931   0.98237   0.00000  Uiso   1.00
H33    H     0.10086   0.05379   0.76624   0.00000  Uiso   1.00
H34    H     0.16556   0.15008   0.85313   0.00000  Uiso   1.00
H35    H     0.32549   0.02753   0.04703   0.00000  Uiso   1.00
H36    H     0.03063   0.01592   0.59130   0.00000  Uiso   1.00
H37    H     0.16705   0.21894   0.77452   0.00000  Uiso   1.00
O38    O     0.39572   0.00773   0.85150   0.00000  Uiso   1.00
O39    O     0.00888   0.99250   0.25361   0.00000  Uiso   1.00
O40    O     0.18786   0.25886   0.49398   0.00000  Uiso   1.00
N41    N     0.35120   0.02975   0.61404   0.00000  Uiso   1.00
N42    N     0.07553   0.01888   0.18798   0.00000  Uiso   1.00
N43    N     0.20306   0.20870   0.35924   0.00000  Uiso   1.00
N44    N     0.32633   0.03093   0.90594   0.00000  Uiso   1.00
N45    N     0.05066   0.02007   0.47988   0.00000  Uiso   1.00
N46    N     0.17819   0.20988   0.65115   0.00000  Uiso   1.00
C47    C     0.28786   0.91432   0.36143   0.00000  Uiso   1.00
C48    C     0.25561   0.92944   0.50239   0.00000  Uiso   1.00
C49    C     0.21464   0.94282   0.45830   0.00000  Uiso   1.00
C50    C     0.19009   0.95543   0.60744   0.00000  Uiso   1.00
C51    C     0.13761   0.97904   0.79794   0.00000  Uiso   1.00
C52    C     0.33158   0.93244   0.38497   0.00000  Uiso   1.00
C53    C     0.35450   0.94834   0.24214   0.00000  Uiso   1.00
C54    C     0.39391   0.96347   0.29245   0.00000  Uiso   1.00
C55    C     0.45939   0.99171   0.30062   0.00000  Uiso   1.00
C56    C     0.29643   0.88013   0.43218   0.00000  Uiso   1.00
C57    C     0.28979   0.85204   0.32903   0.00000  Uiso   1.00
C58    C     0.29961   0.82313   0.41907   0.00000  Uiso   1.00
C59    C     0.31052   0.77015   0.50054   0.00000  Uiso   1.00
C60    C     0.31711   0.91293   0.70471   0.00000  Uiso   1.00
C61    C     0.27150   0.92869   0.68884   0.00000  Uiso   1.00
C62    C     0.24700   0.94128   0.83810   0.00000  Uiso   1.00
C63    C     0.20600   0.95467   0.79424   0.00000  Uiso   1.00
C64    C     0.34747   0.93169   0.57141   0.00000  Uiso   1.00
C65    C     0.38686   0.94680   0.62194   0.00000  Uiso   1.00
C66    C     0.40982   0.96271   0.47924   0.00000  Uiso   1.00
C67    C     0.31231   0.87937   0.61863   0.00000  Uiso   1.00
C68    C     0.32215   0.85050   0.70884   0.00000  Uiso   1.00
C69    C     0.31553   0.82237   0.60586   0.00000  Uiso   1.00
H70    H     0.27549   0.91491   0.21627   0.00000  Uiso   1.00
H71    H     0.20236   0.94340   0.31398   0.00000  Uiso   1.00
H72    H     0.34220   0.94891   0.09787   0.00000  Uiso   1.00
H73    H     0.27750   0.85263   0.18475   0.00000  Uiso   1.00
H74    H     0.12829   0.97467   0.50454   0.00000  Uiso   1.00
H75    H     0.42315   0.98628   0.04883   0.00000  Uiso   1.00
H76    H     0.28673   0.78325   0.23203   0.00000  Uiso   1.00
H77    H     0.32948   0.91234   0.84987   0.00000  Uiso   1.00
H78    H     0.25930   0.94069   0.98237   0.00000  Uiso   1.00
H79    H     0.39914   0.94621   0.76624   0.00000  Uiso   1.00
H80    H     0.33444   0.84992   0.85313   0.00000  Uiso   1.00
H81    H     0.17451   0.97247   0.04703   0.00000  Uiso   1.00
H82    H     0.46937   0.98408   0.59130   0.00000  Uiso   1.00
H83    H     0.33295   0.78106   0.77452   0.00000  Uiso   1.00
O84    O     0.10428   0.99227   0.85150   0.00000  Uiso   1.00
O85    O     0.49112   0.00750   0.25361   0.00000  Uiso   1.00
O86    O     0.31214   0.74114   0.49398   0.00000  Uiso   1.00
N87    N     0.14880   0.97025   0.61404   0.00000  Uiso   1.00
N88    N     0.42447   0.98112   0.18798   0.00000  Uiso   1.00
N89    N     0.29694   0.79130   0.35924   0.00000  Uiso   1.00
N90    N     0.17367   0.96907   0.90594   0.00000  Uiso   1.00
N91    N     0.44934   0.97993   0.47988   0.00000  Uiso   1.00
N92    N     0.32181   0.79012   0.65115   0.00000  Uiso   1.00
C93    C     0.28786   0.58568   0.13857   0.00000  Uiso   1.00
C94    C     0.25561   0.57056   0.99761   0.00000  Uiso   1.00
C95    C     0.21464   0.55718   0.04170   0.00000  Uiso   1.00
C96    C     0.19009   0.54457   0.89256   0.00000  Uiso   1.00
C97    C     0.13761   0.52096   0.70206   0.00000  Uiso   1.00
C98    C     0.33158   0.56756   0.11503   0.00000  Uiso   1.00
C99    C     0.35450   0.55166   0.25786   0.00000  Uiso   1.00
C100   C     0.39391   0.53653   0.20755   0.00000  Uiso   1.00
C101   C     0.45939   0.50829   0.19938   0.00000  Uiso   1.00
C102   C     0.29643   0.61987   0.06782   0.00000  Uiso   1.00
C103   C     0.28979   0.64796   0.17097   0.00000  Uiso   1.00
C104   C     0.29961   0.67687   0.08093   0.00000  Uiso   1.00
C105   C     0.31052   0.72985   0.99946   0.00000  Uiso   1.00
C106   C     0.31711   0.58707   0.79529   0.00000  Uiso   1.00
C107   C     0.27150   0.57131   0.81116   0.00000  Uiso   1.00
C108   C     0.24700   0.55872   0.66190   0.00000  Uiso   1.00
C109   C     0.20600   0.54533   0.70576   0.00000  Uiso   1.00
C110   C     0.34747   0.56831   0.92859   0.00000  Uiso   1.00
C111   C     0.38686   0.55320   0.87806   0.00000  Uiso   1.00
C112   C     0.40982   0.53729   0.02076   0.00000  Uiso   1.00
C113   C     0.31231   0.62063   0.88137   0.00000  Uiso   1.00
C114   C     0.32215   0.64950   0.79116   0.00000  Uiso   1.00
C115   C     0.31553   0.67763   0.89414   0.00000  Uiso   1.00
H116   H     0.27549   0.58509   0.28373   0.00000  Uiso   1.00
H117   H     0.20236   0.55660   0.18602   0.00000  Uiso   1.00
H118   H     0.34220   0.55109   0.40213   0.00000  Uiso   1.00
H119   H     0.27750   0.64737   0.31525   0.00000  Uiso   1.00
H120   H     0.12829   0.52533   0.99546   0.00000  Uiso   1.00
H121   H     0.42315   0.51372   0.45117   0.00000  Uiso   1.00
H122   H     0.28673   0.71675   0.26797   0.00000  Uiso   1.00
H123   H     0.32948   0.58766   0.65013   0.00000  Uiso   1.00
H124   H     0.25930   0.55931   0.51763   0.00000  Uiso   1.00
H125   H     0.39914   0.55379   0.73376   0.00000  Uiso   1.00
H126   H     0.33444   0.65008   0.64687   0.00000  Uiso   1.00
H127   H     0.17451   0.52753   0.45297   0.00000  Uiso   1.00
H128   H     0.46937   0.51592   0.90870   0.00000  Uiso   1.00
H129   H     0.33295   0.71894   0.72548   0.00000  Uiso   1.00
O130   O     0.10428   0.50773   0.64850   0.00000  Uiso   1.00
O131   O     0.49112   0.49250   0.24639   0.00000  Uiso   1.00
O132   O     0.31214   0.75886   0.00602   0.00000  Uiso   1.00
N133   N     0.14880   0.52975   0.88596   0.00000  Uiso   1.00
N134   N     0.42447   0.51888   0.31202   0.00000  Uiso   1.00
N135   N     0.29694   0.70870   0.14076   0.00000  Uiso   1.00
N136   N     0.17367   0.53093   0.59406   0.00000  Uiso   1.00
N137   N     0.44934   0.52007   0.02012   0.00000  Uiso   1.00
N138   N     0.32181   0.70988   0.84885   0.00000  Uiso   1.00
C139   C     0.21214   0.41432   0.13857   0.00000  Uiso   1.00
C140   C     0.24439   0.42944   0.99761   0.00000  Uiso   1.00
C141   C     0.28536   0.44282   0.04170   0.00000  Uiso   1.00
C142   C     0.30991   0.45543   0.89256   0.00000  Uiso   1.00
C143   C     0.36239   0.47904   0.70206   0.00000  Uiso   1.00
C144   C     0.16842   0.43244   0.11503   0.00000  Uiso   1.00
C145   C     0.14550   0.44834   0.25786   0.00000  Uiso   1.00
C146   C     0.10609   0.46347   0.20755   0.00000  Uiso   1.00
C147   C     0.04061   0.49171   0.19938   0.00000  Uiso   1.00
C148   C     0.20357   0.38013   0.06782   0.00000  Uiso   1.00
C149   C     0.21021   0.35204   0.17097   0.00000  Uiso   1.00
C150   C     0.20039   0.32313   0.08093   0.00000  Uiso   1.00
C151   C     0.18948   0.27015   0.99946   0.00000  Uiso   1.00
C152   C     0.18289   0.41293   0.79529   0.00000  Uiso   1.00
C153   C     0.22850   0.42869   0.81116   0.00000  Uiso   1.00
C154   C     0.25300   0.44128   0.66190   0.00000  Uiso   1.00
C155   C     0.29400   0.45467   0.70576   0.00000  Uiso   1.00
C156   C     0.15253   0.43169   0.92859   0.00000  Uiso   1.00
C157   C     0.11314   0.44680   0.87806   0.00000  Uiso   1.00
C158   C     0.09018   0.46271   0.02076   0.00000  Uiso   1.00
C159   C     0.18769   0.37937   0.88137   0.00000  Uiso   1.00
C160   C     0.17785   0.35050   0.79116   0.00000  Uiso   1.00
C161   C     0.18447   0.32237   0.89414   0.00000  Uiso   1.00
H162   H     0.22451   0.41491   0.28373   0.00000  Uiso   1.00
H163   H     0.29764   0.44340   0.18602   0.00000  Uiso   1.00
H164   H     0.15780   0.44891   0.40213   0.00000  Uiso   1.00
H165   H     0.22250   0.35263   0.31525   0.00000  Uiso   1.00
H166   H     0.37171   0.47467   0.99546   0.00000  Uiso   1.00
H167   H     0.07685   0.48628   0.45117   0.00000  Uiso   1.00
H168   H     0.21327   0.28325   0.26797   0.00000  Uiso   1.00
H169   H     0.17052   0.41234   0.65013   0.00000  Uiso   1.00
H170   H     0.24070   0.44069   0.51763   0.00000  Uiso   1.00
H171   H     0.10086   0.44621   0.73376   0.00000  Uiso   1.00
H172   H     0.16556   0.34992   0.64687   0.00000  Uiso   1.00
H173   H     0.32549   0.47247   0.45297   0.00000  Uiso   1.00
H174   H     0.03063   0.48408   0.90870   0.00000  Uiso   1.00
H175   H     0.16705   0.28106   0.72548   0.00000  Uiso   1.00
O176   O     0.39572   0.49227   0.64850   0.00000  Uiso   1.00
O177   O     0.00888   0.50750   0.24639   0.00000  Uiso   1.00
O178   O     0.18786   0.24114   0.00602   0.00000  Uiso   1.00
N179   N     0.35120   0.47025   0.88596   0.00000  Uiso   1.00
N180   N     0.07553   0.48112   0.31202   0.00000  Uiso   1.00
N181   N     0.20306   0.29130   0.14076   0.00000  Uiso   1.00
N182   N     0.32633   0.46907   0.59406   0.00000  Uiso   1.00
N183   N     0.05066   0.47993   0.02012   0.00000  Uiso   1.00
N184   N     0.17819   0.29012   0.84885   0.00000  Uiso   1.00
C185   C     0.78786   0.91432   0.63857   0.00000  Uiso   1.00
C186   C     0.75561   0.92944   0.49761   0.00000  Uiso   1.00
C187   C     0.71464   0.94282   0.54170   0.00000  Uiso   1.00
C188   C     0.69009   0.95543   0.39256   0.00000  Uiso   1.00
C189   C     0.63761   0.97904   0.20206   0.00000  Uiso   1.00
C190   C     0.83158   0.93244   0.61503   0.00000  Uiso   1.00
C191   C     0.85450   0.94834   0.75786   0.00000  Uiso   1.00
C192   C     0.89391   0.96347   0.70755   0.00000  Uiso   1.00
C193   C     0.95939   0.99171   0.69938   0.00000  Uiso   1.00
C194   C     0.79643   0.88013   0.56782   0.00000  Uiso   1.00
C195   C     0.78979   0.85204   0.67097   0.00000  Uiso   1.00
C196   C     0.79961   0.82313   0.58093   0.00000  Uiso   1.00
C197   C     0.81052   0.77015   0.49946   0.00000  Uiso   1.00
C198   C     0.81711   0.91293   0.29529   0.00000  Uiso   1.00
C199   C     0.77150   0.92869   0.31116   0.00000  Uiso   1.00
C200   C     0.74700   0.94128   0.16190   0.00000  Uiso   1.00
C201   C     0.70600   0.95467   0.20576   0.00000  Uiso   1.00
C202   C     0.84747   0.93169   0.42859   0.00000  Uiso   1.00
C203   C     0.88686   0.94680   0.37806   0.00000  Uiso   1.00
C204   C     0.90982   0.96271   0.52076   0.00000  Uiso   1.00
C205   C     0.81231   0.87937   0.38137   0.00000  Uiso   1.00
C206   C     0.82215   0.85050   0.29116   0.00000  Uiso   1.00
C207   C     0.81553   0.82237   0.39414   0.00000  Uiso   1.00
H208   H     0.77549   0.91491   0.78373   0.00000  Uiso   1.00
H209   H     0.70236   0.94340   0.68602   0.00000  Uiso   1.00
H210   H     0.84220   0.94891   0.90213   0.00000  Uiso   1.00
H211   H     0.77750   0.85263   0.81525   0.00000  Uiso   1.00
H212   H     0.62829   0.97467   0.49546   0.00000  Uiso   1.00
H213   H     0.92315   0.98628   0.95117   0.00000  Uiso   1.00
H214   H     0.78673   0.78325   0.76797   0.00000  Uiso   1.00
H215   H     0.82948   0.91234   0.15013   0.00000  Uiso   1.00
H216   H     0.75930   0.94069   0.01763   0.00000  Uiso   1.00
H217   H     0.89914   0.94621   0.23376   0.00000  Uiso   1.00
H218   H     0.83444   0.84992   0.14687   0.00000  Uiso   1.00
H219   H     0.67451   0.97247   0.95297   0.00000  Uiso   1.00
H220   H     0.96937   0.98408   0.40870   0.00000  Uiso   1.00
H221   H     0.83295   0.78106   0.22548   0.00000  Uiso   1.00
O222   O     0.60428   0.99227   0.14850   0.00000  Uiso   1.00
O223   O     0.99112   0.00750   0.74639   0.00000  Uiso   1.00
O224   O     0.81214   0.74114   0.50602   0.00000  Uiso   1.00
N225   N     0.64880   0.97025   0.38596   0.00000  Uiso   1.00
N226   N     0.92447   0.98112   0.81202   0.00000  Uiso   1.00
N227   N     0.79694   0.79130   0.64076   0.00000  Uiso   1.00
N228   N     0.67367   0.96907   0.09406   0.00000  Uiso   1.00
N229   N     0.94934   0.97993   0.52012   0.00000  Uiso   1.00
N230   N     0.82181   0.79012   0.34885   0.00000  Uiso   1.00
C231   C     0.71214   0.08568   0.63857   0.00000  Uiso   1.00
C232   C     0.74439   0.07056   0.49761   0.00000  Uiso   1.00
C233   C     0.78536   0.05718   0.54170   0.00000  Uiso   1.00
C234   C     0.80991   0.04457   0.39256   0.00000  Uiso   1.00
C235   C     0.86239   0.02096   0.20206   0.00000  Uiso   1.00
C236   C     0.66842   0.06756   0.61503   0.00000  Uiso   1.00
C237   C     0.64550   0.05166   0.75786   0.00000  Uiso   1.00
C238   C     0.60609   0.03653   0.70755   0.00000  Uiso   1.00
C239   C     0.54061   0.00829   0.69938   0.00000  Uiso   1.00
C240   C     0.70357   0.11987   0.56782   0.00000  Uiso   1.00
C241   C     0.71021   0.14796   0.67097   0.00000  Uiso   1.00
C242   C     0.70039   0.17687   0.58093   0.00000  Uiso   1.00
C243   C     0.68948   0.22985   0.49946   0.00000  Uiso   1.00
C244   C     0.68289   0.08707   0.29529   0.00000  Uiso   1.00
C245   C     0.72850   0.07131   0.31116   0.00000  Uiso   1.00
C246   C     0.75300   0.05872   0.16190   0.00000  Uiso   1.00
C247   C     0.79400   0.04533   0.20576   0.00000  Uiso   1.00
C248   C     0.65253   0.06831   0.42859   0.00000  Uiso   1.00
C249   C     0.61314   0.05320   0.37806   0.00000  Uiso   1.00
C250   C     0.59018   0.03729   0.52076   0.00000  Uiso   1.00
C251   C     0.68769   0.12063   0.38137   0.00000  Uiso   1.00
C252   C     0.67785   0.14950   0.29116   0.00000  Uiso   1.00
C253   C     0.68447   0.17763   0.39414   0.00000  Uiso   1.00
H254   H     0.72451   0.08509   0.78373   0.00000  Uiso   1.00
H255   H     0.79764   0.05660   0.68602   0.00000  Uiso   1.00
H256   H     0.65780   0.05109   0.90213   0.00000  Uiso   1.00
H257   H     0.72250   0.14737   0.81525   0.00000  Uiso   1.00
H258   H     0.87171   0.02533   0.49546   0.00000  Uiso   1.00
H259   H     0.57685   0.01372   0.95117   0.00000  Uiso   1.00
H260   H     0.71327   0.21675   0.76797   0.00000  Uiso   1.00
H261   H     0.67052   0.08766   0.15013   0.00000  Uiso   1.00
H262   H     0.74070   0.05931   0.01763   0.00000  Uiso   1.00
H263   H     0.60086   0.05379   0.23376   0.00000  Uiso   1.00
H264   H     0.66556   0.15008   0.14687   0.00000  Uiso   1.00
H265   H     0.82549   0.02753   0.95297   0.00000  Uiso   1.00
H266   H     0.53063   0.01592   0.40870   0.00000  Uiso   1.00
H267   H     0.66705   0.21894   0.22548   0.00000  Uiso   1.00
O268   O     0.89572   0.00773   0.14850   0.00000  Uiso   1.00
O269   O     0.50888   0.99250   0.74639   0.00000  Uiso   1.00
O270   O     0.68786   0.25886   0.50602   0.00000  Uiso   1.00
N271   N     0.85120   0.02975   0.38596   0.00000  Uiso   1.00
N272   N     0.57553   0.01888   0.81202   0.00000  Uiso   1.00
N273   N     0.70306   0.20870   0.64076   0.00000  Uiso   1.00
N274   N     0.82633   0.03093   0.09406   0.00000  Uiso   1.00
N275   N     0.55066   0.02007   0.52012   0.00000  Uiso   1.00
N276   N     0.67819   0.20988   0.34885   0.00000  Uiso   1.00
C277   C     0.71214   0.41432   0.86143   0.00000  Uiso   1.00
C278   C     0.74439   0.42944   0.00239   0.00000  Uiso   1.00
C279   C     0.78536   0.44282   0.95830   0.00000  Uiso   1.00
C280   C     0.80991   0.45543   0.10744   0.00000  Uiso   1.00
C281   C     0.86239   0.47904   0.29794   0.00000  Uiso   1.00
C282   C     0.66842   0.43244   0.88497   0.00000  Uiso   1.00
C283   C     0.64550   0.44834   0.74214   0.00000  Uiso   1.00
C284   C     0.60609   0.46347   0.79245   0.00000  Uiso   1.00
C285   C     0.54061   0.49171   0.80062   0.00000  Uiso   1.00
C286   C     0.70357   0.38013   0.93218   0.00000  Uiso   1.00
C287   C     0.71021   0.35204   0.82903   0.00000  Uiso   1.00
C288   C     0.70039   0.32313   0.91907   0.00000  Uiso   1.00
C289   C     0.68948   0.27015   0.00054   0.00000  Uiso   1.00
C290   C     0.68289   0.41293   0.20471   0.00000  Uiso   1.00
C291   C     0.72850   0.42869   0.18884   0.00000  Uiso   1.00
C292   C     0.75300   0.44128   0.33810   0.00000  Uiso   1.00
C293   C     0.79400   0.45467   0.29424   0.00000  Uiso   1.00
C294   C     0.65253   0.43169   0.07141   0.00000  Uiso   1.00
C295   C     0.61314   0.44680   0.12194   0.00000  Uiso   1.00
C296   C     0.59018   0.46271   0.97924   0.00000  Uiso   1.00
C297   C     0.68769   0.37937   0.11863   0.00000  Uiso   1.00
C298   C     0.67785   0.35050   0.20884   0.00000  Uiso   1.00
C299   C     0.68447   0.32237   0.10586   0.00000  Uiso   1.00
H300   H     0.72451   0.41491   0.71627   0.00000  Uiso   1.00
H301   H     0.79764   0.44340   0.81398   0.00000  Uiso   1.00
H302   H     0.65780   0.44891   0.59787   0.00000  Uiso   1.00
H303   H     0.72250   0.35263   0.68475   0.00000  Uiso   1.00
H304   H     0.87171   0.47467   0.00454   0.00000  Uiso   1.00
H305   H     0.57685   0.48628   0.54883   0.00000  Uiso   1.00
H306   H     0.71327   0.28325   0.73203   0.00000  Uiso   1.00
H307   H     0.67052   0.41234   0.34987   0.00000  Uiso   1.00
H308   H     0.74070   0.44069   0.48237   0.00000  Uiso   1.00
H309   H     0.60086   0.44621   0.26624   0.00000  Uiso   1.00
H310   H     0.66556   0.34992   0.35313   0.00000  Uiso   1.00
H311   H     0.82549   0.47247   0.54703   0.00000  Uiso   1.00
H312   H     0.53063   0.48408   0.09130   0.00000  Uiso   1.00
H313   H     0.66705   0.28106   0.27452   0.00000  Uiso   1.00
O314   O     0.89572   0.49227   0.35150   0.00000  Uiso   1.00
O315   O     0.50888   0.50750   0.75361   0.00000  Uiso   1.00
O316   O     0.68786   0.24114   0.99398   0.00000  Uiso   1.00
N317   N     0.85120   0.47025   0.11404   0.00000  Uiso   1.00
N318   N     0.57553   0.48112   0.68798   0.00000  Uiso   1.00
N319   N     0.70306   0.29130   0.85924   0.00000  Uiso   1.00
N320   N     0.82633   0.46907   0.40594   0.00000  Uiso   1.00
N321   N     0.55066   0.47993   0.97988   0.00000  Uiso   1.00
N322   N     0.67819   0.29012   0.15115   0.00000  Uiso   1.00
C323   C     0.78786   0.58568   0.86143   0.00000  Uiso   1.00
C324   C     0.75561   0.57056   0.00239   0.00000  Uiso   1.00
C325   C     0.71464   0.55718   0.95830   0.00000  Uiso   1.00
C326   C     0.69009   0.54457   0.10744   0.00000  Uiso   1.00
C327   C     0.63761   0.52096   0.29794   0.00000  Uiso   1.00
C328   C     0.83158   0.56756   0.88497   0.00000  Uiso   1.00
C329   C     0.85450   0.55166   0.74214   0.00000  Uiso   1.00
C330   C     0.89391   0.53653   0.79245   0.00000  Uiso   1.00
C331   C     0.95939   0.50829   0.80062   0.00000  Uiso   1.00
C332   C     0.79643   0.61987   0.93218   0.00000  Uiso   1.00
C333   C     0.78979   0.64796   0.82903   0.00000  Uiso   1.00
C334   C     0.79961   0.67687   0.91907   0.00000  Uiso   1.00
C335   C     0.81052   0.72985   0.00054   0.00000  Uiso   1.00
C336   C     0.81711   0.58707   0.20471   0.00000  Uiso   1.00
C337   C     0.77150   0.57131   0.18884   0.00000  Uiso   1.00
C338   C     0.74700   0.55872   0.33810   0.00000  Uiso   1.00
C339   C     0.70600   0.54533   0.29424   0.00000  Uiso   1.00
C340   C     0.84747   0.56831   0.07141   0.00000  Uiso   1.00
C341   C     0.88686   0.55320   0.12194   0.00000  Uiso   1.00
C342   C     0.90982   0.53729   0.97924   0.00000  Uiso   1.00
C343   C     0.81231   0.62063   0.11863   0.00000  Uiso   1.00
C344   C     0.82215   0.64950   0.20884   0.00000  Uiso   1.00
C345   C     0.81553   0.67763   0.10586   0.00000  Uiso   1.00
H346   H     0.77549   0.58509   0.71627   0.00000  Uiso   1.00
H347   H     0.70236   0.55660   0.81398   0.00000  Uiso   1.00
H348   H     0.84220   0.55109   0.59787   0.00000  Uiso   1.00
H349   H     0.77750   0.64737   0.68475   0.00000  Uiso   1.00
H350   H     0.62829   0.52533   0.00454   0.00000  Uiso   1.00
H351   H     0.92315   0.51372   0.54883   0.00000  Uiso   1.00
H352   H     0.78673   0.71675   0.73203   0.00000  Uiso   1.00
H353   H     0.82948   0.58766   0.34987   0.00000  Uiso   1.00
H354   H     0.75930   0.55931   0.48237   0.00000  Uiso   1.00
H355   H     0.89914   0.55379   0.26624   0.00000  Uiso   1.00
H356   H     0.83444   0.65008   0.35313   0.00000  Uiso   1.00
H357   H     0.67451   0.52753   0.54703   0.00000  Uiso   1.00
H358   H     0.96937   0.51592   0.09130   0.00000  Uiso   1.00
H359   H     0.83295   0.71894   0.27452   0.00000  Uiso   1.00
O360   O     0.60428   0.50773   0.35150   0.00000  Uiso   1.00
O361   O     0.99112   0.49250   0.75361   0.00000  Uiso   1.00
O362   O     0.81214   0.75886   0.99398   0.00000  Uiso   1.00
N363   N     0.64880   0.52975   0.11404   0.00000  Uiso   1.00
N364   N     0.92447   0.51888   0.68798   0.00000  Uiso   1.00
N365   N     0.79694   0.70870   0.85924   0.00000  Uiso   1.00
N366   N     0.67367   0.53093   0.40594   0.00000  Uiso   1.00
N367   N     0.94934   0.52007   0.97988   0.00000  Uiso   1.00
N368   N     0.82181   0.70988   0.15115   0.00000  Uiso   1.00
