data_job_06527
_audit_creation_date              2018-12-19
_audit_creation_method            'Materials Studio'
_symmetry_space_group_name_H-M    'P1'
_symmetry_Int_Tables_number       1
_symmetry_cell_setting            triclinic
loop_
_symmetry_equiv_pos_as_xyz
  x,y,z
_cell_length_a                    18.8930
_cell_length_b                    21.8251
_cell_length_c                    21.8807
_cell_angle_alpha                 67.9920
_cell_angle_beta                  109.3331
_cell_angle_gamma                 79.3538
loop_
_atom_site_label
_atom_site_type_symbol
_atom_site_fract_x
_atom_site_fract_y
_atom_site_fract_z
_atom_site_U_iso_or_equiv
_atom_site_adp_type
_atom_site_occupancy
C1     C     0.21451   0.40548   0.68352   0.00000  Uiso   1.00
C2     C     0.22267   0.40664   0.61609   0.00000  Uiso   1.00
C3     C     0.20236   0.36327   0.58561   0.00000  Uiso   1.00
C4     C     0.21434   0.37255   0.52393   0.00000  Uiso   1.00
C5     C     0.22230   0.36659   0.42382   0.00000  Uiso   1.00
C6     C     0.29777   0.39364   0.73743   0.00000  Uiso   1.00
C7     C     0.34060   0.33934   0.80897   0.00000  Uiso   1.00
C8     C     0.41579   0.33769   0.84945   0.00000  Uiso   1.00
C9     C     0.54033   0.31158   0.93774   0.00000  Uiso   1.00
C10    C     0.16242   0.48030   0.65914   0.00000  Uiso   1.00
C11    C     0.09146   0.49887   0.66486   0.00000  Uiso   1.00
C12    C     0.05271   0.57018   0.63943   0.00000  Uiso   1.00
C13    C     0.96709   0.67862   0.60615   0.00000  Uiso   1.00
C14    C     0.27189   0.49908   0.62820   0.00000  Uiso   1.00
C15    C     0.25384   0.45748   0.58604   0.00000  Uiso   1.00
C16    C     0.26585   0.46683   0.52439   0.00000  Uiso   1.00
C17    C     0.24556   0.42348   0.49382   0.00000  Uiso   1.00
C18    C     0.32894   0.44447   0.70739   0.00000  Uiso   1.00
C19    C     0.40409   0.44290   0.74776   0.00000  Uiso   1.00
C20    C     0.44702   0.38862   0.81934   0.00000  Uiso   1.00
C21    C     0.19359   0.53114   0.62908   0.00000  Uiso   1.00
C22    C     0.15494   0.60243   0.60365   0.00000  Uiso   1.00
C23    C     0.08393   0.62111   0.60933   0.00000  Uiso   1.00
H24    H     0.19025   0.36590   0.70692   0.00000  Uiso   1.00
H25    H     0.17825   0.32393   0.60888   0.00000  Uiso   1.00
H26    H     0.31646   0.30001   0.83222   0.00000  Uiso   1.00
H27    H     0.06736   0.45952   0.68812   0.00000  Uiso   1.00
H28    H     0.17871   0.29980   0.48695   0.00000  Uiso   1.00
H29    H     0.47013   0.24939   0.95787   0.00000  Uiso   1.00
H30    H     0.94485   0.58573   0.65402   0.00000  Uiso   1.00
H31    H     0.29616   0.53866   0.60480   0.00000  Uiso   1.00
H32    H     0.28997   0.50618   0.50115   0.00000  Uiso   1.00
H33    H     0.42818   0.48226   0.72449   0.00000  Uiso   1.00
H34    H     0.17908   0.64176   0.58040   0.00000  Uiso   1.00
H35    H     0.26939   0.44772   0.39951   0.00000  Uiso   1.00
H36    H     0.56081   0.39730   0.87044   0.00000  Uiso   1.00
H37    H     0.03553   0.73365   0.56659   0.00000  Uiso   1.00
O38    O     0.21809   0.34925   0.37691   0.00000  Uiso   1.00
O39    O     0.60042   0.28312   0.99474   0.00000  Uiso   1.00
O40    O     0.91126   0.72439   0.59609   0.00000  Uiso   1.00
N41    N     0.20089   0.33908   0.48059   0.00000  Uiso   1.00
N42    N     0.47336   0.29194   0.92087   0.00000  Uiso   1.00
N43    N     0.98227   0.60639   0.63681   0.00000  Uiso   1.00
N44    N     0.24968   0.41867   0.43354   0.00000  Uiso   1.00
N45    N     0.52215   0.37153   0.87382   0.00000  Uiso   1.00
N46    N     0.03106   0.68598   0.58976   0.00000  Uiso   1.00
C47    C     0.47799   0.02402   0.33307   0.00000  Uiso   1.00
C48    C     0.52261   0.07521   0.33556   0.00000  Uiso   1.00
C49    C     0.48740   0.14783   0.30541   0.00000  Uiso   1.00
C50    C     0.53860   0.18539   0.31355   0.00000  Uiso   1.00
C51    C     0.59520   0.27005   0.31177   0.00000  Uiso   1.00
C52    C     0.50995   0.98455   0.29764   0.00000  Uiso   1.00
C53    C     0.46409   0.98093   0.23561   0.00000  Uiso   1.00
C54    C     0.50463   0.94215   0.21184   0.00000  Uiso   1.00
C55    C     0.54156   0.88601   0.15122   0.00000  Uiso   1.00
C56    C     0.50664   0.96951   0.41263   0.00000  Uiso   1.00
C57    C     0.45799   0.95323   0.44729   0.00000  Uiso   1.00
C58    C     0.49574   0.90178   0.52032   0.00000  Uiso   1.00
C59    C     0.52753   0.82228   0.63824   0.00000  Uiso   1.00
C60    C     0.63153   0.96158   0.40114   0.00000  Uiso   1.00
C61    C     0.60601   0.04130   0.37254   0.00000  Uiso   1.00
C62    C     0.65728   0.07876   0.38073   0.00000  Uiso   1.00
C63    C     0.62215   0.15142   0.35059   0.00000  Uiso   1.00
C64    C     0.59334   0.95064   0.33462   0.00000  Uiso   1.00
C65    C     0.63396   0.91185   0.31093   0.00000  Uiso   1.00
C66    C     0.58817   0.90818   0.24888   0.00000  Uiso   1.00
C67    C     0.59003   0.93560   0.44961   0.00000  Uiso   1.00
C68    C     0.62787   0.88416   0.52260   0.00000  Uiso   1.00
C69    C     0.57929   0.86780   0.55736   0.00000  Uiso   1.00
H70    H     0.41307   0.05042   0.30428   0.00000  Uiso   1.00
H71    H     0.42286   0.17406   0.27679   0.00000  Uiso   1.00
H72    H     0.39955   0.00717   0.20702   0.00000  Uiso   1.00
H73    H     0.39346   0.97948   0.41866   0.00000  Uiso   1.00
H74    H     0.47050   0.29618   0.26261   0.00000  Uiso   1.00
H75    H     0.42134   0.94428   0.11549   0.00000  Uiso   1.00
H76    H     0.40849   0.88588   0.56178   0.00000  Uiso   1.00
H77    H     0.69646   0.93518   0.42993   0.00000  Uiso   1.00
H78    H     0.72181   0.05250   0.40934   0.00000  Uiso   1.00
H79    H     0.69850   0.88562   0.33956   0.00000  Uiso   1.00
H80    H     0.69240   0.85793   0.55120   0.00000  Uiso   1.00
H81    H     0.71314   0.19753   0.37018   0.00000  Uiso   1.00
H82    H     0.66398   0.84561   0.22306   0.00000  Uiso   1.00
H83    H     0.65113   0.78722   0.66935   0.00000  Uiso   1.00
O84    O     0.60338   0.32611   0.30056   0.00000  Uiso   1.00
O85    O     0.53888   0.86441   0.10756   0.00000  Uiso   1.00
O86    O     0.52202   0.78781   0.69307   0.00000  Uiso   1.00
N87    N     0.52413   0.25686   0.29076   0.00000  Uiso   1.00
N88    N     0.47817   0.92786   0.15321   0.00000  Uiso   1.00
N89    N     0.46615   0.87325   0.57044   0.00000  Uiso   1.00
N90    N     0.65469   0.20377   0.34865   0.00000  Uiso   1.00
N91    N     0.60873   0.87477   0.21110   0.00000  Uiso   1.00
N92    N     0.59671   0.82016   0.62833   0.00000  Uiso   1.00
C93    C     0.46746   0.70587   0.03270   0.00000  Uiso   1.00
C94    C     0.51749   0.63684   0.10374   0.00000  Uiso   1.00
C95    C     0.52578   0.62541   0.17296   0.00000  Uiso   1.00
C96    C     0.57424   0.55856   0.23099   0.00000  Uiso   1.00
C97    C     0.64606   0.45951   0.34296   0.00000  Uiso   1.00
C98    C     0.52472   0.72545   0.99984   0.00000  Uiso   1.00
C99    C     0.53908   0.78853   0.98168   0.00000  Uiso   1.00
C100   C     0.59362   0.79627   0.95224   0.00000  Uiso   1.00
C101   C     0.67662   0.83481   0.90285   0.00000  Uiso   1.00
C102   C     0.40906   0.68789   0.98080   0.00000  Uiso   1.00
C103   C     0.32617   0.71941   0.94662   0.00000  Uiso   1.00
C104   C     0.28334   0.69554   0.90114   0.00000  Uiso   1.00
C105   C     0.18676   0.67577   0.82219   0.00000  Uiso   1.00
C106   C     0.53879   0.60746   0.01268   0.00000  Uiso   1.00
C107   C     0.55624   0.58339   0.09287   0.00000  Uiso   1.00
C108   C     0.60470   0.51653   0.15081   0.00000  Uiso   1.00
C109   C     0.61305   0.50501   0.22010   0.00000  Uiso   1.00
C110   C     0.56347   0.67200   0.98896   0.00000  Uiso   1.00
C111   C     0.61800   0.67965   0.95953   0.00000  Uiso   1.00
C112   C     0.63243   0.74272   0.94135   0.00000  Uiso   1.00
C113   C     0.44781   0.63444   0.96993   0.00000  Uiso   1.00
C114   C     0.40509   0.61052   0.92448   0.00000  Uiso   1.00
C115   C     0.32215   0.64199   0.89024   0.00000  Uiso   1.00
H116   H     0.43730   0.74749   0.04117   0.00000  Uiso   1.00
H117   H     0.49579   0.66679   0.18135   0.00000  Uiso   1.00
H118   H     0.50908   0.82989   0.99010   0.00000  Uiso   1.00
H119   H     0.29621   0.76077   0.95505   0.00000  Uiso   1.00
H120   H     0.57775   0.55376   0.33198   0.00000  Uiso   1.00
H121   H     0.60575   0.89766   0.92870   0.00000  Uiso   1.00
H122   H     0.15687   0.75192   0.85479   0.00000  Uiso   1.00
H123   H     0.56896   0.56585   0.00421   0.00000  Uiso   1.00
H124   H     0.63467   0.47518   0.14237   0.00000  Uiso   1.00
H125   H     0.64796   0.63828   0.95112   0.00000  Uiso   1.00
H126   H     0.43509   0.56916   0.91607   0.00000  Uiso   1.00
H127   H     0.69047   0.39825   0.30035   0.00000  Uiso   1.00
H128   H     0.71847   0.74215   0.89706   0.00000  Uiso   1.00
H129   H     0.26959   0.59640   0.82315   0.00000  Uiso   1.00
O130   O     0.67499   0.41965   0.40773   0.00000  Uiso   1.00
O131   O     0.71170   0.87084   0.87861   0.00000  Uiso   1.00
O132   O     0.12279   0.67962   0.78165   0.00000  Uiso   1.00
N133   N     0.59525   0.52960   0.30558   0.00000  Uiso   1.00
N134   N     0.62143   0.85112   0.92854   0.00000  Uiso   1.00
N135   N     0.20177   0.71488   0.85942   0.00000  Uiso   1.00
N136   N     0.65590   0.44592   0.28855   0.00000  Uiso   1.00
N137   N     0.68209   0.76744   0.91151   0.00000  Uiso   1.00
N138   N     0.26242   0.63119   0.84240   0.00000  Uiso   1.00
C139   C     0.11012   0.99137   0.45568   0.00000  Uiso   1.00
C140   C     0.18064   0.92887   0.52286   0.00000  Uiso   1.00
C141   C     0.18293   0.85980   0.55423   0.00000  Uiso   1.00
C142   C     0.25298   0.81028   0.61549   0.00000  Uiso   1.00
C143   C     0.35255   0.71034   0.71540   0.00000  Uiso   1.00
C144   C     0.14280   0.02253   0.40068   0.00000  Uiso   1.00
C145   C     0.11327   0.03222   0.32932   0.00000  Uiso   1.00
C146   C     0.15146   0.06155   0.28773   0.00000  Uiso   1.00
C147   C     0.19224   0.10707   0.19793   0.00000  Uiso   1.00
C148   C     0.08941   0.04660   0.47982   0.00000  Uiso   1.00
C149   C     0.01497   0.07655   0.47499   0.00000  Uiso   1.00
C150   C     0.00821   0.12616   0.50001   0.00000  Uiso   1.00
C151   C     0.96609   0.20906   0.53310   0.00000  Uiso   1.00
C152   C     0.23046   0.02623   0.50869   0.00000  Uiso   1.00
C153   C     0.24600   0.94781   0.55165   0.00000  Uiso   1.00
C154   C     0.31607   0.89837   0.61288   0.00000  Uiso   1.00
C155   C     0.31846   0.82925   0.64433   0.00000  Uiso   1.00
C156   C     0.20816   0.04146   0.42947   0.00000  Uiso   1.00
C157   C     0.24641   0.07079   0.38797   0.00000  Uiso   1.00
C158   C     0.21694   0.08052   0.31657   0.00000  Uiso   1.00
C159   C     0.15477   0.06554   0.50862   0.00000  Uiso   1.00
C160   C     0.14812   0.11512   0.53364   0.00000  Uiso   1.00
C161   C     0.07369   0.14513   0.52885   0.00000  Uiso   1.00
H162   H     0.05924   0.97663   0.43326   0.00000  Uiso   1.00
H163   H     0.13234   0.84517   0.53193   0.00000  Uiso   1.00
H164   H     0.06268   0.01757   0.30705   0.00000  Uiso   1.00
H165   H     0.96441   0.06189   0.45271   0.00000  Uiso   1.00
H166   H     0.24222   0.70777   0.65400   0.00000  Uiso   1.00
H167   H     0.09532   0.07130   0.17983   0.00000  Uiso   1.00
H168   H     0.88809   0.16476   0.48696   0.00000  Uiso   1.00
H169   H     0.28135   0.04098   0.53111   0.00000  Uiso   1.00
H170   H     0.36664   0.91304   0.63515   0.00000  Uiso   1.00
H171   H     0.29698   0.08544   0.41027   0.00000  Uiso   1.00
H172   H     0.19871   0.12976   0.55592   0.00000  Uiso   1.00
H173   H     0.43239   0.76285   0.73777   0.00000  Uiso   1.00
H174   H     0.28549   0.12639   0.26360   0.00000  Uiso   1.00
H175   H     0.07826   0.21985   0.57074   0.00000  Uiso   1.00
O176   O     0.38941   0.64999   0.76254   0.00000  Uiso   1.00
O177   O     0.19668   0.12693   0.14045   0.00000  Uiso   1.00
O178   O     0.92480   0.24955   0.54340   0.00000  Uiso   1.00
N179   N     0.27526   0.73829   0.65945   0.00000  Uiso   1.00
N180   N     0.13793   0.07816   0.21613   0.00000  Uiso   1.00
N181   N     0.94418   0.16555   0.50325   0.00000  Uiso   1.00
N182   N     0.37759   0.76793   0.70452   0.00000  Uiso   1.00
N183   N     0.24026   0.10780   0.26121   0.00000  Uiso   1.00
N184   N     0.04651   0.19519   0.54833   0.00000  Uiso   1.00
C185   C     0.75688   0.34471   0.73644   0.00000  Uiso   1.00
C186   C     0.74793   0.42172   0.71506   0.00000  Uiso   1.00
C187   C     0.74761   0.45364   0.75921   0.00000  Uiso   1.00
C188   C     0.73875   0.52462   0.72958   0.00000  Uiso   1.00
C189   C     0.72615   0.63846   0.70723   0.00000  Uiso   1.00
C190   C     0.82868   0.31379   0.72612   0.00000  Uiso   1.00
C191   C     0.89624   0.25496   0.77957   0.00000  Uiso   1.00
C192   C     0.95533   0.23507   0.75923   0.00000  Uiso   1.00
C193   C     0.06807   0.18131   0.75404   0.00000  Uiso   1.00
C194   C     0.68364   0.34611   0.67826   0.00000  Uiso   1.00
C195   C     0.62925   0.31445   0.69147   0.00000  Uiso   1.00
C196   C     0.56625   0.32176   0.63084   0.00000  Uiso   1.00
C197   C     0.45379   0.31819   0.55134   0.00000  Uiso   1.00
C198   C     0.74170   0.41399   0.60528   0.00000  Uiso   1.00
C199   C     0.73969   0.45935   0.64382   0.00000  Uiso   1.00
C200   C     0.73082   0.53030   0.61410   0.00000  Uiso   1.00
C201   C     0.73048   0.56232   0.65820   0.00000  Uiso   1.00
C202   C     0.82044   0.35141   0.65488   0.00000  Uiso   1.00
C203   C     0.87945   0.33161   0.63445   0.00000  Uiso   1.00
C204   C     0.94708   0.27277   0.68786   0.00000  Uiso   1.00
C205   C     0.67539   0.38374   0.60701   0.00000  Uiso   1.00
C206   C     0.61247   0.39110   0.54635   0.00000  Uiso   1.00
C207   C     0.55799   0.35946   0.55947   0.00000  Uiso   1.00
H208   H     0.76330   0.31541   0.79190   0.00000  Uiso   1.00
H209   H     0.75400   0.42450   0.81435   0.00000  Uiso   1.00
H210   H     0.90259   0.22584   0.83469   0.00000  Uiso   1.00
H211   H     0.63565   0.28533   0.74661   0.00000  Uiso   1.00
H212   H     0.74008   0.56204   0.80782   0.00000  Uiso   1.00
H213   H     0.05339   0.14314   0.85071   0.00000  Uiso   1.00
H214   H     0.49049   0.26857   0.66497   0.00000  Uiso   1.00
H215   H     0.73529   0.44329   0.54981   0.00000  Uiso   1.00
H216   H     0.72445   0.55940   0.55897   0.00000  Uiso   1.00
H217   H     0.87305   0.36074   0.57932   0.00000  Uiso   1.00
H218   H     0.60611   0.42023   0.49123   0.00000  Uiso   1.00
H219   H     0.71610   0.67153   0.60055   0.00000  Uiso   1.00
H220   H     0.02941   0.25262   0.64344   0.00000  Uiso   1.00
H221   H     0.46651   0.37806   0.45769   0.00000  Uiso   1.00
O222   O     0.72149   0.69085   0.71459   0.00000  Uiso   1.00
O223   O     0.13253   0.14126   0.77086   0.00000  Uiso   1.00
O224   O     0.39403   0.30583   0.52716   0.00000  Uiso   1.00
N225   N     0.73591   0.57187   0.75778   0.00000  Uiso   1.00
N226   N     0.02884   0.18024   0.79788   0.00000  Uiso   1.00
N227   N     0.50259   0.29749   0.62423   0.00000  Uiso   1.00
N228   N     0.72300   0.63079   0.64625   0.00000  Uiso   1.00
N229   N     0.01593   0.23915   0.68635   0.00000  Uiso   1.00
N230   N     0.48969   0.35640   0.51270   0.00000  Uiso   1.00
C231   C     0.01146   0.69003   0.03746   0.00000  Uiso   1.00
C232   C     0.98177   0.69435   0.96160   0.00000  Uiso   1.00
C233   C     0.91202   0.74418   0.90028   0.00000  Uiso   1.00
C234   C     0.89543   0.73916   0.83595   0.00000  Uiso   1.00
C235   C     0.84155   0.75394   0.71858   0.00000  Uiso   1.00
C236   C     0.09563   0.69301   0.05687   0.00000  Uiso   1.00
C237   C     0.12161   0.74171   0.07565   0.00000  Uiso   1.00
C238   C     0.20088   0.73555   0.09153   0.00000  Uiso   1.00
C239   C     0.32378   0.74822   0.12211   0.00000  Uiso   1.00
C240   C     0.02179   0.61591   0.09036   0.00000  Uiso   1.00
C241   C     0.98569   0.59978   0.13731   0.00000  Uiso   1.00
C242   C     0.00280   0.52871   0.18140   0.00000  Uiso   1.00
C243   C     0.01104   0.42167   0.26397   0.00000  Uiso   1.00
C244   C     0.10604   0.59250   0.03227   0.00000  Uiso   1.00
C245   C     0.03315   0.64137   0.95879   0.00000  Uiso   1.00
C246   C     0.01667   0.63627   0.89453   0.00000  Uiso   1.00
C247   C     0.94690   0.68609   0.83313   0.00000  Uiso   1.00
C248   C     0.14701   0.64003   0.05405   0.00000  Uiso   1.00
C249   C     0.22626   0.63380   0.06991   0.00000  Uiso   1.00
C250   C     0.25235   0.68248   0.08870   0.00000  Uiso   1.00
C251   C     0.07316   0.56293   0.08754   0.00000  Uiso   1.00
C252   C     0.09034   0.49187   0.13156   0.00000  Uiso   1.00
C253   C     0.05427   0.47564   0.17857   0.00000  Uiso   1.00
H254   H     0.97146   0.73128   0.03966   0.00000  Uiso   1.00
H255   H     0.87228   0.78517   0.90248   0.00000  Uiso   1.00
H256   H     0.08184   0.78269   0.07784   0.00000  Uiso   1.00
H257   H     0.94594   0.64079   0.13948   0.00000  Uiso   1.00
H258   H     0.78499   0.82158   0.74915   0.00000  Uiso   1.00
H259   H     0.22687   0.81634   0.11891   0.00000  Uiso   1.00
H260   H     0.94029   0.51710   0.24890   0.00000  Uiso   1.00
H261   H     0.14604   0.55125   0.03008   0.00000  Uiso   1.00
H262   H     0.05643   0.59527   0.89237   0.00000  Uiso   1.00
H263   H     0.26600   0.59280   0.06772   0.00000  Uiso   1.00
H264   H     0.13010   0.45089   0.12936   0.00000  Uiso   1.00
H265   H     0.93446   0.66745   0.74094   0.00000  Uiso   1.00
H266   H     0.37634   0.66221   0.11070   0.00000  Uiso   1.00
H267   H     0.08976   0.36297   0.24069   0.00000  Uiso   1.00
O268   O     0.79764   0.77673   0.65462   0.00000  Uiso   1.00
O269   O     0.37737   0.76985   0.13975   0.00000  Uiso   1.00
O270   O     0.00139   0.37726   0.31029   0.00000  Uiso   1.00
N271   N     0.83245   0.77926   0.76612   0.00000  Uiso   1.00
N272   N     0.24559   0.77436   0.11181   0.00000  Uiso   1.00
N273   N     0.97768   0.49460   0.23336   0.00000  Uiso   1.00
N274   N     0.91288   0.69632   0.76170   0.00000  Uiso   1.00
N275   N     0.32601   0.69143   0.10739   0.00000  Uiso   1.00
N276   N     0.05810   0.41167   0.22894   0.00000  Uiso   1.00
C277   C     0.81846   0.69222   0.38423   0.00000  Uiso   1.00
C278   C     0.73795   0.70714   0.38732   0.00000  Uiso   1.00
C279   C     0.71643   0.73916   0.42581   0.00000  Uiso   1.00
C280   C     0.63999   0.74808   0.42167   0.00000  Uiso   1.00
C281   C     0.52303   0.77467   0.43270   0.00000  Uiso   1.00
C282   C     0.79944   0.72831   0.30310   0.00000  Uiso   1.00
C283   C     0.82962   0.77811   0.27080   0.00000  Uiso   1.00
C284   C     0.80495   0.80484   0.19577   0.00000  Uiso   1.00
C285   C     0.78349   0.86426   0.07607   0.00000  Uiso   1.00
C286   C     0.85119   0.61307   0.41030   0.00000  Uiso   1.00
C287   C     0.92489   0.56597   0.46812   0.00000  Uiso   1.00
C288   C     0.94380   0.49568   0.48334   0.00000  Uiso   1.00
C289   C     0.00269   0.37617   0.53008   0.00000  Uiso   1.00
C290   C     0.72100   0.65114   0.30843   0.00000  Uiso   1.00
C291   C     0.68502   0.68483   0.34614   0.00000  Uiso   1.00
C292   C     0.60860   0.69370   0.34195   0.00000  Uiso   1.00
C293   C     0.58696   0.72572   0.38043   0.00000  Uiso   1.00
C294   C     0.74650   0.70600   0.26193   0.00000  Uiso   1.00
C295   C     0.72179   0.73266   0.18694   0.00000  Uiso   1.00
C296   C     0.75192   0.78249   0.15452   0.00000  Uiso   1.00
C297   C     0.79825   0.59075   0.36913   0.00000  Uiso   1.00
C298   C     0.81706   0.52052   0.38426   0.00000  Uiso   1.00
C299   C     0.89077   0.47333   0.44209   0.00000  Uiso   1.00
H300   H     0.85967   0.70960   0.41628   0.00000  Uiso   1.00
H301   H     0.75741   0.75642   0.45766   0.00000  Uiso   1.00
H302   H     0.87059   0.79536   0.30268   0.00000  Uiso   1.00
H303   H     0.96584   0.58326   0.49997   0.00000  Uiso   1.00
H304   H     0.62068   0.79852   0.48537   0.00000  Uiso   1.00
H305   H     0.85934   0.88061   0.15858   0.00000  Uiso   1.00
H306   H     0.06020   0.43335   0.57461   0.00000  Uiso   1.00
H307   H     0.67979   0.63377   0.27637   0.00000  Uiso   1.00
H308   H     0.56765   0.67643   0.31008   0.00000  Uiso   1.00
H309   H     0.68083   0.71538   0.15509   0.00000  Uiso   1.00
H310   H     0.77608   0.50327   0.35239   0.00000  Uiso   1.00
H311   H     0.46666   0.73360   0.36558   0.00000  Uiso   1.00
H312   H     0.70533   0.81569   0.03879   0.00000  Uiso   1.00
H313   H     0.90618   0.36843   0.45482   0.00000  Uiso   1.00
O314   O     0.47314   0.79552   0.45015   0.00000  Uiso   1.00
O315   O     0.78627   0.90321   0.02142   0.00000  Uiso   1.00
O316   O     0.04979   0.31642   0.56725   0.00000  Uiso   1.00
N317   N     0.59982   0.77737   0.45256   0.00000  Uiso   1.00
N318   N     0.82295   0.85413   0.14703   0.00000  Uiso   1.00
N319   N     0.01075   0.43599   0.53597   0.00000  Uiso   1.00
N320   N     0.51695   0.74244   0.38811   0.00000  Uiso   1.00
N321   N     0.74008   0.81920   0.08257   0.00000  Uiso   1.00
N322   N     0.92787   0.40105   0.47152   0.00000  Uiso   1.00
C323   C     0.49413   0.01600   0.73958   0.00000  Uiso   1.00
C324   C     0.42733   0.00637   0.76248   0.00000  Uiso   1.00
C325   C     0.41962   0.94228   0.79865   0.00000  Uiso   1.00
C326   C     0.35432   0.94467   0.81476   0.00000  Uiso   1.00
C327   C     0.25907   0.91994   0.85330   0.00000  Uiso   1.00
C328   C     0.53228   0.05746   0.77473   0.00000  Uiso   1.00
C329   C     0.61280   0.03634   0.82119   0.00000  Uiso   1.00
C330   C     0.63583   0.08174   0.84762   0.00000  Uiso   1.00
C331   C     0.70352   0.13637   0.90513   0.00000  Uiso   1.00
C332   C     0.45270   0.06517   0.65708   0.00000  Uiso   1.00
C333   C     0.46633   0.05054   0.60462   0.00000  Uiso   1.00
C334   C     0.42237   0.10244   0.53198   0.00000  Uiso   1.00
C335   C     0.36650   0.16903   0.40683   0.00000  Uiso   1.00
C336   C     0.39186   0.13420   0.70388   0.00000  Uiso   1.00
C337   C     0.37178   0.07057   0.74309   0.00000  Uiso   1.00
C338   C     0.30647   0.07306   0.75915   0.00000  Uiso   1.00
C339   C     0.29866   0.00899   0.79533   0.00000  Uiso   1.00
C340   C     0.47673   0.12166   0.75534   0.00000  Uiso   1.00
C341   C     0.49965   0.16711   0.78170   0.00000  Uiso   1.00
C342   C     0.58018   0.14606   0.82819   0.00000  Uiso   1.00
C343   C     0.39714   0.12937   0.63769   0.00000  Uiso   1.00
C344   C     0.35317   0.18131   0.56512   0.00000  Uiso   1.00
C345   C     0.36672   0.16676   0.51256   0.00000  Uiso   1.00
H346   H     0.53738   0.96602   0.75468   0.00000  Uiso   1.00
H347   H     0.46263   0.89261   0.81365   0.00000  Uiso   1.00
H348   H     0.65578   0.98665   0.83618   0.00000  Uiso   1.00
H349   H     0.50932   0.00085   0.61964   0.00000  Uiso   1.00
H350   H     0.35527   0.83953   0.87050   0.00000  Uiso   1.00
H351   H     0.76254   0.03784   0.91800   0.00000  Uiso   1.00
H352   H     0.45371   0.06777   0.46138   0.00000  Uiso   1.00
H353   H     0.34861   0.18419   0.68879   0.00000  Uiso   1.00
H354   H     0.26349   0.12275   0.74414   0.00000  Uiso   1.00
H355   H     0.45664   0.21679   0.76668   0.00000  Uiso   1.00
H356   H     0.31018   0.23099   0.55014   0.00000  Uiso   1.00
H357   H     0.19364   0.02632   0.81409   0.00000  Uiso   1.00
H358   H     0.60091   0.22464   0.86158   0.00000  Uiso   1.00
H359   H     0.29208   0.25457   0.40496   0.00000  Uiso   1.00
O360   O     0.22189   0.88857   0.87992   0.00000  Uiso   1.00
O361   O     0.75621   0.14876   0.94222   0.00000  Uiso   1.00
O362   O     0.35103   0.18802   0.34315   0.00000  Uiso   1.00
N363   N     0.32890   0.89192   0.84961   0.00000  Uiso   1.00
N364   N     0.70967   0.07733   0.89403   0.00000  Uiso   1.00
N365   N     0.42096   0.10532   0.46713   0.00000  Uiso   1.00
N366   N     0.24193   0.99243   0.81926   0.00000  Uiso   1.00
N367   N     0.62270   0.17784   0.86367   0.00000  Uiso   1.00
N368   N     0.33399   0.20583   0.43678   0.00000  Uiso   1.00
C369   C     0.32763   0.40400   0.04743   0.00000  Uiso   1.00
C370   C     0.24338   0.41724   0.99412   0.00000  Uiso   1.00
C371   C     0.20102   0.47114   0.92236   0.00000  Uiso   1.00
C372   C     0.12477   0.47426   0.88253   0.00000  Uiso   1.00
C373   C     0.99894   0.50226   0.79505   0.00000  Uiso   1.00
C374   C     0.37740   0.32824   0.07238   0.00000  Uiso   1.00
C375   C     0.44773   0.30732   0.06641   0.00000  Uiso   1.00
C376   C     0.48429   0.23551   0.09247   0.00000  Uiso   1.00
C377   C     0.56656   0.12533   0.12653   0.00000  Uiso   1.00
C378   C     0.32092   0.40462   0.11477   0.00000  Uiso   1.00
C379   C     0.34377   0.44791   0.14446   0.00000  Uiso   1.00
C380   C     0.33280   0.44041   0.20621   0.00000  Uiso   1.00
C381   C     0.32737   0.44882   0.30609   0.00000  Uiso   1.00
C382   C     0.26753   0.31368   0.10432   0.00000  Uiso   1.00
C383   C     0.21075   0.36818   0.02503   0.00000  Uiso   1.00
C384   C     0.13453   0.37122   0.98530   0.00000  Uiso   1.00
C385   C     0.09206   0.42512   0.91349   0.00000  Uiso   1.00
C386   C     0.34477   0.27918   0.10328   0.00000  Uiso   1.00
C387   C     0.38124   0.20739   0.12935   0.00000  Uiso   1.00
C388   C     0.45160   0.18637   0.12343   0.00000  Uiso   1.00
C389   C     0.28828   0.35557   0.14567   0.00000  Uiso   1.00
C390   C     0.27728   0.34799   0.20740   0.00000  Uiso   1.00
C391   C     0.30011   0.39126   0.23717   0.00000  Uiso   1.00
H392   H     0.35304   0.44219   0.02337   0.00000  Uiso   1.00
H393   H     0.22631   0.50909   0.89846   0.00000  Uiso   1.00
H394   H     0.47298   0.34529   0.04250   0.00000  Uiso   1.00
H395   H     0.36903   0.48587   0.12053   0.00000  Uiso   1.00
H396   H     0.07141   0.56162   0.77359   0.00000  Uiso   1.00
H397   H     0.59154   0.21623   0.07733   0.00000  Uiso   1.00
H398   H     0.37236   0.51266   0.24187   0.00000  Uiso   1.00
H399   H     0.24212   0.27549   0.12838   0.00000  Uiso   1.00
H400   H     0.10929   0.33325   0.00923   0.00000  Uiso   1.00
H401   H     0.35597   0.16945   0.15327   0.00000  Uiso   1.00
H402   H     0.25202   0.31002   0.23130   0.00000  Uiso   1.00
H403   H     0.97644   0.41890   0.86349   0.00000  Uiso   1.00
H404   H     0.49658   0.07351   0.16724   0.00000  Uiso   1.00
H405   H     0.27738   0.36994   0.33177   0.00000  Uiso   1.00
O406   O     0.93855   0.53125   0.73826   0.00000  Uiso   1.00
O407   O     0.62096   0.07811   0.13677   0.00000  Uiso   1.00
O408   O     0.33339   0.46703   0.35263   0.00000  Uiso   1.00
N409   N     0.06728   0.52011   0.81111   0.00000  Uiso   1.00
N410   N     0.55357   0.19720   0.09508   0.00000  Uiso   1.00
N411   N     0.34867   0.47432   0.24892   0.00000  Uiso   1.00
N412   N     0.01618   0.44331   0.85948   0.00000  Uiso   1.00
N413   N     0.50246   0.12040   0.14345   0.00000  Uiso   1.00
N414   N     0.29756   0.39752   0.29729   0.00000  Uiso   1.00
C415   C     0.88037   0.07376   0.66367   0.00000  Uiso   1.00
C416   C     0.79397   0.12155   0.60907   0.00000  Uiso   1.00
C417   C     0.76847   0.19312   0.56155   0.00000  Uiso   1.00
C418   C     0.68689   0.22747   0.51590   0.00000  Uiso   1.00
C419   C     0.56096   0.30716   0.43086   0.00000  Uiso   1.00
C420   C     0.88035   0.04097   0.73867   0.00000  Uiso   1.00
C421   C     0.92749   0.04478   0.80012   0.00000  Uiso   1.00
C422   C     0.91864   0.01129   0.86357   0.00000  Uiso   1.00
C423   C     0.92685   0.96584   0.97975   0.00000  Uiso   1.00
C424   C     0.89858   0.01335   0.64562   0.00000  Uiso   1.00
C425   C     0.96105   0.99392   0.62884   0.00000  Uiso   1.00
C426   C     0.96756   0.93717   0.61396   0.00000  Uiso   1.00
C427   C     0.00408   0.84884   0.58566   0.00000  Uiso   1.00
C428   C     0.78085   0.00751   0.66709   0.00000  Uiso   1.00
C429   C     0.73992   0.08556   0.61093   0.00000  Uiso   1.00
C430   C     0.65836   0.11982   0.56533   0.00000  Uiso   1.00
C431   C     0.63274   0.19142   0.51775   0.00000  Uiso   1.00
C432   C     0.82630   0.00499   0.74053   0.00000  Uiso   1.00
C433   C     0.81738   0.97148   0.80390   0.00000  Uiso   1.00
C434   C     0.86449   0.97525   0.86543   0.00000  Uiso   1.00
C435   C     0.84453   0.97737   0.64747   0.00000  Uiso   1.00
C436   C     0.85094   0.92063   0.63262   0.00000  Uiso   1.00
C437   C     0.91341   0.90112   0.61582   0.00000  Uiso   1.00
H438   H     0.92245   0.10177   0.66223   0.00000  Uiso   1.00
H439   H     0.81032   0.22095   0.56014   0.00000  Uiso   1.00
H440   H     0.96932   0.07262   0.79867   0.00000  Uiso   1.00
H441   H     0.00287   0.02178   0.62741   0.00000  Uiso   1.00
H442   H     0.66215   0.33721   0.44779   0.00000  Uiso   1.00
H443   H     0.99743   0.02445   0.95075   0.00000  Uiso   1.00
H444   H     0.06819   0.91723   0.58963   0.00000  Uiso   1.00
H445   H     0.73877   0.97949   0.66853   0.00000  Uiso   1.00
H446   H     0.61655   0.09196   0.56678   0.00000  Uiso   1.00
H447   H     0.77555   0.94364   0.80532   0.00000  Uiso   1.00
H448   H     0.80910   0.89280   0.63406   0.00000  Uiso   1.00
H449   H     0.50488   0.23252   0.45318   0.00000  Uiso   1.00
H450   H     0.84017   0.91976   0.95615   0.00000  Uiso   1.00
H451   H     0.91092   0.81254   0.59502   0.00000  Uiso   1.00
O452   O     0.50643   0.36106   0.38345   0.00000  Uiso   1.00
O453   O     0.94632   0.95072   0.04333   0.00000  Uiso   1.00
O454   O     0.03914   0.81006   0.56953   0.00000  Uiso   1.00
N455   N     0.64191   0.29713   0.46301   0.00000  Uiso   1.00
N456   N     0.95537   0.00473   0.93325   0.00000  Uiso   1.00
N457   N     0.02154   0.90448   0.59565   0.00000  Uiso   1.00
N458   N     0.55729   0.24080   0.46591   0.00000  Uiso   1.00
N459   N     0.87075   0.94840   0.93615   0.00000  Uiso   1.00
N460   N     0.93691   0.84815   0.59855   0.00000  Uiso   1.00
C461   C     0.31984   0.64218   0.38804   0.00000  Uiso   1.00
C462   C     0.23624   0.64006   0.37583   0.00000  Uiso   1.00
C463   C     0.20266   0.59715   0.35172   0.00000  Uiso   1.00
C464   C     0.12538   0.60309   0.34403   0.00000  Uiso   1.00
C465   C     0.00195   0.59265   0.32262   0.00000  Uiso   1.00
C466   C     0.30797   0.71877   0.34082   0.00000  Uiso   1.00
C467   C     0.33472   0.74203   0.28728   0.00000  Uiso   1.00
C468   C     0.31783   0.81422   0.25012   0.00000  Uiso   1.00
C469   C     0.30582   0.92596   0.17440   0.00000  Uiso   1.00
C470   C     0.36220   0.62723   0.46747   0.00000  Uiso   1.00
C471   C     0.43455   0.57354   0.52043   0.00000  Uiso   1.00
C472   C     0.46333   0.56868   0.58990   0.00000  Uiso   1.00
C473   C     0.53551   0.53830   0.71082   0.00000  Uiso   1.00
C474   C     0.24232   0.72903   0.41724   0.00000  Uiso   1.00
C475   C     0.19413   0.68724   0.39169   0.00000  Uiso   1.00
C476   C     0.11688   0.69324   0.38403   0.00000  Uiso   1.00
C477   C     0.08320   0.65034   0.35992   0.00000  Uiso   1.00
C478   C     0.26586   0.76594   0.35668   0.00000  Uiso   1.00
C479   C     0.24894   0.83811   0.31959   0.00000  Uiso   1.00
C480   C     0.27565   0.86148   0.26601   0.00000  Uiso   1.00
C481   C     0.32009   0.67440   0.48333   0.00000  Uiso   1.00
C482   C     0.34877   0.66963   0.55273   0.00000  Uiso   1.00
C483   C     0.42114   0.61594   0.60578   0.00000  Uiso   1.00
H484   H     0.35263   0.60546   0.37569   0.00000  Uiso   1.00
H485   H     0.23526   0.56066   0.33945   0.00000  Uiso   1.00
H486   H     0.36731   0.70551   0.27503   0.00000  Uiso   1.00
H487   H     0.46712   0.53705   0.50813   0.00000  Uiso   1.00
H488   H     0.08656   0.53181   0.30624   0.00000  Uiso   1.00
H489   H     0.36500   0.83723   0.17042   0.00000  Uiso   1.00
H490   H     0.57548   0.48200   0.66197   0.00000  Uiso   1.00
H491   H     0.20953   0.76576   0.42958   0.00000  Uiso   1.00
H492   H     0.08431   0.72975   0.39630   0.00000  Uiso   1.00
H493   H     0.21636   0.87460   0.33188   0.00000  Uiso   1.00
H494   H     0.31616   0.70614   0.56498   0.00000  Uiso   1.00
H495   H     0.96404   0.66905   0.35238   0.00000  Uiso   1.00
H496   H     0.24249   0.97447   0.21656   0.00000  Uiso   1.00
H497   H     0.45295   0.61924   0.70811   0.00000  Uiso   1.00
O498   O     0.94550   0.57387   0.30642   0.00000  Uiso   1.00
O499   O     0.31082   0.97457   0.12824   0.00000  Uiso   1.00
O500   O     0.58695   0.50851   0.77314   0.00000  Uiso   1.00
N501   N     0.07492   0.56904   0.32168   0.00000  Uiso   1.00
N502   N     0.33523   0.85459   0.19469   0.00000  Uiso   1.00
N503   N     0.53202   0.52249   0.65424   0.00000  Uiso   1.00
N504   N     0.00899   0.64289   0.34651   0.00000  Uiso   1.00
N505   N     0.26931   0.92844   0.21952   0.00000  Uiso   1.00
N506   N     0.46609   0.59634   0.67907   0.00000  Uiso   1.00
C507   C     0.93311   0.32687   0.10642   0.00000  Uiso   1.00
C508   C     0.88919   0.30165   0.15272   0.00000  Uiso   1.00
C509   C     0.91873   0.27802   0.22777   0.00000  Uiso   1.00
C510   C     0.86930   0.25723   0.25998   0.00000  Uiso   1.00
C511   C     0.81271   0.21761   0.33818   0.00000  Uiso   1.00
C512   C     0.93583   0.28113   0.06836   0.00000  Uiso   1.00
C513   C     0.00459   0.24025   0.07247   0.00000  Uiso   1.00
C514   C     0.99442   0.20220   0.03365   0.00000  Uiso   1.00
C515   C     0.01024   0.13076   0.98083   0.00000  Uiso   1.00
C516   C     0.87815   0.40133   0.04594   0.00000  Uiso   1.00
C517   C     0.89841   0.46151   0.03117   0.00000  Uiso   1.00
C518   C     0.83968   0.52465   0.97346   0.00000  Uiso   1.00
C519   C     0.76594   0.63984   0.88583   0.00000  Uiso   1.00
C520   C     0.79278   0.33198   0.03018   0.00000  Uiso   1.00
C521   C     0.81297   0.30442   0.11131   0.00000  Uiso   1.00
C522   C     0.76347   0.28367   0.14341   0.00000  Uiso   1.00
C523   C     0.79294   0.26001   0.21850   0.00000  Uiso   1.00
C524   C     0.85961   0.28390   0.02695   0.00000  Uiso   1.00
C525   C     0.84934   0.24590   0.98811   0.00000  Uiso   1.00
C526   C     0.91806   0.20497   0.99216   0.00000  Uiso   1.00
C527   C     0.80192   0.40410   0.00452   0.00000  Uiso   1.00
C528   C     0.74315   0.46716   0.94682   0.00000  Uiso   1.00
C529   C     0.76332   0.52743   0.93198   0.00000  Uiso   1.00
H530   H     0.99245   0.32471   0.13866   0.00000  Uiso   1.00
H531   H     0.97773   0.27587   0.25980   0.00000  Uiso   1.00
H532   H     0.06357   0.23812   0.10452   0.00000  Uiso   1.00
H533   H     0.95740   0.45935   0.06323   0.00000  Uiso   1.00
H534   H     0.92779   0.22292   0.37585   0.00000  Uiso   1.00
H535   H     0.10880   0.14334   0.04840   0.00000  Uiso   1.00
H536   H     0.88493   0.60984   0.96134   0.00000  Uiso   1.00
H537   H     0.73344   0.33414   0.99793   0.00000  Uiso   1.00
H538   H     0.70449   0.28582   0.11135   0.00000  Uiso   1.00
H539   H     0.79034   0.24807   0.95607   0.00000  Uiso   1.00
H540   H     0.68417   0.46929   0.91478   0.00000  Uiso   1.00
H541   H     0.70603   0.23099   0.25536   0.00000  Uiso   1.00
H542   H     0.88704   0.15141   0.92791   0.00000  Uiso   1.00
H543   H     0.66317   0.61791   0.84086   0.00000  Uiso   1.00
O544   O     0.80255   0.19498   0.39276   0.00000  Uiso   1.00
O545   O     0.04003   0.09059   0.96315   0.00000  Uiso   1.00
O546   O     0.74632   0.70261   0.84893   0.00000  Uiso   1.00
N547   N     0.87957   0.23147   0.33192   0.00000  Uiso   1.00
N548   N     0.04880   0.15706   0.02579   0.00000  Uiso   1.00
N549   N     0.83951   0.59319   0.94438   0.00000  Uiso   1.00
N550   N     0.76024   0.23581   0.26709   0.00000  Uiso   1.00
N551   N     0.92947   0.16140   0.96096   0.00000  Uiso   1.00
N552   N     0.72018   0.59753   0.87955   0.00000  Uiso   1.00
