data_job_06401
_audit_creation_date              2018-12-19
_audit_creation_method            'Materials Studio'
_symmetry_space_group_name_H-M    'P1'
_symmetry_Int_Tables_number       1
_symmetry_cell_setting            triclinic
loop_
_symmetry_equiv_pos_as_xyz
  x,y,z
_cell_length_a                    17.3266
_cell_length_b                    17.0117
_cell_length_c                    16.4350
_cell_angle_alpha                 101.0580
_cell_angle_beta                  100.9480
_cell_angle_gamma                 100.0480
loop_
_atom_site_label
_atom_site_type_symbol
_atom_site_fract_x
_atom_site_fract_y
_atom_site_fract_z
_atom_site_U_iso_or_equiv
_atom_site_adp_type
_atom_site_occupancy
C1     C     0.59425   0.40862   0.07183   0.00000  Uiso   1.00
C2     C     0.55850   0.32660   0.08897   0.00000  Uiso   1.00
C3     C     0.48077   0.28064   0.05328   0.00000  Uiso   1.00
C4     C     0.45960   0.20729   0.07712   0.00000  Uiso   1.00
C5     C     0.39576   0.08396   0.09503   0.00000  Uiso   1.00
C6     C     0.62343   0.46894   0.15858   0.00000  Uiso   1.00
C7     C     0.60029   0.54265   0.18142   0.00000  Uiso   1.00
C8     C     0.63380   0.58912   0.26385   0.00000  Uiso   1.00
C9     C     0.67081   0.68680   0.38982   0.00000  Uiso   1.00
C10    C     0.66979   0.39706   0.04044   0.00000  Uiso   1.00
C11    C     0.68565   0.41037   0.96394   0.00000  Uiso   1.00
C12    C     0.75819   0.39634   0.94691   0.00000  Uiso   1.00
C13    C     0.86718   0.38243   0.88943   0.00000  Uiso   1.00
C14    C     0.69489   0.36008   0.17762   0.00000  Uiso   1.00
C15    C     0.61316   0.30024   0.14644   0.00000  Uiso   1.00
C16    C     0.59211   0.22693   0.17033   0.00000  Uiso   1.00
C17    C     0.51436   0.18087   0.13468   0.00000  Uiso   1.00
C18    C     0.67809   0.44257   0.21605   0.00000  Uiso   1.00
C19    C     0.71164   0.48894   0.29847   0.00000  Uiso   1.00
C20    C     0.68856   0.56271   0.32142   0.00000  Uiso   1.00
C21    C     0.72445   0.37070   0.09790   0.00000  Uiso   1.00
C22    C     0.79699   0.35665   0.08099   0.00000  Uiso   1.00
C23    C     0.81296   0.36993   0.00448   0.00000  Uiso   1.00
H24    H     0.55169   0.42916   0.02709   0.00000  Uiso   1.00
H25    H     0.43848   0.30107   0.00882   0.00000  Uiso   1.00
H26    H     0.55800   0.56305   0.13693   0.00000  Uiso   1.00
H27    H     0.64333   0.43077   0.91949   0.00000  Uiso   1.00
H28    H     0.33705   0.14745   0.01392   0.00000  Uiso   1.00
H29    H     0.58909   0.69985   0.28405   0.00000  Uiso   1.00
H30    H     0.76904   0.42094   0.82552   0.00000  Uiso   1.00
H31    H     0.73745   0.33955   0.22237   0.00000  Uiso   1.00
H32    H     0.63443   0.20654   0.21480   0.00000  Uiso   1.00
H33    H     0.75394   0.46852   0.34292   0.00000  Uiso   1.00
H34    H     0.83928   0.33625   0.12547   0.00000  Uiso   1.00
H35    H     0.49609   0.07073   0.18111   0.00000  Uiso   1.00
H36    H     0.74813   0.62314   0.45124   0.00000  Uiso   1.00
H37    H     0.92808   0.34422   0.99271   0.00000  Uiso   1.00
O38    O     0.34544   0.02323   0.08904   0.00000  Uiso   1.00
O39    O     0.67611   0.74796   0.44343   0.00000  Uiso   1.00
O40    O     0.91219   0.38203   0.84185   0.00000  Uiso   1.00
N41    N     0.38863   0.14764   0.05430   0.00000  Uiso   1.00
N42    N     0.62425   0.66410   0.30685   0.00000  Uiso   1.00
N43    N     0.79250   0.40336   0.87818   0.00000  Uiso   1.00
N44    N     0.47420   0.10636   0.14426   0.00000  Uiso   1.00
N45    N     0.70983   0.62282   0.39681   0.00000  Uiso   1.00
N46    N     0.87808   0.36207   0.96814   0.00000  Uiso   1.00
C47    C     0.07543   0.59327   0.41009   0.00000  Uiso   1.00
C48    C     0.09194   0.55604   0.32474   0.00000  Uiso   1.00
C49    C     0.05869   0.47672   0.27650   0.00000  Uiso   1.00
C50    C     0.08143   0.45437   0.20024   0.00000  Uiso   1.00
C51    C     0.09887   0.38817   0.07184   0.00000  Uiso   1.00
C52    C     0.15737   0.62286   0.47273   0.00000  Uiso   1.00
C53    C     0.17913   0.59974   0.54892   0.00000  Uiso   1.00
C54    C     0.25695   0.63365   0.59724   0.00000  Uiso   1.00
C55    C     0.37595   0.67124   0.69862   0.00000  Uiso   1.00
C56    C     0.04519   0.67036   0.39879   0.00000  Uiso   1.00
C57    C     0.97264   0.68720   0.41283   0.00000  Uiso   1.00
C58    C     0.95602   0.76111   0.39892   0.00000  Uiso   1.00
C59    C     0.90085   0.87245   0.38550   0.00000  Uiso   1.00
C60    C     0.17495   0.69461   0.36045   0.00000  Uiso   1.00
C61    C     0.14599   0.61108   0.29778   0.00000  Uiso   1.00
C62    C     0.16879   0.58885   0.22157   0.00000  Uiso   1.00
C63    C     0.13558   0.50951   0.17323   0.00000  Uiso   1.00
C64    C     0.21142   0.67790   0.44577   0.00000  Uiso   1.00
C65    C     0.28923   0.71186   0.49399   0.00000  Uiso   1.00
C66    C     0.31110   0.68880   0.57023   0.00000  Uiso   1.00
C67    C     0.09924   0.72541   0.37182   0.00000  Uiso   1.00
C68    C     0.08274   0.79932   0.35790   0.00000  Uiso   1.00
C69    C     0.01017   0.81626   0.37191   0.00000  Uiso   1.00
H70    H     0.03335   0.55042   0.43109   0.00000  Uiso   1.00
H71    H     0.01686   0.43414   0.29739   0.00000  Uiso   1.00
H72    H     0.13728   0.55715   0.56977   0.00000  Uiso   1.00
H73    H     0.93082   0.64458   0.43370   0.00000  Uiso   1.00
H74    H     0.02244   0.32949   0.13729   0.00000  Uiso   1.00
H75    H     0.27634   0.58888   0.71163   0.00000  Uiso   1.00
H76    H     0.84098   0.77326   0.42470   0.00000  Uiso   1.00
H77    H     0.21703   0.73747   0.33946   0.00000  Uiso   1.00
H78    H     0.21062   0.63146   0.20073   0.00000  Uiso   1.00
H79    H     0.33104   0.75446   0.47311   0.00000  Uiso   1.00
H80    H     0.12458   0.84190   0.33703   0.00000  Uiso   1.00
H81    H     0.17970   0.48964   0.05883   0.00000  Uiso   1.00
H82    H     0.43360   0.74903   0.63318   0.00000  Uiso   1.00
H83    H     0.99825   0.93341   0.34624   0.00000  Uiso   1.00
O84    O     0.09356   0.33644   0.00847   0.00000  Uiso   1.00
O85    O     0.42666   0.67676   0.76199   0.00000  Uiso   1.00
O86    O     0.85548   0.91866   0.38553   0.00000  Uiso   1.00
N87    N     0.06032   0.38173   0.13786   0.00000  Uiso   1.00
N88    N     0.29771   0.62424   0.67482   0.00000  Uiso   1.00
N89    N     0.89069   0.79663   0.40659   0.00000  Uiso   1.00
N90    N     0.14494   0.46791   0.09564   0.00000  Uiso   1.00
N91    N     0.38233   0.71041   0.63261   0.00000  Uiso   1.00
N92    N     0.97531   0.88280   0.36437   0.00000  Uiso   1.00
C93    C     0.40707   0.07337   0.58998   0.00000  Uiso   1.00
C94    C     0.32614   0.09050   0.55165   0.00000  Uiso   1.00
C95    C     0.28071   0.05632   0.46923   0.00000  Uiso   1.00
C96    C     0.20835   0.07987   0.44636   0.00000  Uiso   1.00
C97    C     0.08665   0.09803   0.37807   0.00000  Uiso   1.00
C98    C     0.46581   0.15663   0.62125   0.00000  Uiso   1.00
C99    C     0.53782   0.17804   0.59734   0.00000  Uiso   1.00
C100   C     0.58304   0.25725   0.63308   0.00000  Uiso   1.00
C101   C     0.67822   0.37806   0.67289   0.00000  Uiso   1.00
C102   C     0.39654   0.04329   0.66966   0.00000  Uiso   1.00
C103   C     0.41033   0.96941   0.68649   0.00000  Uiso   1.00
C104   C     0.39725   0.95321   0.76299   0.00000  Uiso   1.00
C105   C     0.38488   0.89803   0.87798   0.00000  Uiso   1.00
C106   C     0.35934   0.17597   0.69595   0.00000  Uiso   1.00
C107   C     0.30022   0.14623   0.60921   0.00000  Uiso   1.00
C108   C     0.22791   0.16983   0.58646   0.00000  Uiso   1.00
C109   C     0.18238   0.13569   0.50402   0.00000  Uiso   1.00
C110   C     0.43989   0.21236   0.67880   0.00000  Uiso   1.00
C111   C     0.48502   0.29156   0.71458   0.00000  Uiso   1.00
C112   C     0.55708   0.31308   0.69074   0.00000  Uiso   1.00
C113   C     0.37062   0.09902   0.72722   0.00000  Uiso   1.00
C114   C     0.35753   0.08292   0.80372   0.00000  Uiso   1.00
C115   C     0.37129   0.00903   0.82065   0.00000  Uiso   1.00
H116   H     0.42725   0.02999   0.54517   0.00000  Uiso   1.00
H117   H     0.30079   0.01320   0.42470   0.00000  Uiso   1.00
H118   H     0.55787   0.13490   0.55281   0.00000  Uiso   1.00
H119   H     0.43039   0.92630   0.64193   0.00000  Uiso   1.00
H120   H     0.14918   0.01919   0.31651   0.00000  Uiso   1.00
H121   H     0.69125   0.27579   0.58665   0.00000  Uiso   1.00
H122   H     0.42244   0.83592   0.77459   0.00000  Uiso   1.00
H123   H     0.33916   0.21936   0.74076   0.00000  Uiso   1.00
H124   H     0.20786   0.21296   0.63102   0.00000  Uiso   1.00
H125   H     0.46494   0.33466   0.75912   0.00000  Uiso   1.00
H126   H     0.33747   0.12606   0.84825   0.00000  Uiso   1.00
H127   H     0.07375   0.18133   0.48396   0.00000  Uiso   1.00
H128   H     0.61583   0.43793   0.75411   0.00000  Uiso   1.00
H129   H     0.34702   0.99805   0.94204   0.00000  Uiso   1.00
O130   O     0.02670   0.09266   0.32450   0.00000  Uiso   1.00
O131   O     0.73788   0.42930   0.67893   0.00000  Uiso   1.00
O132   O     0.38521   0.85220   0.92549   0.00000  Uiso   1.00
N133   N     0.14943   0.05822   0.37098   0.00000  Uiso   1.00
N134   N     0.65623   0.29813   0.62354   0.00000  Uiso   1.00
N135   N     0.40494   0.88689   0.79925   0.00000  Uiso   1.00
N136   N     0.10885   0.14546   0.46109   0.00000  Uiso   1.00
N137   N     0.61565   0.38537   0.71365   0.00000  Uiso   1.00
N138   N     0.36436   0.97413   0.88936   0.00000  Uiso   1.00
C139   C     0.09484   0.57438   0.91022   0.00000  Uiso   1.00
C140   C     0.05836   0.59113   0.82492   0.00000  Uiso   1.00
C141   C     0.98053   0.55723   0.77673   0.00000  Uiso   1.00
C142   C     0.95865   0.58034   0.70052   0.00000  Uiso   1.00
C143   C     0.89376   0.59801   0.57220   0.00000  Uiso   1.00
C144   C     0.12385   0.65790   0.97291   0.00000  Uiso   1.00
C145   C     0.10110   0.68013   0.04915   0.00000  Uiso   1.00
C146   C     0.13435   0.75944   0.09752   0.00000  Uiso   1.00
C147   C     0.17119   0.88075   0.19898   0.00000  Uiso   1.00
C148   C     0.17052   0.54356   0.89881   0.00000  Uiso   1.00
C149   C     0.18703   0.46966   0.91276   0.00000  Uiso   1.00
C150   C     0.25960   0.45272   0.89875   0.00000  Uiso   1.00
C151   C     0.36890   0.39649   0.88516   0.00000  Uiso   1.00
C152   C     0.19437   0.67571   0.86058   0.00000  Uiso   1.00
C153   C     0.11242   0.64618   0.79796   0.00000  Uiso   1.00
C154   C     0.09065   0.66934   0.72180   0.00000  Uiso   1.00
C155   C     0.01281   0.63548   0.67350   0.00000  Uiso   1.00
C156   C     0.17791   0.71294   0.94595   0.00000  Uiso   1.00
C157   C     0.21121   0.79224   0.99422   0.00000  Uiso   1.00
C158   C     0.18851   0.81458   0.07051   0.00000  Uiso   1.00
C159   C     0.22458   0.59860   0.87184   0.00000  Uiso   1.00
C160   C     0.29714   0.58177   0.85782   0.00000  Uiso   1.00
C161   C     0.31375   0.50786   0.87174   0.00000  Uiso   1.00
H162   H     0.05275   0.53154   0.93122   0.00000  Uiso   1.00
H163   H     0.93871   0.51465   0.79762   0.00000  Uiso   1.00
H164   H     0.05926   0.63752   0.07000   0.00000  Uiso   1.00
H165   H     0.14518   0.42708   0.93362   0.00000  Uiso   1.00
H166   H     0.83611   0.52021   0.63763   0.00000  Uiso   1.00
H167   H     0.09032   0.77929   0.21197   0.00000  Uiso   1.00
H168   H     0.27149   0.33555   0.92439   0.00000  Uiso   1.00
H169   H     0.23646   0.71857   0.83958   0.00000  Uiso   1.00
H170   H     0.13250   0.71194   0.70095   0.00000  Uiso   1.00
H171   H     0.25305   0.83481   0.97334   0.00000  Uiso   1.00
H172   H     0.33896   0.62438   0.83696   0.00000  Uiso   1.00
H173   H     0.99339   0.68034   0.55918   0.00000  Uiso   1.00
H174   H     0.24760   0.93942   0.13352   0.00000  Uiso   1.00
H175   H     0.42877   0.49568   0.84594   0.00000  Uiso   1.00
O176   O     0.84304   0.59256   0.50888   0.00000  Uiso   1.00
O177   O     0.17656   0.93245   0.26240   0.00000  Uiso   1.00
O178   O     0.41425   0.35027   0.88510   0.00000  Uiso   1.00
N179   N     0.88740   0.55880   0.63818   0.00000  Uiso   1.00
N180   N     0.12506   0.80102   0.17515   0.00000  Uiso   1.00
N181   N     0.29445   0.38617   0.90631   0.00000  Uiso   1.00
N182   N     0.97203   0.64496   0.59596   0.00000  Uiso   1.00
N183   N     0.20969   0.88719   0.13293   0.00000  Uiso   1.00
N184   N     0.37908   0.47233   0.86409   0.00000  Uiso   1.00
C185   C     0.57448   0.90814   0.08992   0.00000  Uiso   1.00
C186   C     0.59132   0.82567   0.05149   0.00000  Uiso   1.00
C187   C     0.55783   0.77932   0.96905   0.00000  Uiso   1.00
C188   C     0.58095   0.70559   0.94608   0.00000  Uiso   1.00
C189   C     0.59882   0.58156   0.87765   0.00000  Uiso   1.00
C190   C     0.65620   0.96800   0.12116   0.00000  Uiso   1.00
C191   C     0.67724   0.04134   0.09731   0.00000  Uiso   1.00
C192   C     0.75497   0.08742   0.13301   0.00000  Uiso   1.00
C193   C     0.87353   0.18440   0.17279   0.00000  Uiso   1.00
C194   C     0.54489   0.89748   0.16962   0.00000  Uiso   1.00
C195   C     0.47236   0.91155   0.18653   0.00000  Uiso   1.00
C196   C     0.45639   0.89829   0.26304   0.00000  Uiso   1.00
C197   C     0.40214   0.88578   0.37807   0.00000  Uiso   1.00
C198   C     0.67511   0.85959   0.19573   0.00000  Uiso   1.00
C199   C     0.64598   0.79930   0.10896   0.00000  Uiso   1.00
C200   C     0.66916   0.72562   0.08611   0.00000  Uiso   1.00
C201   C     0.63570   0.67917   0.00366   0.00000  Uiso   1.00
C202   C     0.71085   0.94164   0.17863   0.00000  Uiso   1.00
C203   C     0.78857   0.98763   0.21438   0.00000  Uiso   1.00
C204   C     0.80973   0.06101   0.19058   0.00000  Uiso   1.00
C205   C     0.59955   0.87112   0.22709   0.00000  Uiso   1.00
C206   C     0.58369   0.85784   0.30360   0.00000  Uiso   1.00
C207   C     0.51115   0.87187   0.32062   0.00000  Uiso   1.00
H208   H     0.53194   0.92867   0.04518   0.00000  Uiso   1.00
H209   H     0.51554   0.79976   0.92459   0.00000  Uiso   1.00
H210   H     0.63493   0.06173   0.05284   0.00000  Uiso   1.00
H211   H     0.43008   0.93195   0.14204   0.00000  Uiso   1.00
H212   H     0.52149   0.64521   0.81623   0.00000  Uiso   1.00
H213   H     0.77321   0.19762   0.08668   0.00000  Uiso   1.00
H214   H     0.34125   0.92397   0.27478   0.00000  Uiso   1.00
H215   H     0.71767   0.83907   0.24048   0.00000  Uiso   1.00
H216   H     0.71146   0.70523   0.13060   0.00000  Uiso   1.00
H217   H     0.83085   0.96721   0.25885   0.00000  Uiso   1.00
H218   H     0.62600   0.83743   0.34806   0.00000  Uiso   1.00
H219   H     0.68051   0.56849   0.98344   0.00000  Uiso   1.00
H220   H     0.93223   0.12090   0.25389   0.00000  Uiso   1.00
H221   H     0.50028   0.84724   0.44199   0.00000  Uiso   1.00
O222   O     0.59358   0.52044   0.82402   0.00000  Uiso   1.00
O223   O     0.92383   0.24518   0.17885   0.00000  Uiso   1.00
O224   O     0.35711   0.88615   0.42564   0.00000  Uiso   1.00
N225   N     0.55975   0.64552   0.87067   0.00000  Uiso   1.00
N226   N     0.79511   0.16197   0.12351   0.00000  Uiso   1.00
N227   N     0.39127   0.90615   0.29938   0.00000  Uiso   1.00
N228   N     0.64532   0.60423   0.96064   0.00000  Uiso   1.00
N229   N     0.88067   0.12069   0.21348   0.00000  Uiso   1.00
N230   N     0.47684   0.86487   0.38935   0.00000  Uiso   1.00
C231   C     0.90742   0.09274   0.57176   0.00000  Uiso   1.00
C232   C     0.82689   0.05634   0.58895   0.00000  Uiso   1.00
C233   C     0.78180   0.97713   0.55323   0.00000  Uiso   1.00
C234   C     0.70977   0.95559   0.57712   0.00000  Uiso   1.00
C235   C     0.58869   0.89058   0.59509   0.00000  Uiso   1.00
C236   C     0.96657   0.12253   0.65849   0.00000  Uiso   1.00
C237   C     0.03891   0.09897   0.68122   0.00000  Uiso   1.00
C238   C     0.08446   0.13316   0.76365   0.00000  Uiso   1.00
C239   C     0.18026   0.17095   0.88955   0.00000  Uiso   1.00
C240   C     0.89611   0.16967   0.54046   0.00000  Uiso   1.00
C241   C     0.90923   0.18577   0.46397   0.00000  Uiso   1.00
C242   C     0.89548   0.25966   0.44703   0.00000  Uiso   1.00
C243   C     0.88188   0.37064   0.38968   0.00000  Uiso   1.00
C244   C     0.85970   0.19535   0.67771   0.00000  Uiso   1.00
C245   C     0.80098   0.11208   0.64650   0.00000  Uiso   1.00
C246   C     0.72899   0.09066   0.67045   0.00000  Uiso   1.00
C247   C     0.68380   0.01143   0.63477   0.00000  Uiso   1.00
C248   C     0.94065   0.17826   0.71604   0.00000  Uiso   1.00
C249   C     0.98611   0.21250   0.79844   0.00000  Uiso   1.00
C250   C     0.05850   0.18900   0.82130   0.00000  Uiso   1.00
C251   C     0.87018   0.22541   0.59801   0.00000  Uiso   1.00
C252   C     0.85642   0.29929   0.58119   0.00000  Uiso   1.00
C253   C     0.86951   0.31549   0.50468   0.00000  Uiso   1.00
H254   H     0.92761   0.04935   0.52696   0.00000  Uiso   1.00
H255   H     0.80188   0.93401   0.50870   0.00000  Uiso   1.00
H256   H     0.05896   0.05585   0.63667   0.00000  Uiso   1.00
H257   H     0.92929   0.14262   0.41945   0.00000  Uiso   1.00
H258   H     0.65108   0.83071   0.51386   0.00000  Uiso   1.00
H259   H     0.19314   0.08762   0.78368   0.00000  Uiso   1.00
H260   H     0.91972   0.27061   0.32563   0.00000  Uiso   1.00
H261   H     0.83952   0.23875   0.72252   0.00000  Uiso   1.00
H262   H     0.70895   0.13380   0.71499   0.00000  Uiso   1.00
H263   H     0.96603   0.25563   0.84296   0.00000  Uiso   1.00
H264   H     0.83636   0.34241   0.62574   0.00000  Uiso   1.00
H265   H     0.57565   0.99286   0.68129   0.00000  Uiso   1.00
H266   H     0.11772   0.24977   0.95111   0.00000  Uiso   1.00
H267   H     0.84429   0.43276   0.49306   0.00000  Uiso   1.00
O268   O     0.52908   0.83932   0.58911   0.00000  Uiso   1.00
O269   O     0.24025   0.17639   0.94310   0.00000  Uiso   1.00
O270   O     0.88152   0.41646   0.34215   0.00000  Uiso   1.00
N271   N     0.65123   0.88328   0.55428   0.00000  Uiso   1.00
N272   N     0.15803   0.12347   0.80656   0.00000  Uiso   1.00
N273   N     0.90242   0.29455   0.37832   0.00000  Uiso   1.00
N274   N     0.61065   0.97053   0.64438   0.00000  Uiso   1.00
N275   N     0.11744   0.21072   0.89665   0.00000  Uiso   1.00
N276   N     0.86184   0.38181   0.46842   0.00000  Uiso   1.00
