data_job_03420
_audit_creation_date              2018-12-19
_audit_creation_method            'Materials Studio'
_symmetry_space_group_name_H-M    'P1'
_symmetry_Int_Tables_number       1
_symmetry_cell_setting            triclinic
loop_
_symmetry_equiv_pos_as_xyz
  x,y,z
_cell_length_a                    10.5932
_cell_length_b                    10.5932
_cell_length_c                    38.2206
_cell_angle_alpha                 90.0000
_cell_angle_beta                  90.0000
_cell_angle_gamma                 120.0000
loop_
_atom_site_label
_atom_site_type_symbol
_atom_site_fract_x
_atom_site_fract_y
_atom_site_fract_z
_atom_site_U_iso_or_equiv
_atom_site_adp_type
_atom_site_occupancy
C1     C     0.06803   0.23017   0.11286   0.00000  Uiso   1.00
C2     C     0.15352   0.33925   0.08400   0.00000  Uiso   1.00
C3     C     0.28943   0.46311   0.08775   0.00000  Uiso   1.00
C4     C     0.34939   0.54894   0.05821   0.00000  Uiso   1.00
C5     C     0.49327   0.72397   0.01829   0.00000  Uiso   1.00
C6     C     0.92070   0.22285   0.11466   0.00000  Uiso   1.00
C7     C     0.86086   0.24881   0.14420   0.00000  Uiso   1.00
C8     C     0.72482   0.23663   0.14047   0.00000  Uiso   1.00
C9     C     0.50720   0.23082   0.14816   0.00000  Uiso   1.00
C10    C     0.03721   0.08192   0.09938   0.00000  Uiso   1.00
C11    C     0.07528   0.98938   0.11607   0.00000  Uiso   1.00
C12    C     0.03730   0.85852   0.09947   0.00000  Uiso   1.00
C13    C     0.00057   0.63392   0.08344   0.00000  Uiso   1.00
C14    C     0.93283   0.16233   0.05372   0.00000  Uiso   1.00
C15    C     0.08008   0.30241   0.05188   0.00000  Uiso   1.00
C16    C     0.13985   0.38806   0.02232   0.00000  Uiso   1.00
C17    C     0.27582   0.51203   0.02603   0.00000  Uiso   1.00
C18    C     0.84727   0.18600   0.08254   0.00000  Uiso   1.00
C19    C     0.71128   0.17376   0.07877   0.00000  Uiso   1.00
C20    C     0.65125   0.19971   0.10829   0.00000  Uiso   1.00
C21    C     0.96377   0.04508   0.06726   0.00000  Uiso   1.00
C22    C     0.92570   0.91433   0.05064   0.00000  Uiso   1.00
C23    C     0.96372   0.82161   0.06729   0.00000  Uiso   1.00
H24    H     0.12520   0.25885   0.13787   0.00000  Uiso   1.00
H25    H     0.34622   0.49160   0.11262   0.00000  Uiso   1.00
H26    H     0.91771   0.27731   0.16905   0.00000  Uiso   1.00
H27    H     0.13211   0.01793   0.14093   0.00000  Uiso   1.00
H28    H     0.55886   0.73342   0.07046   0.00000  Uiso   1.00
H29    H     0.65531   0.28154   0.18946   0.00000  Uiso   1.00
H30    H     0.10740   0.73457   0.13015   0.00000  Uiso   1.00
H31    H     0.87565   0.13364   0.02871   0.00000  Uiso   1.00
H32    H     0.08299   0.35952   0.99747   0.00000  Uiso   1.00
H33    H     0.65447   0.14524   0.05391   0.00000  Uiso   1.00
H34    H     0.86887   0.88585   0.02578   0.00000  Uiso   1.00
H35    H     0.34521   0.62623   0.97700   0.00000  Uiso   1.00
H36    H     0.44164   0.17434   0.09601   0.00000  Uiso   1.00
H37    H     0.89374   0.62737   0.03670   0.00000  Uiso   1.00
O38    O     0.59291   0.83070   0.00515   0.00000  Uiso   1.00
O39    O     0.40747   0.23782   0.16128   0.00000  Uiso   1.00
O40    O     0.00061   0.52022   0.08347   0.00000  Uiso   1.00
N41    N     0.48014   0.67718   0.05275   0.00000  Uiso   1.00
N42    N     0.63537   0.25472   0.16401   0.00000  Uiso   1.00
N43    N     0.05801   0.74333   0.10857   0.00000  Uiso   1.00
N44    N     0.36517   0.61950   0.00246   0.00000  Uiso   1.00
N45    N     0.52041   0.19704   0.11372   0.00000  Uiso   1.00
N46    N     0.94304   0.68565   0.05828   0.00000  Uiso   1.00
C47    C     0.76983   0.83786   0.77952   0.00000  Uiso   1.00
C48    C     0.66075   0.81427   0.75067   0.00000  Uiso   1.00
C49    C     0.53689   0.82632   0.75442   0.00000  Uiso   1.00
C50    C     0.45106   0.80045   0.72487   0.00000  Uiso   1.00
C51    C     0.27603   0.76930   0.68496   0.00000  Uiso   1.00
C52    C     0.77715   0.69786   0.78133   0.00000  Uiso   1.00
C53    C     0.75119   0.61205   0.81087   0.00000  Uiso   1.00
C54    C     0.76337   0.48819   0.80713   0.00000  Uiso   1.00
C55    C     0.76918   0.27638   0.81483   0.00000  Uiso   1.00
C56    C     0.91808   0.95528   0.76605   0.00000  Uiso   1.00
C57    C     0.01062   0.08591   0.78274   0.00000  Uiso   1.00
C58    C     0.14148   0.17877   0.76614   0.00000  Uiso   1.00
C59    C     0.36608   0.36665   0.75011   0.00000  Uiso   1.00
C60    C     0.83767   0.77050   0.72039   0.00000  Uiso   1.00
C61    C     0.69759   0.77767   0.71855   0.00000  Uiso   1.00
C62    C     0.61194   0.75178   0.68899   0.00000  Uiso   1.00
C63    C     0.48797   0.76379   0.69269   0.00000  Uiso   1.00
C64    C     0.81400   0.66126   0.74921   0.00000  Uiso   1.00
C65    C     0.82624   0.53751   0.74544   0.00000  Uiso   1.00
C66    C     0.80029   0.45153   0.77495   0.00000  Uiso   1.00
C67    C     0.95492   0.91869   0.73393   0.00000  Uiso   1.00
C68    C     0.08567   0.01137   0.71730   0.00000  Uiso   1.00
C69    C     0.17839   0.14211   0.73396   0.00000  Uiso   1.00
H70    H     0.74115   0.86634   0.80453   0.00000  Uiso   1.00
H71    H     0.50840   0.85462   0.77928   0.00000  Uiso   1.00
H72    H     0.72269   0.64040   0.83572   0.00000  Uiso   1.00
H73    H     0.98207   0.11418   0.80759   0.00000  Uiso   1.00
H74    H     0.26658   0.82544   0.73712   0.00000  Uiso   1.00
H75    H     0.71846   0.37376   0.85613   0.00000  Uiso   1.00
H76    H     0.26543   0.37283   0.79682   0.00000  Uiso   1.00
H77    H     0.86636   0.74200   0.69538   0.00000  Uiso   1.00
H78    H     0.64048   0.72347   0.66413   0.00000  Uiso   1.00
H79    H     0.85476   0.50924   0.72057   0.00000  Uiso   1.00
H80    H     0.11415   0.98302   0.69245   0.00000  Uiso   1.00
H81    H     0.37377   0.71898   0.64367   0.00000  Uiso   1.00
H82    H     0.82566   0.26730   0.76267   0.00000  Uiso   1.00
H83    H     0.37263   0.26637   0.70336   0.00000  Uiso   1.00
O84    O     0.16930   0.76221   0.67182   0.00000  Uiso   1.00
O85    O     0.76218   0.16965   0.82795   0.00000  Uiso   1.00
O86    O     0.47978   0.48040   0.75013   0.00000  Uiso   1.00
N87    N     0.32282   0.80296   0.71941   0.00000  Uiso   1.00
N88    N     0.74528   0.38065   0.83068   0.00000  Uiso   1.00
N89    N     0.25667   0.31468   0.77523   0.00000  Uiso   1.00
N90    N     0.38050   0.74568   0.66913   0.00000  Uiso   1.00
N91    N     0.80296   0.32337   0.78039   0.00000  Uiso   1.00
N92    N     0.31435   0.25740   0.72494   0.00000  Uiso   1.00
C93    C     0.16214   0.93197   0.44619   0.00000  Uiso   1.00
C94    C     0.18573   0.84648   0.41733   0.00000  Uiso   1.00
C95    C     0.17368   0.71057   0.42108   0.00000  Uiso   1.00
C96    C     0.19955   0.65061   0.39154   0.00000  Uiso   1.00
C97    C     0.23070   0.50673   0.35162   0.00000  Uiso   1.00
C98    C     0.30214   0.07930   0.44800   0.00000  Uiso   1.00
C99    C     0.38795   0.13914   0.47753   0.00000  Uiso   1.00
C100   C     0.51181   0.27518   0.47380   0.00000  Uiso   1.00
C101   C     0.72362   0.49280   0.48150   0.00000  Uiso   1.00
C102   C     0.04472   0.96279   0.43271   0.00000  Uiso   1.00
C103   C     0.91409   0.92472   0.44940   0.00000  Uiso   1.00
C104   C     0.82123   0.96270   0.43281   0.00000  Uiso   1.00
C105   C     0.63335   0.99943   0.41677   0.00000  Uiso   1.00
C106   C     0.22950   0.06717   0.38705   0.00000  Uiso   1.00
C107   C     0.22233   0.91992   0.38521   0.00000  Uiso   1.00
C108   C     0.24822   0.86015   0.35565   0.00000  Uiso   1.00
C109   C     0.23621   0.72418   0.35936   0.00000  Uiso   1.00
C110   C     0.33874   0.15273   0.41588   0.00000  Uiso   1.00
C111   C     0.46249   0.28872   0.41210   0.00000  Uiso   1.00
C112   C     0.54847   0.34875   0.44162   0.00000  Uiso   1.00
C113   C     0.08131   0.03623   0.40059   0.00000  Uiso   1.00
C114   C     0.98863   0.07430   0.38397   0.00000  Uiso   1.00
C115   C     0.85789   0.03628   0.40063   0.00000  Uiso   1.00
H116   H     0.13366   0.87480   0.47120   0.00000  Uiso   1.00
H117   H     0.14538   0.65378   0.44595   0.00000  Uiso   1.00
H118   H     0.35960   0.08229   0.50239   0.00000  Uiso   1.00
H119   H     0.88582   0.86789   0.47426   0.00000  Uiso   1.00
H120   H     0.17456   0.44114   0.40379   0.00000  Uiso   1.00
H121   H     0.62624   0.34469   0.52280   0.00000  Uiso   1.00
H122   H     0.62717   0.89260   0.46349   0.00000  Uiso   1.00
H123   H     0.25800   0.12435   0.36204   0.00000  Uiso   1.00
H124   H     0.27653   0.91701   0.33080   0.00000  Uiso   1.00
H125   H     0.49076   0.34553   0.38724   0.00000  Uiso   1.00
H126   H     0.01698   0.13113   0.35911   0.00000  Uiso   1.00
H127   H     0.28102   0.65479   0.31033   0.00000  Uiso   1.00
H128   H     0.73270   0.55836   0.42934   0.00000  Uiso   1.00
H129   H     0.73363   0.10626   0.37003   0.00000  Uiso   1.00
O130   O     0.23779   0.40709   0.33848   0.00000  Uiso   1.00
O131   O     0.83035   0.59253   0.49462   0.00000  Uiso   1.00
O132   O     0.51960   0.99939   0.41680   0.00000  Uiso   1.00
N133   N     0.19704   0.51986   0.38608   0.00000  Uiso   1.00
N134   N     0.61935   0.36463   0.49734   0.00000  Uiso   1.00
N135   N     0.68532   0.94199   0.44190   0.00000  Uiso   1.00
N136   N     0.25432   0.63483   0.33579   0.00000  Uiso   1.00
N137   N     0.67663   0.47959   0.44705   0.00000  Uiso   1.00
N138   N     0.74260   0.05696   0.39161   0.00000  Uiso   1.00
C139   C     0.23017   0.06803   0.88714   0.00000  Uiso   1.00
C140   C     0.33925   0.15352   0.91600   0.00000  Uiso   1.00
C141   C     0.46311   0.28943   0.91225   0.00000  Uiso   1.00
C142   C     0.54894   0.34939   0.94179   0.00000  Uiso   1.00
C143   C     0.72397   0.49327   0.98171   0.00000  Uiso   1.00
C144   C     0.22285   0.92070   0.88534   0.00000  Uiso   1.00
C145   C     0.24881   0.86086   0.85580   0.00000  Uiso   1.00
C146   C     0.23663   0.72482   0.85953   0.00000  Uiso   1.00
C147   C     0.23082   0.50720   0.85184   0.00000  Uiso   1.00
C148   C     0.08192   0.03721   0.90062   0.00000  Uiso   1.00
C149   C     0.98938   0.07528   0.88393   0.00000  Uiso   1.00
C150   C     0.85852   0.03730   0.90053   0.00000  Uiso   1.00
C151   C     0.63392   0.00057   0.91656   0.00000  Uiso   1.00
C152   C     0.16233   0.93283   0.94628   0.00000  Uiso   1.00
C153   C     0.30241   0.08008   0.94812   0.00000  Uiso   1.00
C154   C     0.38806   0.13985   0.97768   0.00000  Uiso   1.00
C155   C     0.51203   0.27582   0.97397   0.00000  Uiso   1.00
C156   C     0.18600   0.84727   0.91746   0.00000  Uiso   1.00
C157   C     0.17376   0.71128   0.92123   0.00000  Uiso   1.00
C158   C     0.19971   0.65125   0.89171   0.00000  Uiso   1.00
C159   C     0.04508   0.96377   0.93274   0.00000  Uiso   1.00
C160   C     0.91433   0.92570   0.94936   0.00000  Uiso   1.00
C161   C     0.82161   0.96372   0.93271   0.00000  Uiso   1.00
H162   H     0.25885   0.12520   0.86213   0.00000  Uiso   1.00
H163   H     0.49160   0.34622   0.88738   0.00000  Uiso   1.00
H164   H     0.27731   0.91771   0.83095   0.00000  Uiso   1.00
H165   H     0.01793   0.13211   0.85907   0.00000  Uiso   1.00
H166   H     0.73342   0.55886   0.92954   0.00000  Uiso   1.00
H167   H     0.28154   0.65531   0.81054   0.00000  Uiso   1.00
H168   H     0.73457   0.10740   0.86985   0.00000  Uiso   1.00
H169   H     0.13364   0.87565   0.97129   0.00000  Uiso   1.00
H170   H     0.35952   0.08299   0.00253   0.00000  Uiso   1.00
H171   H     0.14524   0.65447   0.94609   0.00000  Uiso   1.00
H172   H     0.88585   0.86887   0.97422   0.00000  Uiso   1.00
H173   H     0.62623   0.34521   0.02300   0.00000  Uiso   1.00
H174   H     0.17434   0.44164   0.90399   0.00000  Uiso   1.00
H175   H     0.62737   0.89374   0.96330   0.00000  Uiso   1.00
O176   O     0.83070   0.59291   0.99485   0.00000  Uiso   1.00
O177   O     0.23782   0.40747   0.83872   0.00000  Uiso   1.00
O178   O     0.52022   0.00061   0.91653   0.00000  Uiso   1.00
N179   N     0.67718   0.48014   0.94725   0.00000  Uiso   1.00
N180   N     0.25472   0.63537   0.83599   0.00000  Uiso   1.00
N181   N     0.74333   0.05801   0.89143   0.00000  Uiso   1.00
N182   N     0.61950   0.36517   0.99754   0.00000  Uiso   1.00
N183   N     0.19704   0.52041   0.88628   0.00000  Uiso   1.00
N184   N     0.68565   0.94304   0.94172   0.00000  Uiso   1.00
C185   C     0.83786   0.76983   0.22048   0.00000  Uiso   1.00
C186   C     0.81427   0.66075   0.24933   0.00000  Uiso   1.00
C187   C     0.82632   0.53689   0.24558   0.00000  Uiso   1.00
C188   C     0.80045   0.45106   0.27513   0.00000  Uiso   1.00
C189   C     0.76930   0.27603   0.31504   0.00000  Uiso   1.00
C190   C     0.69786   0.77715   0.21867   0.00000  Uiso   1.00
C191   C     0.61205   0.75119   0.18913   0.00000  Uiso   1.00
C192   C     0.48819   0.76337   0.19287   0.00000  Uiso   1.00
C193   C     0.27638   0.76918   0.18517   0.00000  Uiso   1.00
C194   C     0.95528   0.91808   0.23395   0.00000  Uiso   1.00
C195   C     0.08591   0.01062   0.21726   0.00000  Uiso   1.00
C196   C     0.17877   0.14148   0.23386   0.00000  Uiso   1.00
C197   C     0.36665   0.36608   0.24989   0.00000  Uiso   1.00
C198   C     0.77050   0.83767   0.27961   0.00000  Uiso   1.00
C199   C     0.77767   0.69759   0.28145   0.00000  Uiso   1.00
C200   C     0.75178   0.61194   0.31101   0.00000  Uiso   1.00
C201   C     0.76379   0.48797   0.30731   0.00000  Uiso   1.00
C202   C     0.66126   0.81400   0.25079   0.00000  Uiso   1.00
C203   C     0.53751   0.82624   0.25456   0.00000  Uiso   1.00
C204   C     0.45153   0.80029   0.22505   0.00000  Uiso   1.00
C205   C     0.91869   0.95492   0.26607   0.00000  Uiso   1.00
C206   C     0.01137   0.08567   0.28270   0.00000  Uiso   1.00
C207   C     0.14211   0.17839   0.26604   0.00000  Uiso   1.00
H208   H     0.86634   0.74115   0.19547   0.00000  Uiso   1.00
H209   H     0.85462   0.50840   0.22072   0.00000  Uiso   1.00
H210   H     0.64040   0.72269   0.16428   0.00000  Uiso   1.00
H211   H     0.11418   0.98207   0.19241   0.00000  Uiso   1.00
H212   H     0.82544   0.26658   0.26288   0.00000  Uiso   1.00
H213   H     0.37376   0.71846   0.14387   0.00000  Uiso   1.00
H214   H     0.37283   0.26543   0.20318   0.00000  Uiso   1.00
H215   H     0.74200   0.86636   0.30462   0.00000  Uiso   1.00
H216   H     0.72347   0.64048   0.33587   0.00000  Uiso   1.00
H217   H     0.50924   0.85476   0.27943   0.00000  Uiso   1.00
H218   H     0.98302   0.11415   0.30755   0.00000  Uiso   1.00
H219   H     0.71898   0.37377   0.35633   0.00000  Uiso   1.00
H220   H     0.26730   0.82566   0.23733   0.00000  Uiso   1.00
H221   H     0.26637   0.37263   0.29664   0.00000  Uiso   1.00
O222   O     0.76221   0.16930   0.32818   0.00000  Uiso   1.00
O223   O     0.16965   0.76218   0.17205   0.00000  Uiso   1.00
O224   O     0.48040   0.47978   0.24987   0.00000  Uiso   1.00
N225   N     0.80296   0.32282   0.28059   0.00000  Uiso   1.00
N226   N     0.38065   0.74528   0.16932   0.00000  Uiso   1.00
N227   N     0.31468   0.25667   0.22477   0.00000  Uiso   1.00
N228   N     0.74568   0.38050   0.33087   0.00000  Uiso   1.00
N229   N     0.32337   0.80296   0.21961   0.00000  Uiso   1.00
N230   N     0.25740   0.31435   0.27506   0.00000  Uiso   1.00
C231   C     0.93197   0.16214   0.55381   0.00000  Uiso   1.00
C232   C     0.84648   0.18573   0.58267   0.00000  Uiso   1.00
C233   C     0.71057   0.17368   0.57892   0.00000  Uiso   1.00
C234   C     0.65061   0.19955   0.60846   0.00000  Uiso   1.00
C235   C     0.50673   0.23070   0.64838   0.00000  Uiso   1.00
C236   C     0.07930   0.30214   0.55200   0.00000  Uiso   1.00
C237   C     0.13914   0.38795   0.52247   0.00000  Uiso   1.00
C238   C     0.27518   0.51181   0.52620   0.00000  Uiso   1.00
C239   C     0.49280   0.72362   0.51850   0.00000  Uiso   1.00
C240   C     0.96279   0.04472   0.56729   0.00000  Uiso   1.00
C241   C     0.92472   0.91409   0.55060   0.00000  Uiso   1.00
C242   C     0.96270   0.82123   0.56719   0.00000  Uiso   1.00
C243   C     0.99943   0.63335   0.58323   0.00000  Uiso   1.00
C244   C     0.06717   0.22950   0.61295   0.00000  Uiso   1.00
C245   C     0.91992   0.22233   0.61479   0.00000  Uiso   1.00
C246   C     0.86015   0.24822   0.64435   0.00000  Uiso   1.00
C247   C     0.72418   0.23621   0.64064   0.00000  Uiso   1.00
C248   C     0.15273   0.33874   0.58412   0.00000  Uiso   1.00
C249   C     0.28872   0.46249   0.58790   0.00000  Uiso   1.00
C250   C     0.34875   0.54847   0.55838   0.00000  Uiso   1.00
C251   C     0.03623   0.08131   0.59941   0.00000  Uiso   1.00
C252   C     0.07430   0.98863   0.61603   0.00000  Uiso   1.00
C253   C     0.03628   0.85789   0.59937   0.00000  Uiso   1.00
H254   H     0.87480   0.13366   0.52880   0.00000  Uiso   1.00
H255   H     0.65378   0.14538   0.55405   0.00000  Uiso   1.00
H256   H     0.08229   0.35960   0.49761   0.00000  Uiso   1.00
H257   H     0.86789   0.88582   0.52574   0.00000  Uiso   1.00
H258   H     0.44114   0.17456   0.59621   0.00000  Uiso   1.00
H259   H     0.34469   0.62624   0.47720   0.00000  Uiso   1.00
H260   H     0.89260   0.62717   0.53651   0.00000  Uiso   1.00
H261   H     0.12435   0.25800   0.63796   0.00000  Uiso   1.00
H262   H     0.91701   0.27653   0.66920   0.00000  Uiso   1.00
H263   H     0.34553   0.49076   0.61276   0.00000  Uiso   1.00
H264   H     0.13113   0.01698   0.64089   0.00000  Uiso   1.00
H265   H     0.65479   0.28102   0.68967   0.00000  Uiso   1.00
H266   H     0.55836   0.73270   0.57066   0.00000  Uiso   1.00
H267   H     0.10626   0.73363   0.62997   0.00000  Uiso   1.00
O268   O     0.40709   0.23779   0.66152   0.00000  Uiso   1.00
O269   O     0.59253   0.83035   0.50538   0.00000  Uiso   1.00
O270   O     0.99939   0.51960   0.58320   0.00000  Uiso   1.00
N271   N     0.51986   0.19704   0.61392   0.00000  Uiso   1.00
N272   N     0.36463   0.61935   0.50266   0.00000  Uiso   1.00
N273   N     0.94199   0.68532   0.55810   0.00000  Uiso   1.00
N274   N     0.63483   0.25432   0.66421   0.00000  Uiso   1.00
N275   N     0.47959   0.67663   0.55295   0.00000  Uiso   1.00
N276   N     0.05696   0.74260   0.60839   0.00000  Uiso   1.00
