data_job_03732
_audit_creation_date              2018-12-19
_audit_creation_method            'Materials Studio'
_symmetry_space_group_name_H-M    'P1'
_symmetry_Int_Tables_number       1
_symmetry_cell_setting            triclinic
loop_
_symmetry_equiv_pos_as_xyz
  x,y,z
_cell_length_a                    13.1662
_cell_length_b                    21.2810
_cell_length_c                    22.1167
_cell_angle_alpha                 90.0000
_cell_angle_beta                  90.0000
_cell_angle_gamma                 90.0000
loop_
_atom_site_label
_atom_site_type_symbol
_atom_site_fract_x
_atom_site_fract_y
_atom_site_fract_z
_atom_site_U_iso_or_equiv
_atom_site_adp_type
_atom_site_occupancy
C1     C     0.85399   0.69384   0.42769   0.00000  Uiso   1.00
C2     C     0.88077   0.70125   0.49439   0.00000  Uiso   1.00
C3     C     0.81503   0.69182   0.54260   0.00000  Uiso   1.00
C4     C     0.85411   0.70101   0.60023   0.00000  Uiso   1.00
C5     C     0.88029   0.70981   0.70242   0.00000  Uiso   1.00
C6     C     0.87942   0.75654   0.39794   0.00000  Uiso   1.00
C7     C     0.81255   0.79359   0.36504   0.00000  Uiso   1.00
C8     C     0.85051   0.84931   0.34147   0.00000  Uiso   1.00
C9     C     0.87461   0.94393   0.29388   0.00000  Uiso   1.00
C10    C     0.92945   0.64641   0.40214   0.00000  Uiso   1.00
C11    C     0.90465   0.59087   0.37276   0.00000  Uiso   1.00
C12    C     0.98473   0.55388   0.35271   0.00000  Uiso   1.00
C13    C     0.08651   0.47751   0.31164   0.00000  Uiso   1.00
C14    C     0.04029   0.72693   0.44432   0.00000  Uiso   1.00
C15    C     0.98196   0.71923   0.50343   0.00000  Uiso   1.00
C16    C     0.02115   0.72842   0.56100   0.00000  Uiso   1.00
C17    C     0.95549   0.71901   0.60928   0.00000  Uiso   1.00
C18    C     0.98061   0.77451   0.40697   0.00000  Uiso   1.00
C19    C     0.01867   0.83019   0.38344   0.00000  Uiso   1.00
C20    C     0.95188   0.86732   0.35052   0.00000  Uiso   1.00
C21    C     0.03064   0.66438   0.41117   0.00000  Uiso   1.00
C22    C     0.11078   0.62747   0.39116   0.00000  Uiso   1.00
C23    C     0.08611   0.57189   0.36176   0.00000  Uiso   1.00
H24    H     0.77521   0.67986   0.42066   0.00000  Uiso   1.00
H25    H     0.73672   0.67792   0.53559   0.00000  Uiso   1.00
H26    H     0.73425   0.77967   0.35805   0.00000  Uiso   1.00
H27    H     0.82634   0.57698   0.36577   0.00000  Uiso   1.00
H28    H     0.73867   0.68372   0.66699   0.00000  Uiso   1.00
H29    H     0.73347   0.89825   0.29263   0.00000  Uiso   1.00
H30    H     0.92765   0.47085   0.30891   0.00000  Uiso   1.00
H31    H     0.11908   0.74092   0.45136   0.00000  Uiso   1.00
H32    H     0.09946   0.74233   0.56798   0.00000  Uiso   1.00
H33    H     0.09699   0.84408   0.39044   0.00000  Uiso   1.00
H34    H     0.18907   0.64140   0.39816   0.00000  Uiso   1.00
H35    H     0.03308   0.73600   0.69328   0.00000  Uiso   1.00
H36    H     0.02788   0.95053   0.31891   0.00000  Uiso   1.00
H37    H     0.22206   0.52313   0.33520   0.00000  Uiso   1.00
O38    O     0.86676   0.70971   0.75630   0.00000  Uiso   1.00
O39    O     0.85994   0.99116   0.26514   0.00000  Uiso   1.00
O40    O     0.11470   0.43041   0.28650   0.00000  Uiso   1.00
N41    N     0.81066   0.69582   0.65717   0.00000  Uiso   1.00
N42    N     0.80579   0.89640   0.30718   0.00000  Uiso   1.00
N43    N     0.98733   0.49682   0.32238   0.00000  Uiso   1.00
N44    N     0.96908   0.72395   0.67132   0.00000  Uiso   1.00
N45    N     0.96421   0.92453   0.32132   0.00000  Uiso   1.00
N46    N     0.14575   0.52495   0.33653   0.00000  Uiso   1.00
C47    C     0.35399   0.19384   0.42769   0.00000  Uiso   1.00
C48    C     0.38077   0.20125   0.49439   0.00000  Uiso   1.00
C49    C     0.31503   0.19182   0.54260   0.00000  Uiso   1.00
C50    C     0.35411   0.20101   0.60023   0.00000  Uiso   1.00
C51    C     0.38029   0.20981   0.70242   0.00000  Uiso   1.00
C52    C     0.37942   0.25654   0.39794   0.00000  Uiso   1.00
C53    C     0.31255   0.29359   0.36504   0.00000  Uiso   1.00
C54    C     0.35051   0.34931   0.34147   0.00000  Uiso   1.00
C55    C     0.37461   0.44393   0.29388   0.00000  Uiso   1.00
C56    C     0.42945   0.14641   0.40214   0.00000  Uiso   1.00
C57    C     0.40465   0.09087   0.37276   0.00000  Uiso   1.00
C58    C     0.48473   0.05388   0.35271   0.00000  Uiso   1.00
C59    C     0.58651   0.97751   0.31164   0.00000  Uiso   1.00
C60    C     0.54029   0.22693   0.44432   0.00000  Uiso   1.00
C61    C     0.48196   0.21923   0.50343   0.00000  Uiso   1.00
C62    C     0.52115   0.22842   0.56100   0.00000  Uiso   1.00
C63    C     0.45549   0.21901   0.60928   0.00000  Uiso   1.00
C64    C     0.48061   0.27451   0.40697   0.00000  Uiso   1.00
C65    C     0.51867   0.33019   0.38344   0.00000  Uiso   1.00
C66    C     0.45188   0.36732   0.35052   0.00000  Uiso   1.00
C67    C     0.53064   0.16438   0.41117   0.00000  Uiso   1.00
C68    C     0.61078   0.12747   0.39116   0.00000  Uiso   1.00
C69    C     0.58611   0.07189   0.36176   0.00000  Uiso   1.00
H70    H     0.27521   0.17986   0.42066   0.00000  Uiso   1.00
H71    H     0.23672   0.17792   0.53559   0.00000  Uiso   1.00
H72    H     0.23425   0.27967   0.35805   0.00000  Uiso   1.00
H73    H     0.32634   0.07698   0.36577   0.00000  Uiso   1.00
H74    H     0.23867   0.18372   0.66699   0.00000  Uiso   1.00
H75    H     0.23347   0.39825   0.29263   0.00000  Uiso   1.00
H76    H     0.42765   0.97085   0.30891   0.00000  Uiso   1.00
H77    H     0.61908   0.24092   0.45136   0.00000  Uiso   1.00
H78    H     0.59946   0.24233   0.56798   0.00000  Uiso   1.00
H79    H     0.59699   0.34408   0.39044   0.00000  Uiso   1.00
H80    H     0.68907   0.14140   0.39816   0.00000  Uiso   1.00
H81    H     0.53308   0.23600   0.69328   0.00000  Uiso   1.00
H82    H     0.52788   0.45053   0.31891   0.00000  Uiso   1.00
H83    H     0.72206   0.02313   0.33520   0.00000  Uiso   1.00
O84    O     0.36676   0.20971   0.75630   0.00000  Uiso   1.00
O85    O     0.35994   0.49116   0.26514   0.00000  Uiso   1.00
O86    O     0.61470   0.93041   0.28650   0.00000  Uiso   1.00
N87    N     0.31066   0.19582   0.65717   0.00000  Uiso   1.00
N88    N     0.30579   0.39640   0.30718   0.00000  Uiso   1.00
N89    N     0.48733   0.99682   0.32238   0.00000  Uiso   1.00
N90    N     0.46908   0.22395   0.67132   0.00000  Uiso   1.00
N91    N     0.46421   0.42453   0.32132   0.00000  Uiso   1.00
N92    N     0.64575   0.02495   0.33653   0.00000  Uiso   1.00
C93    C     0.14601   0.30616   0.92769   0.00000  Uiso   1.00
C94    C     0.11923   0.29875   0.99439   0.00000  Uiso   1.00
C95    C     0.18497   0.30818   0.04260   0.00000  Uiso   1.00
C96    C     0.14589   0.29899   0.10023   0.00000  Uiso   1.00
C97    C     0.11971   0.29019   0.20242   0.00000  Uiso   1.00
C98    C     0.12058   0.24346   0.89794   0.00000  Uiso   1.00
C99    C     0.18745   0.20641   0.86504   0.00000  Uiso   1.00
C100   C     0.14949   0.15069   0.84147   0.00000  Uiso   1.00
C101   C     0.12539   0.05607   0.79388   0.00000  Uiso   1.00
C102   C     0.07055   0.35359   0.90214   0.00000  Uiso   1.00
C103   C     0.09535   0.40913   0.87276   0.00000  Uiso   1.00
C104   C     0.01527   0.44612   0.85271   0.00000  Uiso   1.00
C105   C     0.91349   0.52249   0.81164   0.00000  Uiso   1.00
C106   C     0.95971   0.27307   0.94432   0.00000  Uiso   1.00
C107   C     0.01804   0.28077   0.00343   0.00000  Uiso   1.00
C108   C     0.97885   0.27158   0.06100   0.00000  Uiso   1.00
C109   C     0.04451   0.28099   0.10928   0.00000  Uiso   1.00
C110   C     0.01939   0.22549   0.90697   0.00000  Uiso   1.00
C111   C     0.98133   0.16981   0.88344   0.00000  Uiso   1.00
C112   C     0.04812   0.13268   0.85052   0.00000  Uiso   1.00
C113   C     0.96936   0.33562   0.91117   0.00000  Uiso   1.00
C114   C     0.88922   0.37253   0.89116   0.00000  Uiso   1.00
C115   C     0.91389   0.42811   0.86176   0.00000  Uiso   1.00
H116   H     0.22479   0.32014   0.92066   0.00000  Uiso   1.00
H117   H     0.26328   0.32208   0.03559   0.00000  Uiso   1.00
H118   H     0.26575   0.22033   0.85805   0.00000  Uiso   1.00
H119   H     0.17366   0.42302   0.86577   0.00000  Uiso   1.00
H120   H     0.26133   0.31628   0.16699   0.00000  Uiso   1.00
H121   H     0.26653   0.10175   0.79263   0.00000  Uiso   1.00
H122   H     0.07235   0.52915   0.80891   0.00000  Uiso   1.00
H123   H     0.88092   0.25908   0.95136   0.00000  Uiso   1.00
H124   H     0.90054   0.25767   0.06798   0.00000  Uiso   1.00
H125   H     0.90301   0.15592   0.89044   0.00000  Uiso   1.00
H126   H     0.81093   0.35860   0.89816   0.00000  Uiso   1.00
H127   H     0.96692   0.26400   0.19328   0.00000  Uiso   1.00
H128   H     0.97212   0.04947   0.81891   0.00000  Uiso   1.00
H129   H     0.77794   0.47687   0.83520   0.00000  Uiso   1.00
O130   O     0.13324   0.29029   0.25630   0.00000  Uiso   1.00
O131   O     0.14006   0.00884   0.76514   0.00000  Uiso   1.00
O132   O     0.88530   0.56959   0.78650   0.00000  Uiso   1.00
N133   N     0.18934   0.30418   0.15717   0.00000  Uiso   1.00
N134   N     0.19421   0.10360   0.80718   0.00000  Uiso   1.00
N135   N     0.01267   0.50318   0.82238   0.00000  Uiso   1.00
N136   N     0.03092   0.27605   0.17132   0.00000  Uiso   1.00
N137   N     0.03579   0.07547   0.82132   0.00000  Uiso   1.00
N138   N     0.85425   0.47505   0.83653   0.00000  Uiso   1.00
C139   C     0.64601   0.80616   0.92769   0.00000  Uiso   1.00
C140   C     0.61923   0.79875   0.99439   0.00000  Uiso   1.00
C141   C     0.68497   0.80818   0.04260   0.00000  Uiso   1.00
C142   C     0.64589   0.79899   0.10023   0.00000  Uiso   1.00
C143   C     0.61971   0.79019   0.20242   0.00000  Uiso   1.00
C144   C     0.62058   0.74346   0.89794   0.00000  Uiso   1.00
C145   C     0.68745   0.70641   0.86504   0.00000  Uiso   1.00
C146   C     0.64949   0.65069   0.84147   0.00000  Uiso   1.00
C147   C     0.62539   0.55607   0.79388   0.00000  Uiso   1.00
C148   C     0.57055   0.85359   0.90214   0.00000  Uiso   1.00
C149   C     0.59535   0.90913   0.87276   0.00000  Uiso   1.00
C150   C     0.51527   0.94612   0.85271   0.00000  Uiso   1.00
C151   C     0.41349   0.02249   0.81164   0.00000  Uiso   1.00
C152   C     0.45971   0.77307   0.94432   0.00000  Uiso   1.00
C153   C     0.51804   0.78077   0.00343   0.00000  Uiso   1.00
C154   C     0.47885   0.77158   0.06100   0.00000  Uiso   1.00
C155   C     0.54451   0.78099   0.10928   0.00000  Uiso   1.00
C156   C     0.51939   0.72549   0.90697   0.00000  Uiso   1.00
C157   C     0.48133   0.66981   0.88344   0.00000  Uiso   1.00
C158   C     0.54812   0.63268   0.85052   0.00000  Uiso   1.00
C159   C     0.46936   0.83562   0.91117   0.00000  Uiso   1.00
C160   C     0.38922   0.87253   0.89116   0.00000  Uiso   1.00
C161   C     0.41389   0.92811   0.86176   0.00000  Uiso   1.00
H162   H     0.72479   0.82014   0.92066   0.00000  Uiso   1.00
H163   H     0.76328   0.82208   0.03559   0.00000  Uiso   1.00
H164   H     0.76575   0.72033   0.85805   0.00000  Uiso   1.00
H165   H     0.67366   0.92302   0.86577   0.00000  Uiso   1.00
H166   H     0.76133   0.81628   0.16699   0.00000  Uiso   1.00
H167   H     0.76653   0.60175   0.79263   0.00000  Uiso   1.00
H168   H     0.57235   0.02915   0.80891   0.00000  Uiso   1.00
H169   H     0.38092   0.75908   0.95136   0.00000  Uiso   1.00
H170   H     0.40054   0.75767   0.06798   0.00000  Uiso   1.00
H171   H     0.40301   0.65592   0.89044   0.00000  Uiso   1.00
H172   H     0.31093   0.85860   0.89816   0.00000  Uiso   1.00
H173   H     0.46692   0.76400   0.19328   0.00000  Uiso   1.00
H174   H     0.47212   0.54947   0.81891   0.00000  Uiso   1.00
H175   H     0.27794   0.97687   0.83520   0.00000  Uiso   1.00
O176   O     0.63324   0.79029   0.25630   0.00000  Uiso   1.00
O177   O     0.64006   0.50884   0.76514   0.00000  Uiso   1.00
O178   O     0.38530   0.06959   0.78650   0.00000  Uiso   1.00
N179   N     0.68934   0.80418   0.15717   0.00000  Uiso   1.00
N180   N     0.69421   0.60360   0.80718   0.00000  Uiso   1.00
N181   N     0.51267   0.00318   0.82238   0.00000  Uiso   1.00
N182   N     0.53092   0.77605   0.17132   0.00000  Uiso   1.00
N183   N     0.53579   0.57547   0.82132   0.00000  Uiso   1.00
N184   N     0.35425   0.97505   0.83653   0.00000  Uiso   1.00
C185   C     0.14601   0.69384   0.07231   0.00000  Uiso   1.00
C186   C     0.11923   0.70125   0.00561   0.00000  Uiso   1.00
C187   C     0.18497   0.69182   0.95740   0.00000  Uiso   1.00
C188   C     0.14589   0.70101   0.89977   0.00000  Uiso   1.00
C189   C     0.11971   0.70981   0.79758   0.00000  Uiso   1.00
C190   C     0.12058   0.75654   0.10206   0.00000  Uiso   1.00
C191   C     0.18745   0.79359   0.13496   0.00000  Uiso   1.00
C192   C     0.14949   0.84931   0.15853   0.00000  Uiso   1.00
C193   C     0.12539   0.94393   0.20612   0.00000  Uiso   1.00
C194   C     0.07055   0.64641   0.09786   0.00000  Uiso   1.00
C195   C     0.09535   0.59087   0.12724   0.00000  Uiso   1.00
C196   C     0.01527   0.55388   0.14729   0.00000  Uiso   1.00
C197   C     0.91349   0.47751   0.18836   0.00000  Uiso   1.00
C198   C     0.95971   0.72693   0.05568   0.00000  Uiso   1.00
C199   C     0.01804   0.71923   0.99657   0.00000  Uiso   1.00
C200   C     0.97885   0.72842   0.93900   0.00000  Uiso   1.00
C201   C     0.04451   0.71901   0.89072   0.00000  Uiso   1.00
C202   C     0.01939   0.77451   0.09303   0.00000  Uiso   1.00
C203   C     0.98133   0.83019   0.11656   0.00000  Uiso   1.00
C204   C     0.04812   0.86732   0.14948   0.00000  Uiso   1.00
C205   C     0.96936   0.66438   0.08883   0.00000  Uiso   1.00
C206   C     0.88922   0.62747   0.10884   0.00000  Uiso   1.00
C207   C     0.91389   0.57189   0.13824   0.00000  Uiso   1.00
H208   H     0.22479   0.67986   0.07934   0.00000  Uiso   1.00
H209   H     0.26328   0.67792   0.96441   0.00000  Uiso   1.00
H210   H     0.26575   0.77967   0.14195   0.00000  Uiso   1.00
H211   H     0.17366   0.57698   0.13423   0.00000  Uiso   1.00
H212   H     0.26133   0.68372   0.83301   0.00000  Uiso   1.00
H213   H     0.26653   0.89825   0.20737   0.00000  Uiso   1.00
H214   H     0.07235   0.47085   0.19109   0.00000  Uiso   1.00
H215   H     0.88092   0.74092   0.04864   0.00000  Uiso   1.00
H216   H     0.90054   0.74233   0.93202   0.00000  Uiso   1.00
H217   H     0.90301   0.84408   0.10956   0.00000  Uiso   1.00
H218   H     0.81093   0.64140   0.10184   0.00000  Uiso   1.00
H219   H     0.96692   0.73600   0.80672   0.00000  Uiso   1.00
H220   H     0.97212   0.95053   0.18109   0.00000  Uiso   1.00
H221   H     0.77794   0.52313   0.16480   0.00000  Uiso   1.00
O222   O     0.13324   0.70971   0.74370   0.00000  Uiso   1.00
O223   O     0.14006   0.99116   0.23486   0.00000  Uiso   1.00
O224   O     0.88530   0.43041   0.21350   0.00000  Uiso   1.00
N225   N     0.18934   0.69582   0.84283   0.00000  Uiso   1.00
N226   N     0.19421   0.89640   0.19282   0.00000  Uiso   1.00
N227   N     0.01267   0.49682   0.17762   0.00000  Uiso   1.00
N228   N     0.03092   0.72395   0.82868   0.00000  Uiso   1.00
N229   N     0.03579   0.92453   0.17868   0.00000  Uiso   1.00
N230   N     0.85425   0.52495   0.16347   0.00000  Uiso   1.00
C231   C     0.64601   0.19384   0.07231   0.00000  Uiso   1.00
C232   C     0.61923   0.20125   0.00561   0.00000  Uiso   1.00
C233   C     0.68497   0.19182   0.95740   0.00000  Uiso   1.00
C234   C     0.64589   0.20101   0.89977   0.00000  Uiso   1.00
C235   C     0.61971   0.20981   0.79758   0.00000  Uiso   1.00
C236   C     0.62058   0.25654   0.10206   0.00000  Uiso   1.00
C237   C     0.68745   0.29359   0.13496   0.00000  Uiso   1.00
C238   C     0.64949   0.34931   0.15853   0.00000  Uiso   1.00
C239   C     0.62539   0.44393   0.20612   0.00000  Uiso   1.00
C240   C     0.57055   0.14641   0.09786   0.00000  Uiso   1.00
C241   C     0.59535   0.09087   0.12724   0.00000  Uiso   1.00
C242   C     0.51527   0.05388   0.14729   0.00000  Uiso   1.00
C243   C     0.41349   0.97751   0.18836   0.00000  Uiso   1.00
C244   C     0.45971   0.22693   0.05568   0.00000  Uiso   1.00
C245   C     0.51804   0.21923   0.99657   0.00000  Uiso   1.00
C246   C     0.47885   0.22842   0.93900   0.00000  Uiso   1.00
C247   C     0.54451   0.21901   0.89072   0.00000  Uiso   1.00
C248   C     0.51939   0.27451   0.09303   0.00000  Uiso   1.00
C249   C     0.48133   0.33019   0.11656   0.00000  Uiso   1.00
C250   C     0.54812   0.36732   0.14948   0.00000  Uiso   1.00
C251   C     0.46936   0.16438   0.08883   0.00000  Uiso   1.00
C252   C     0.38922   0.12747   0.10884   0.00000  Uiso   1.00
C253   C     0.41389   0.07189   0.13824   0.00000  Uiso   1.00
H254   H     0.72479   0.17986   0.07934   0.00000  Uiso   1.00
H255   H     0.76328   0.17792   0.96441   0.00000  Uiso   1.00
H256   H     0.76575   0.27967   0.14195   0.00000  Uiso   1.00
H257   H     0.67366   0.07698   0.13423   0.00000  Uiso   1.00
H258   H     0.76133   0.18372   0.83301   0.00000  Uiso   1.00
H259   H     0.76653   0.39825   0.20737   0.00000  Uiso   1.00
H260   H     0.57235   0.97085   0.19109   0.00000  Uiso   1.00
H261   H     0.38092   0.24092   0.04864   0.00000  Uiso   1.00
H262   H     0.40054   0.24233   0.93202   0.00000  Uiso   1.00
H263   H     0.40301   0.34408   0.10956   0.00000  Uiso   1.00
H264   H     0.31093   0.14140   0.10184   0.00000  Uiso   1.00
H265   H     0.46692   0.23600   0.80672   0.00000  Uiso   1.00
H266   H     0.47212   0.45053   0.18109   0.00000  Uiso   1.00
H267   H     0.27794   0.02313   0.16480   0.00000  Uiso   1.00
O268   O     0.63324   0.20971   0.74370   0.00000  Uiso   1.00
O269   O     0.64006   0.49116   0.23486   0.00000  Uiso   1.00
O270   O     0.38530   0.93041   0.21350   0.00000  Uiso   1.00
N271   N     0.68934   0.19582   0.84283   0.00000  Uiso   1.00
N272   N     0.69421   0.39640   0.19282   0.00000  Uiso   1.00
N273   N     0.51267   0.99682   0.17762   0.00000  Uiso   1.00
N274   N     0.53092   0.22395   0.82868   0.00000  Uiso   1.00
N275   N     0.53579   0.42453   0.17868   0.00000  Uiso   1.00
N276   N     0.35425   0.02495   0.16347   0.00000  Uiso   1.00
C277   C     0.85399   0.30616   0.57231   0.00000  Uiso   1.00
C278   C     0.88077   0.29875   0.50561   0.00000  Uiso   1.00
C279   C     0.81503   0.30818   0.45740   0.00000  Uiso   1.00
C280   C     0.85411   0.29899   0.39977   0.00000  Uiso   1.00
C281   C     0.88029   0.29019   0.29758   0.00000  Uiso   1.00
C282   C     0.87942   0.24346   0.60206   0.00000  Uiso   1.00
C283   C     0.81255   0.20641   0.63496   0.00000  Uiso   1.00
C284   C     0.85051   0.15069   0.65853   0.00000  Uiso   1.00
C285   C     0.87461   0.05607   0.70612   0.00000  Uiso   1.00
C286   C     0.92945   0.35359   0.59786   0.00000  Uiso   1.00
C287   C     0.90465   0.40913   0.62724   0.00000  Uiso   1.00
C288   C     0.98473   0.44612   0.64729   0.00000  Uiso   1.00
C289   C     0.08651   0.52249   0.68836   0.00000  Uiso   1.00
C290   C     0.04029   0.27307   0.55568   0.00000  Uiso   1.00
C291   C     0.98196   0.28077   0.49657   0.00000  Uiso   1.00
C292   C     0.02115   0.27158   0.43900   0.00000  Uiso   1.00
C293   C     0.95549   0.28099   0.39072   0.00000  Uiso   1.00
C294   C     0.98061   0.22549   0.59303   0.00000  Uiso   1.00
C295   C     0.01867   0.16981   0.61656   0.00000  Uiso   1.00
C296   C     0.95188   0.13268   0.64948   0.00000  Uiso   1.00
C297   C     0.03064   0.33562   0.58883   0.00000  Uiso   1.00
C298   C     0.11078   0.37253   0.60884   0.00000  Uiso   1.00
C299   C     0.08611   0.42811   0.63824   0.00000  Uiso   1.00
H300   H     0.77521   0.32014   0.57934   0.00000  Uiso   1.00
H301   H     0.73672   0.32208   0.46441   0.00000  Uiso   1.00
H302   H     0.73425   0.22033   0.64195   0.00000  Uiso   1.00
H303   H     0.82634   0.42302   0.63423   0.00000  Uiso   1.00
H304   H     0.73867   0.31628   0.33301   0.00000  Uiso   1.00
H305   H     0.73347   0.10175   0.70737   0.00000  Uiso   1.00
H306   H     0.92765   0.52915   0.69109   0.00000  Uiso   1.00
H307   H     0.11908   0.25908   0.54864   0.00000  Uiso   1.00
H308   H     0.09946   0.25767   0.43202   0.00000  Uiso   1.00
H309   H     0.09699   0.15592   0.60956   0.00000  Uiso   1.00
H310   H     0.18907   0.35860   0.60184   0.00000  Uiso   1.00
H311   H     0.03308   0.26400   0.30672   0.00000  Uiso   1.00
H312   H     0.02788   0.04947   0.68109   0.00000  Uiso   1.00
H313   H     0.22206   0.47687   0.66480   0.00000  Uiso   1.00
O314   O     0.86676   0.29029   0.24370   0.00000  Uiso   1.00
O315   O     0.85994   0.00884   0.73486   0.00000  Uiso   1.00
O316   O     0.11470   0.56959   0.71350   0.00000  Uiso   1.00
N317   N     0.81066   0.30418   0.34283   0.00000  Uiso   1.00
N318   N     0.80579   0.10360   0.69282   0.00000  Uiso   1.00
N319   N     0.98733   0.50318   0.67762   0.00000  Uiso   1.00
N320   N     0.96908   0.27605   0.32868   0.00000  Uiso   1.00
N321   N     0.96421   0.07547   0.67868   0.00000  Uiso   1.00
N322   N     0.14575   0.47505   0.66347   0.00000  Uiso   1.00
C323   C     0.35399   0.80616   0.57231   0.00000  Uiso   1.00
C324   C     0.38077   0.79875   0.50561   0.00000  Uiso   1.00
C325   C     0.31503   0.80818   0.45740   0.00000  Uiso   1.00
C326   C     0.35411   0.79899   0.39977   0.00000  Uiso   1.00
C327   C     0.38029   0.79019   0.29758   0.00000  Uiso   1.00
C328   C     0.37942   0.74346   0.60206   0.00000  Uiso   1.00
C329   C     0.31255   0.70641   0.63496   0.00000  Uiso   1.00
C330   C     0.35051   0.65069   0.65853   0.00000  Uiso   1.00
C331   C     0.37461   0.55607   0.70612   0.00000  Uiso   1.00
C332   C     0.42945   0.85359   0.59786   0.00000  Uiso   1.00
C333   C     0.40465   0.90913   0.62724   0.00000  Uiso   1.00
C334   C     0.48473   0.94612   0.64729   0.00000  Uiso   1.00
C335   C     0.58651   0.02249   0.68836   0.00000  Uiso   1.00
C336   C     0.54029   0.77307   0.55568   0.00000  Uiso   1.00
C337   C     0.48196   0.78077   0.49657   0.00000  Uiso   1.00
C338   C     0.52115   0.77158   0.43900   0.00000  Uiso   1.00
C339   C     0.45549   0.78099   0.39072   0.00000  Uiso   1.00
C340   C     0.48061   0.72549   0.59303   0.00000  Uiso   1.00
C341   C     0.51867   0.66981   0.61656   0.00000  Uiso   1.00
C342   C     0.45188   0.63268   0.64948   0.00000  Uiso   1.00
C343   C     0.53064   0.83562   0.58883   0.00000  Uiso   1.00
C344   C     0.61078   0.87253   0.60884   0.00000  Uiso   1.00
C345   C     0.58611   0.92811   0.63824   0.00000  Uiso   1.00
H346   H     0.27521   0.82014   0.57934   0.00000  Uiso   1.00
H347   H     0.23672   0.82208   0.46441   0.00000  Uiso   1.00
H348   H     0.23425   0.72033   0.64195   0.00000  Uiso   1.00
H349   H     0.32634   0.92302   0.63423   0.00000  Uiso   1.00
H350   H     0.23867   0.81628   0.33301   0.00000  Uiso   1.00
H351   H     0.23347   0.60175   0.70737   0.00000  Uiso   1.00
H352   H     0.42765   0.02915   0.69109   0.00000  Uiso   1.00
H353   H     0.61908   0.75908   0.54864   0.00000  Uiso   1.00
H354   H     0.59946   0.75767   0.43202   0.00000  Uiso   1.00
H355   H     0.59699   0.65592   0.60956   0.00000  Uiso   1.00
H356   H     0.68907   0.85860   0.60184   0.00000  Uiso   1.00
H357   H     0.53308   0.76400   0.30672   0.00000  Uiso   1.00
H358   H     0.52788   0.54947   0.68109   0.00000  Uiso   1.00
H359   H     0.72206   0.97687   0.66480   0.00000  Uiso   1.00
O360   O     0.36676   0.79029   0.24370   0.00000  Uiso   1.00
O361   O     0.35994   0.50884   0.73486   0.00000  Uiso   1.00
O362   O     0.61470   0.06959   0.71350   0.00000  Uiso   1.00
N363   N     0.31066   0.80418   0.34283   0.00000  Uiso   1.00
N364   N     0.30579   0.60360   0.69282   0.00000  Uiso   1.00
N365   N     0.48733   0.00318   0.67762   0.00000  Uiso   1.00
N366   N     0.46908   0.77605   0.32868   0.00000  Uiso   1.00
N367   N     0.46421   0.57547   0.67868   0.00000  Uiso   1.00
N368   N     0.64575   0.97505   0.66347   0.00000  Uiso   1.00
