data_job_06788
_audit_creation_date              2018-12-19
_audit_creation_method            'Materials Studio'
_symmetry_space_group_name_H-M    'P1'
_symmetry_Int_Tables_number       1
_symmetry_cell_setting            triclinic
loop_
_symmetry_equiv_pos_as_xyz
  x,y,z
_cell_length_a                    24.3450
_cell_length_b                    24.0054
_cell_length_c                    24.2320
_cell_angle_alpha                 67.3180
_cell_angle_beta                  66.6606
_cell_angle_gamma                 66.6190
loop_
_atom_site_label
_atom_site_type_symbol
_atom_site_fract_x
_atom_site_fract_y
_atom_site_fract_z
_atom_site_U_iso_or_equiv
_atom_site_adp_type
_atom_site_occupancy
C1     C     0.72563   0.03402   0.09164   0.00000  Uiso   1.00
C2     C     0.69843   0.04649   0.15571   0.00000  Uiso   1.00
C3     C     0.70320   0.09468   0.17017   0.00000  Uiso   1.00
C4     C     0.67514   0.09811   0.23151   0.00000  Uiso   1.00
C5     C     0.63775   0.12404   0.32413   0.00000  Uiso   1.00
C6     C     0.76755   0.96616   0.10102   0.00000  Uiso   1.00
C7     C     0.83044   0.94681   0.06948   0.00000  Uiso   1.00
C8     C     0.86056   0.88262   0.08476   0.00000  Uiso   1.00
C9     C     0.93048   0.78383   0.09243   0.00000  Uiso   1.00
C10    C     0.67092   0.03485   0.07521   0.00000  Uiso   1.00
C11    C     0.65257   0.07323   0.02197   0.00000  Uiso   1.00
C12    C     0.60134   0.06685   0.01553   0.00000  Uiso   1.00
C13    C     0.52123   0.07470   0.98314   0.00000  Uiso   1.00
C14    C     0.66728   0.95442   0.17485   0.00000  Uiso   1.00
C15    C     0.66674   0.00326   0.20091   0.00000  Uiso   1.00
C16    C     0.63865   0.00661   0.26224   0.00000  Uiso   1.00
C17    C     0.64339   0.05480   0.27679   0.00000  Uiso   1.00
C18    C     0.73586   0.92293   0.14621   0.00000  Uiso   1.00
C19    C     0.76589   0.85875   0.16154   0.00000  Uiso   1.00
C20    C     0.82881   0.83930   0.13004   0.00000  Uiso   1.00
C21    C     0.63923   0.99161   0.12041   0.00000  Uiso   1.00
C22    C     0.58802   0.98517   0.11404   0.00000  Uiso   1.00
C23    C     0.56960   0.02353   0.06081   0.00000  Uiso   1.00
H24    H     0.75030   0.06768   0.05645   0.00000  Uiso   1.00
H25    H     0.72774   0.12813   0.13518   0.00000  Uiso   1.00
H26    H     0.85495   0.98028   0.03450   0.00000  Uiso   1.00
H27    H     0.67711   0.10668   0.98701   0.00000  Uiso   1.00
H28    H     0.68877   0.17607   0.24241   0.00000  Uiso   1.00
H29    H     0.95700   0.86433   0.03010   0.00000  Uiso   1.00
H30    H     0.58198   0.13086   0.92995   0.00000  Uiso   1.00
H31    H     0.64261   0.92076   0.21004   0.00000  Uiso   1.00
H32    H     0.61414   0.97315   0.29720   0.00000  Uiso   1.00
H33    H     0.74135   0.82530   0.19652   0.00000  Uiso   1.00
H34    H     0.56351   0.95170   0.14903   0.00000  Uiso   1.00
H35    H     0.59657   0.05028   0.37391   0.00000  Uiso   1.00
H36    H     0.86480   0.73854   0.16160   0.00000  Uiso   1.00
H37    H     0.48979   0.00508   0.06146   0.00000  Uiso   1.00
O38    O     0.62590   0.15027   0.36273   0.00000  Uiso   1.00
O39    O     0.97780   0.74128   0.08418   0.00000  Uiso   1.00
O40    O     0.48579   0.09098   0.95279   0.00000  Uiso   1.00
N41    N     0.67096   0.13928   0.26139   0.00000  Uiso   1.00
N42    N     0.92175   0.84782   0.06290   0.00000  Uiso   1.00
N43    N     0.57115   0.09700   0.96927   0.00000  Uiso   1.00
N44    N     0.62135   0.07160   0.33215   0.00000  Uiso   1.00
N45    N     0.87213   0.78014   0.13366   0.00000  Uiso   1.00
N46    N     0.52154   0.02932   0.04003   0.00000  Uiso   1.00
C47    C     0.17015   0.50674   0.16933   0.00000  Uiso   1.00
C48    C     0.23696   0.47386   0.17333   0.00000  Uiso   1.00
C49    C     0.25636   0.45713   0.22570   0.00000  Uiso   1.00
C50    C     0.31951   0.42742   0.21989   0.00000  Uiso   1.00
C51    C     0.41685   0.37830   0.23465   0.00000  Uiso   1.00
C52    C     0.17263   0.56635   0.11534   0.00000  Uiso   1.00
C53    C     0.13794   0.62739   0.11894   0.00000  Uiso   1.00
C54    C     0.14693   0.67554   0.06429   0.00000  Uiso   1.00
C55    C     0.14436   0.77001   0.98900   0.00000  Uiso   1.00
C56    C     0.15406   0.46422   0.14842   0.00000  Uiso   1.00
C57    C     0.10374   0.43940   0.17982   0.00000  Uiso   1.00
C58    C     0.09708   0.40156   0.15302   0.00000  Uiso   1.00
C59    C     0.06567   0.33746   0.12910   0.00000  Uiso   1.00
C60    C     0.24780   0.48370   0.06588   0.00000  Uiso   1.00
C61    C     0.27914   0.46135   0.11714   0.00000  Uiso   1.00
C62    C     0.34228   0.43165   0.11125   0.00000  Uiso   1.00
C63    C     0.36177   0.41488   0.16360   0.00000  Uiso   1.00
C64    C     0.21481   0.55384   0.05915   0.00000  Uiso   1.00
C65    C     0.22385   0.60191   0.00449   0.00000  Uiso   1.00
C66    C     0.18918   0.66300   0.00800   0.00000  Uiso   1.00
C67    C     0.19624   0.45170   0.09223   0.00000  Uiso   1.00
C68    C     0.18965   0.41391   0.06537   0.00000  Uiso   1.00
C69    C     0.13933   0.38903   0.09674   0.00000  Uiso   1.00
H70    H     0.13731   0.51648   0.21307   0.00000  Uiso   1.00
H71    H     0.22371   0.46683   0.26917   0.00000  Uiso   1.00
H72    H     0.10530   0.63706   0.16242   0.00000  Uiso   1.00
H73    H     0.07111   0.44909   0.22330   0.00000  Uiso   1.00
H74    H     0.33810   0.40629   0.30659   0.00000  Uiso   1.00
H75    H     0.08841   0.76522   0.08150   0.00000  Uiso   1.00
H76    H     0.01631   0.36885   0.20987   0.00000  Uiso   1.00
H77    H     0.28064   0.47396   0.02213   0.00000  Uiso   1.00
H78    H     0.37490   0.42197   0.06776   0.00000  Uiso   1.00
H79    H     0.25649   0.59221   0.96101   0.00000  Uiso   1.00
H80    H     0.22230   0.40423   0.02189   0.00000  Uiso   1.00
H81    H     0.46082   0.36988   0.14312   0.00000  Uiso   1.00
H82    H     0.21112   0.72882   0.91803   0.00000  Uiso   1.00
H83    H     0.13902   0.33245   0.04640   0.00000  Uiso   1.00
O84    O     0.45889   0.35467   0.25831   0.00000  Uiso   1.00
O85    O     0.13129   0.82558   0.96300   0.00000  Uiso   1.00
O86    O     0.03670   0.30555   0.13142   0.00000  Uiso   1.00
N87    N     0.35405   0.40484   0.26186   0.00000  Uiso   1.00
N88    N     0.12060   0.74043   0.05141   0.00000  Uiso   1.00
N89    N     0.05319   0.36987   0.17143   0.00000  Uiso   1.00
N90    N     0.42008   0.38525   0.17390   0.00000  Uiso   1.00
N91    N     0.18663   0.72084   0.96345   0.00000  Uiso   1.00
N92    N     0.11922   0.35028   0.08346   0.00000  Uiso   1.00
C93    C     0.22219   0.92262   0.67967   0.00000  Uiso   1.00
C94    C     0.23680   0.98553   0.64476   0.00000  Uiso   1.00
C95    C     0.28955   0.99884   0.63924   0.00000  Uiso   1.00
C96    C     0.29425   0.05923   0.60540   0.00000  Uiso   1.00
C97    C     0.32398   0.15002   0.55537   0.00000  Uiso   1.00
C98    C     0.15848   0.93711   0.72742   0.00000  Uiso   1.00
C99    C     0.14539   0.90970   0.79140   0.00000  Uiso   1.00
C100   C     0.08417   0.92932   0.82713   0.00000  Uiso   1.00
C101   C     0.99230   0.94490   0.90543   0.00000  Uiso   1.00
C102   C     0.21273   0.90248   0.63237   0.00000  Uiso   1.00
C103   C     0.24523   0.84596   0.61643   0.00000  Uiso   1.00
C104   C     0.22967   0.83642   0.57215   0.00000  Uiso   1.00
C105   C     0.22203   0.79825   0.50286   0.00000  Uiso   1.00
C106   C     0.13675   0.00618   0.62937   0.00000  Uiso   1.00
C107   C     0.19039   0.03091   0.61744   0.00000  Uiso   1.00
C108   C     0.19502   0.09130   0.58359   0.00000  Uiso   1.00
C109   C     0.24777   0.10470   0.57802   0.00000  Uiso   1.00
C110   C     0.11208   0.98249   0.70010   0.00000  Uiso   1.00
C111   C     0.05086   0.00216   0.73574   0.00000  Uiso   1.00
C112   C     0.03767   0.97479   0.79976   0.00000  Uiso   1.00
C113   C     0.16632   0.94787   0.60504   0.00000  Uiso   1.00
C114   C     0.15071   0.93842   0.56078   0.00000  Uiso   1.00
C115   C     0.18318   0.88189   0.54478   0.00000  Uiso   1.00
H116   H     0.25831   0.88728   0.70094   0.00000  Uiso   1.00
H117   H     0.32545   0.96370   0.66040   0.00000  Uiso   1.00
H118   H     0.18131   0.87457   0.81252   0.00000  Uiso   1.00
H119   H     0.28114   0.81085   0.63759   0.00000  Uiso   1.00
H120   H     0.37940   0.06846   0.60342   0.00000  Uiso   1.00
H121   H     0.07547   0.88051   0.92418   0.00000  Uiso   1.00
H122   H     0.28598   0.74612   0.55529   0.00000  Uiso   1.00
H123   H     0.10062   0.04152   0.60810   0.00000  Uiso   1.00
H124   H     0.15910   0.12641   0.56245   0.00000  Uiso   1.00
H125   H     0.01496   0.03728   0.71458   0.00000  Uiso   1.00
H126   H     0.11479   0.97355   0.53965   0.00000  Uiso   1.00
H127   H     0.24438   0.20052   0.52392   0.00000  Uiso   1.00
H128   H     0.94045   0.01257   0.84469   0.00000  Uiso   1.00
H129   H     0.15097   0.87818   0.47580   0.00000  Uiso   1.00
O130   O     0.35320   0.18756   0.53534   0.00000  Uiso   1.00
O131   O     0.95445   0.94096   0.95617   0.00000  Uiso   1.00
O132   O     0.23065   0.76466   0.47219   0.00000  Uiso   1.00
N133   N     0.33960   0.08789   0.59096   0.00000  Uiso   1.00
N134   N     0.05545   0.91217   0.89086   0.00000  Uiso   1.00
N135   N     0.25225   0.78652   0.54599   0.00000  Uiso   1.00
N136   N     0.26695   0.15895   0.54819   0.00000  Uiso   1.00
N137   N     0.98280   0.98323   0.84808   0.00000  Uiso   1.00
N138   N     0.17960   0.85758   0.50321   0.00000  Uiso   1.00
C139   C     0.44304   0.43933   0.41319   0.00000  Uiso   1.00
C140   C     0.41321   0.49781   0.43726   0.00000  Uiso   1.00
C141   C     0.42429   0.50524   0.48559   0.00000  Uiso   1.00
C142   C     0.39241   0.56231   0.50058   0.00000  Uiso   1.00
C143   C     0.35242   0.64585   0.54283   0.00000  Uiso   1.00
C144   C     0.47448   0.46177   0.34357   0.00000  Uiso   1.00
C145   C     0.53709   0.43888   0.31312   0.00000  Uiso   1.00
C146   C     0.55678   0.46560   0.24924   0.00000  Uiso   1.00
C147   C     0.61192   0.49315   0.14603   0.00000  Uiso   1.00
C148   C     0.38911   0.41880   0.41808   0.00000  Uiso   1.00
C149   C     0.37994   0.35979   0.45027   0.00000  Uiso   1.00
C150   C     0.32777   0.35033   0.44911   0.00000  Uiso   1.00
C151   C     0.25035   0.31118   0.46160   0.00000  Uiso   1.00
C152   C     0.36669   0.52747   0.35387   0.00000  Uiso   1.00
C153   C     0.37174   0.54569   0.40503   0.00000  Uiso   1.00
C154   C     0.33982   0.60276   0.41996   0.00000  Uiso   1.00
C155   C     0.35086   0.61027   0.46830   0.00000  Uiso   1.00
C156   C     0.43302   0.50964   0.31135   0.00000  Uiso   1.00
C157   C     0.45262   0.53640   0.24749   0.00000  Uiso   1.00
C158   C     0.51524   0.51356   0.21696   0.00000  Uiso   1.00
C159   C     0.34764   0.46668   0.38586   0.00000  Uiso   1.00
C160   C     0.29547   0.45731   0.38465   0.00000  Uiso   1.00
C161   C     0.28622   0.39829   0.41683   0.00000  Uiso   1.00
H162   H     0.47533   0.40205   0.43827   0.00000  Uiso   1.00
H163   H     0.45639   0.46818   0.51051   0.00000  Uiso   1.00
H164   H     0.56917   0.40183   0.33807   0.00000  Uiso   1.00
H165   H     0.41204   0.32275   0.47520   0.00000  Uiso   1.00
H166   H     0.41713   0.56262   0.57637   0.00000  Uiso   1.00
H167   H     0.65492   0.42269   0.21278   0.00000  Uiso   1.00
H168   H     0.32359   0.25595   0.50194   0.00000  Uiso   1.00
H169   H     0.33441   0.56474   0.32878   0.00000  Uiso   1.00
H170   H     0.30774   0.63980   0.39501   0.00000  Uiso   1.00
H171   H     0.42052   0.57344   0.22258   0.00000  Uiso   1.00
H172   H     0.26339   0.49437   0.35971   0.00000  Uiso   1.00
H173   H     0.29648   0.70191   0.48263   0.00000  Uiso   1.00
H174   H     0.53427   0.56198   0.11903   0.00000  Uiso   1.00
H175   H     0.20294   0.39524   0.40820   0.00000  Uiso   1.00
O176   O     0.34182   0.67871   0.57504   0.00000  Uiso   1.00
O177   O     0.65379   0.49513   0.09801   0.00000  Uiso   1.00
O178   O     0.21910   0.27636   0.47739   0.00000  Uiso   1.00
N179   N     0.39239   0.58509   0.54523   0.00000  Uiso   1.00
N180   N     0.61471   0.45428   0.20529   0.00000  Uiso   1.00
N181   N     0.30496   0.29838   0.47562   0.00000  Uiso   1.00
N182   N     0.32746   0.66004   0.49479   0.00000  Uiso   1.00
N183   N     0.54979   0.52923   0.15485   0.00000  Uiso   1.00
N184   N     0.24003   0.37333   0.42518   0.00000  Uiso   1.00
C185   C     0.74537   0.26125   0.28895   0.00000  Uiso   1.00
C186   C     0.78439   0.30646   0.26618   0.00000  Uiso   1.00
C187   C     0.77893   0.34658   0.29793   0.00000  Uiso   1.00
C188   C     0.81896   0.38423   0.26923   0.00000  Uiso   1.00
C189   C     0.87289   0.45477   0.24277   0.00000  Uiso   1.00
C190   C     0.79182   0.19599   0.28914   0.00000  Uiso   1.00
C191   C     0.79260   0.14323   0.34020   0.00000  Uiso   1.00
C192   C     0.83888   0.08789   0.33083   0.00000  Uiso   1.00
C193   C     0.90431   0.98692   0.34001   0.00000  Uiso   1.00
C194   C     0.71528   0.27824   0.23790   0.00000  Uiso   1.00
C195   C     0.65170   0.29462   0.24586   0.00000  Uiso   1.00
C196   C     0.63354   0.30851   0.19334   0.00000  Uiso   1.00
C197   C     0.58014   0.33524   0.12296   0.00000  Uiso   1.00
C198   C     0.82616   0.25678   0.18152   0.00000  Uiso   1.00
C199   C     0.82827   0.30403   0.20783   0.00000  Uiso   1.00
C200   C     0.86832   0.34163   0.17907   0.00000  Uiso   1.00
C201   C     0.86292   0.38180   0.21077   0.00000  Uiso   1.00
C202   C     0.83570   0.19356   0.23080   0.00000  Uiso   1.00
C203   C     0.88198   0.13829   0.22134   0.00000  Uiso   1.00
C204   C     0.88284   0.08546   0.27237   0.00000  Uiso   1.00
C205   C     0.75916   0.27581   0.17955   0.00000  Uiso   1.00
C206   C     0.74109   0.28968   0.12701   0.00000  Uiso   1.00
C207   C     0.67750   0.30608   0.13489   0.00000  Uiso   1.00
H208   H     0.71121   0.26314   0.33438   0.00000  Uiso   1.00
H209   H     0.74497   0.34844   0.34309   0.00000  Uiso   1.00
H210   H     0.75863   0.14512   0.38535   0.00000  Uiso   1.00
H211   H     0.61776   0.29649   0.29102   0.00000  Uiso   1.00
H212   H     0.80177   0.44192   0.32703   0.00000  Uiso   1.00
H213   H     0.83056   0.01321   0.41613   0.00000  Uiso   1.00
H214   H     0.53350   0.33240   0.21723   0.00000  Uiso   1.00
H215   H     0.86033   0.25489   0.13609   0.00000  Uiso   1.00
H216   H     0.90227   0.33974   0.13392   0.00000  Uiso   1.00
H217   H     0.91593   0.13643   0.17618   0.00000  Uiso   1.00
H218   H     0.77506   0.28779   0.08186   0.00000  Uiso   1.00
H219   H     0.92944   0.43486   0.15726   0.00000  Uiso   1.00
H220   H     0.95823   0.00615   0.24636   0.00000  Uiso   1.00
H221   H     0.66118   0.32534   0.04746   0.00000  Uiso   1.00
O222   O     0.89052   0.49434   0.24430   0.00000  Uiso   1.00
O223   O     0.92829   0.93189   0.36120   0.00000  Uiso   1.00
O224   O     0.53856   0.35066   0.10025   0.00000  Uiso   1.00
N225   N     0.82605   0.42862   0.28736   0.00000  Uiso   1.00
N226   N     0.85298   0.02781   0.37067   0.00000  Uiso   1.00
N227   N     0.57525   0.32621   0.18472   0.00000  Uiso   1.00
N228   N     0.89475   0.42482   0.19601   0.00000  Uiso   1.00
N229   N     0.92168   0.02401   0.27932   0.00000  Uiso   1.00
N230   N     0.64395   0.32241   0.09337   0.00000  Uiso   1.00
C231   C     0.46619   0.26100   0.60582   0.00000  Uiso   1.00
C232   C     0.48283   0.23661   0.66703   0.00000  Uiso   1.00
C233   C     0.52629   0.25176   0.67803   0.00000  Uiso   1.00
C234   C     0.53476   0.22455   0.73716   0.00000  Uiso   1.00
C235   C     0.56572   0.19292   0.82516   0.00000  Uiso   1.00
C236   C     0.39580   0.29208   0.62185   0.00000  Uiso   1.00
C237   C     0.36608   0.35386   0.59485   0.00000  Uiso   1.00
C238   C     0.30130   0.37334   0.61594   0.00000  Uiso   1.00
C239   C     0.19714   0.42782   0.63376   0.00000  Uiso   1.00
C240   C     0.47730   0.20275   0.58713   0.00000  Uiso   1.00
C241   C     0.51609   0.18942   0.53093   0.00000  Uiso   1.00
C242   C     0.51990   0.13369   0.52278   0.00000  Uiso   1.00
C243   C     0.54228   0.04946   0.48669   0.00000  Uiso   1.00
C244   C     0.40397   0.18574   0.69127   0.00000  Uiso   1.00
C245   C     0.44903   0.19574   0.71345   0.00000  Uiso   1.00
C246   C     0.45745   0.16850   0.77257   0.00000  Uiso   1.00
C247   C     0.50091   0.18360   0.78366   0.00000  Uiso   1.00
C248   C     0.36200   0.25121   0.66826   0.00000  Uiso   1.00
C249   C     0.29725   0.27060   0.68939   0.00000  Uiso   1.00
C250   C     0.26744   0.33239   0.66244   0.00000  Uiso   1.00
C251   C     0.44350   0.16187   0.63355   0.00000  Uiso   1.00
C252   C     0.44725   0.10615   0.62548   0.00000  Uiso   1.00
C253   C     0.48604   0.09274   0.56928   0.00000  Uiso   1.00
H254   H     0.49250   0.29283   0.56968   0.00000  Uiso   1.00
H255   H     0.55243   0.28340   0.64210   0.00000  Uiso   1.00
H256   H     0.39225   0.38548   0.55893   0.00000  Uiso   1.00
H257   H     0.54223   0.22106   0.49502   0.00000  Uiso   1.00
H258   H     0.60395   0.25494   0.74287   0.00000  Uiso   1.00
H259   H     0.26621   0.47018   0.56748   0.00000  Uiso   1.00
H260   H     0.58247   0.12347   0.43272   0.00000  Uiso   1.00
H261   H     0.37766   0.15392   0.72741   0.00000  Uiso   1.00
H262   H     0.43129   0.13686   0.80848   0.00000  Uiso   1.00
H263   H     0.27111   0.23895   0.72531   0.00000  Uiso   1.00
H264   H     0.42109   0.07453   0.66140   0.00000  Uiso   1.00
H265   H     0.50563   0.13601   0.87791   0.00000  Uiso   1.00
H266   H     0.16788   0.35125   0.70252   0.00000  Uiso   1.00
H267   H     0.48415   0.00454   0.56776   0.00000  Uiso   1.00
O268   O     0.59213   0.18678   0.86088   0.00000  Uiso   1.00
O269   O     0.14902   0.46916   0.63077   0.00000  Uiso   1.00
O270   O     0.56396   0.01428   0.45397   0.00000  Uiso   1.00
N271   N     0.57346   0.22928   0.76352   0.00000  Uiso   1.00
N272   N     0.25769   0.43052   0.59955   0.00000  Uiso   1.00
N273   N     0.55336   0.10638   0.47355   0.00000  Uiso   1.00
N274   N     0.52055   0.16528   0.83618   0.00000  Uiso   1.00
N275   N     0.20478   0.36652   0.67221   0.00000  Uiso   1.00
N276   N     0.50045   0.04239   0.54622   0.00000  Uiso   1.00
C277   C     0.32435   0.90422   0.87199   0.00000  Uiso   1.00
C278   C     0.37926   0.87376   0.82392   0.00000  Uiso   1.00
C279   C     0.39522   0.81220   0.82175   0.00000  Uiso   1.00
C280   C     0.44711   0.79330   0.77411   0.00000  Uiso   1.00
C281   C     0.52708   0.73975   0.70612   0.00000  Uiso   1.00
C282   C     0.28542   0.96274   0.83486   0.00000  Uiso   1.00
C283   C     0.22248   0.97598   0.84189   0.00000  Uiso   1.00
C284   C     0.19537   0.03199   0.80346   0.00000  Uiso   1.00
C285   C     0.12964   0.11660   0.75249   0.00000  Uiso   1.00
C286   C     0.35206   0.92818   0.90185   0.00000  Uiso   1.00
C287   C     0.34514   0.91239   0.96521   0.00000  Uiso   1.00
C288   C     0.37412   0.93932   0.98318   0.00000  Uiso   1.00
C289   C     0.41186   0.97027   0.03622   0.00000  Uiso   1.00
C290   C     0.38810   0.98014   0.79125   0.00000  Uiso   1.00
C291   C     0.41389   0.91500   0.78007   0.00000  Uiso   1.00
C292   C     0.46576   0.89620   0.73242   0.00000  Uiso   1.00
C293   C     0.48180   0.83461   0.73017   0.00000  Uiso   1.00
C294   C     0.32004   0.00397   0.79101   0.00000  Uiso   1.00
C295   C     0.29302   0.05998   0.75256   0.00000  Uiso   1.00
C296   C     0.23006   0.07331   0.75953   0.00000  Uiso   1.00
C297   C     0.38669   0.96942   0.85800   0.00000  Uiso   1.00
C298   C     0.41568   0.99638   0.87587   0.00000  Uiso   1.00
C299   C     0.40881   0.98063   0.93925   0.00000  Uiso   1.00
H300   H     0.29739   0.87211   0.90613   0.00000  Uiso   1.00
H301   H     0.36841   0.78030   0.85569   0.00000  Uiso   1.00
H302   H     0.19569   0.94406   0.87584   0.00000  Uiso   1.00
H303   H     0.31834   0.88047   0.99913   0.00000  Uiso   1.00
H304   H     0.46241   0.69670   0.78042   0.00000  Uiso   1.00
H305   H     0.09822   0.04201   0.82291   0.00000  Uiso   1.00
H306   H     0.35683   0.90792   0.08290   0.00000  Uiso   1.00
H307   H     0.41506   0.01225   0.75710   0.00000  Uiso   1.00
H308   H     0.49255   0.92812   0.69849   0.00000  Uiso   1.00
H309   H     0.31983   0.09188   0.71863   0.00000  Uiso   1.00
H310   H     0.44247   0.02829   0.84192   0.00000  Uiso   1.00
H311   H     0.56316   0.81668   0.65282   0.00000  Uiso   1.00
H312   H     0.19897   0.16199   0.69531   0.00000  Uiso   1.00
H313   H     0.45759   0.02790   0.95530   0.00000  Uiso   1.00
O314   O     0.56162   0.69883   0.68074   0.00000  Uiso   1.00
O315   O     0.08382   0.15187   0.73649   0.00000  Uiso   1.00
O316   O     0.42311   0.97594   0.07759   0.00000  Uiso   1.00
N317   N     0.47550   0.73648   0.75844   0.00000  Uiso   1.00
N318   N     0.13500   0.05932   0.79816   0.00000  Uiso   1.00
N319   N     0.37677   0.93397   0.04123   0.00000  Uiso   1.00
N320   N     0.52971   0.80104   0.68978   0.00000  Uiso   1.00
N321   N     0.18922   0.12388   0.72950   0.00000  Uiso   1.00
N322   N     0.43099   0.99853   0.97257   0.00000  Uiso   1.00
C323   C     0.02709   0.12976   0.92368   0.00000  Uiso   1.00
C324   C     0.96235   0.16698   0.91504   0.00000  Uiso   1.00
C325   C     0.94670   0.18621   0.86000   0.00000  Uiso   1.00
C326   C     0.88493   0.21979   0.86169   0.00000  Uiso   1.00
C327   C     0.79117   0.27546   0.83995   0.00000  Uiso   1.00
C328   C     0.01903   0.07074   0.97708   0.00000  Uiso   1.00
C329   C     0.05103   0.00905   0.97418   0.00000  Uiso   1.00
C330   C     0.03697   0.96163   0.02809   0.00000  Uiso   1.00
C331   C     0.03123   0.86788   0.10267   0.00000  Uiso   1.00
C332   C     0.04378   0.16900   0.94806   0.00000  Uiso   1.00
C333   C     0.09662   0.18992   0.92079   0.00000  Uiso   1.00
C334   C     0.10341   0.22521   0.95029   0.00000  Uiso   1.00
C335   C     0.13611   0.28403   0.97982   0.00000  Uiso   1.00
C336   C     0.94522   0.15523   0.02457   0.00000  Uiso   1.00
C337   C     0.91789   0.18082   0.96984   0.00000  Uiso   1.00
C338   C     0.85612   0.21439   0.97162   0.00000  Uiso   1.00
C339   C     0.84038   0.23366   0.91658   0.00000  Uiso   1.00
C340   C     0.97456   0.08458   0.03187   0.00000  Uiso   1.00
C341   C     0.96045   0.03724   0.08580   0.00000  Uiso   1.00
C342   C     0.99242   0.97549   0.08299   0.00000  Uiso   1.00
C343   C     0.99932   0.18284   0.00286   0.00000  Uiso   1.00
C344   C     0.00603   0.21810   0.03241   0.00000  Uiso   1.00
C345   C     0.05886   0.23907   0.00519   0.00000  Uiso   1.00
H346   H     0.06171   0.11898   0.88102   0.00000  Uiso   1.00
H347   H     0.98113   0.17548   0.81760   0.00000  Uiso   1.00
H348   H     0.08544   0.99836   0.93177   0.00000  Uiso   1.00
H349   H     0.13102   0.17920   0.87839   0.00000  Uiso   1.00
H350   H     0.87217   0.24420   0.77146   0.00000  Uiso   1.00
H351   H     0.09214   0.87073   0.01220   0.00000  Uiso   1.00
H352   H     0.18825   0.25206   0.89963   0.00000  Uiso   1.00
H353   H     0.91060   0.16600   0.06723   0.00000  Uiso   1.00
H354   H     0.82172   0.22509   0.01403   0.00000  Uiso   1.00
H355   H     0.92604   0.04796   0.12820   0.00000  Uiso   1.00
H356   H     0.97161   0.22880   0.07481   0.00000  Uiso   1.00
H357   H     0.74279   0.28446   0.93089   0.00000  Uiso   1.00
H358   H     0.96277   0.91099   0.17163   0.00000  Uiso   1.00
H359   H     0.05887   0.29232   0.05906   0.00000  Uiso   1.00
O360   O     0.75174   0.30233   0.81282   0.00000  Uiso   1.00
O361   O     0.04034   0.81235   0.12866   0.00000  Uiso   1.00
O362   O     0.16642   0.31265   0.98097   0.00000  Uiso   1.00
N363   N     0.85392   0.24558   0.81628   0.00000  Uiso   1.00
N364   N     0.05957   0.89640   0.04136   0.00000  Uiso   1.00
N365   N     0.14943   0.25291   0.93612   0.00000  Uiso   1.00
N366   N     0.78430   0.26725   0.90206   0.00000  Uiso   1.00
N367   N     0.98996   0.91807   0.12714   0.00000  Uiso   1.00
N368   N     0.07981   0.27457   0.02191   0.00000  Uiso   1.00
C369   C     0.12892   0.72316   0.22586   0.00000  Uiso   1.00
C370   C     0.09078   0.67656   0.26555   0.00000  Uiso   1.00
C371   C     0.03554   0.67926   0.25915   0.00000  Uiso   1.00
C372   C     0.00778   0.63217   0.30001   0.00000  Uiso   1.00
C373   C     0.94453   0.56711   0.35468   0.00000  Uiso   1.00
C374   C     0.19442   0.68406   0.19809   0.00000  Uiso   1.00
C375   C     0.22630   0.69306   0.13497   0.00000  Uiso   1.00
C376   C     0.28579   0.65229   0.11905   0.00000  Uiso   1.00
C377   C     0.38345   0.59888   0.06899   0.00000  Uiso   1.00
C378   C     0.13512   0.74827   0.27147   0.00000  Uiso   1.00
C379   C     0.11716   0.81127   0.27003   0.00000  Uiso   1.00
C380   C     0.12674   0.82455   0.31588   0.00000  Uiso   1.00
C381   C     0.13233   0.87085   0.37975   0.00000  Uiso   1.00
C382   C     0.17788   0.63474   0.30981   0.00000  Uiso   1.00
C383   C     0.11738   0.62854   0.31115   0.00000  Uiso   1.00
C384   C     0.08970   0.58143   0.35204   0.00000  Uiso   1.00
C385   C     0.03442   0.58406   0.34570   0.00000  Uiso   1.00
C386   C     0.22101   0.63603   0.24369   0.00000  Uiso   1.00
C387   C     0.28047   0.59524   0.22786   0.00000  Uiso   1.00
C388   C     0.31243   0.60417   0.16473   0.00000  Uiso   1.00
C389   C     0.16171   0.70024   0.31707   0.00000  Uiso   1.00
C390   C     0.17132   0.71344   0.36292   0.00000  Uiso   1.00
C391   C     0.15338   0.77644   0.36156   0.00000  Uiso   1.00
H392   H     0.10823   0.76055   0.19035   0.00000  Uiso   1.00
H393   H     0.01497   0.71643   0.22385   0.00000  Uiso   1.00
H394   H     0.20572   0.73024   0.09969   0.00000  Uiso   1.00
H395   H     0.09659   0.84842   0.23474   0.00000  Uiso   1.00
H396   H     0.92333   0.64633   0.28108   0.00000  Uiso   1.00
H397   H     0.32552   0.67545   0.01929   0.00000  Uiso   1.00
H398   H     0.09540   0.92466   0.30406   0.00000  Uiso   1.00
H399   H     0.19858   0.59735   0.34532   0.00000  Uiso   1.00
H400   H     0.11029   0.54427   0.38732   0.00000  Uiso   1.00
H401   H     0.30103   0.55808   0.26316   0.00000  Uiso   1.00
H402   H     0.19190   0.67626   0.39820   0.00000  Uiso   1.00
H403   H     0.00069   0.50659   0.41376   0.00000  Uiso   1.00
H404   H     0.40289   0.53572   0.15197   0.00000  Uiso   1.00
H405   H     0.17277   0.78492   0.43673   0.00000  Uiso   1.00
O406   O     0.90231   0.54448   0.37224   0.00000  Uiso   1.00
O407   O     0.42997   0.58269   0.02878   0.00000  Uiso   1.00
O408   O     0.12806   0.90965   0.40239   0.00000  Uiso   1.00
N409   N     0.95365   0.62073   0.30655   0.00000  Uiso   1.00
N410   N     0.32967   0.64795   0.06179   0.00000  Uiso   1.00
N411   N     0.11454   0.88094   0.32801   0.00000  Uiso   1.00
N412   N     0.99527   0.54554   0.37794   0.00000  Uiso   1.00
N413   N     0.37130   0.57276   0.13318   0.00000  Uiso   1.00
N414   N     0.15617   0.80575   0.39940   0.00000  Uiso   1.00
C415   C     0.93109   0.27856   0.39242   0.00000  Uiso   1.00
C416   C     0.96265   0.21377   0.38013   0.00000  Uiso   1.00
C417   C     0.96571   0.19854   0.32904   0.00000  Uiso   1.00
C418   C     0.99667   0.13664   0.32633   0.00000  Uiso   1.00
C419   C     0.04155   0.04288   0.30015   0.00000  Uiso   1.00
C420   C     0.88346   0.26882   0.45664   0.00000  Uiso   1.00
C421   C     0.81995   0.29988   0.46988   0.00000  Uiso   1.00
C422   C     0.78425   0.28432   0.53158   0.00000  Uiso   1.00
C423   C     0.70620   0.27606   0.62419   0.00000  Uiso   1.00
C424   C     0.98110   0.29630   0.39947   0.00000  Uiso   1.00
C425   C     0.99967   0.35048   0.36465   0.00000  Uiso   1.00
C426   C     0.04617   0.35806   0.37823   0.00000  Uiso   1.00
C427   C     0.11972   0.39247   0.38208   0.00000  Uiso   1.00
C428   C     0.98063   0.19570   0.47846   0.00000  Uiso   1.00
C429   C     0.98955   0.16876   0.42686   0.00000  Uiso   1.00
C430   C     0.02051   0.10687   0.42423   0.00000  Uiso   1.00
C431   C     0.02362   0.09155   0.37315   0.00000  Uiso   1.00
C432   C     0.91037   0.22381   0.50337   0.00000  Uiso   1.00
C433   C     0.87475   0.20821   0.56507   0.00000  Uiso   1.00
C434   C     0.81120   0.23923   0.57840   0.00000  Uiso   1.00
C435   C     0.00801   0.25129   0.44620   0.00000  Uiso   1.00
C436   C     0.05448   0.25880   0.45984   0.00000  Uiso   1.00
C437   C     0.07312   0.31298   0.42505   0.00000  Uiso   1.00
H438   H     0.91014   0.31359   0.35604   0.00000  Uiso   1.00
H439   H     0.94488   0.23338   0.29289   0.00000  Uiso   1.00
H440   H     0.79914   0.33471   0.43370   0.00000  Uiso   1.00
H441   H     0.97884   0.38529   0.32849   0.00000  Uiso   1.00
H442   H     0.99523   0.12460   0.24349   0.00000  Uiso   1.00
H443   H     0.68795   0.33827   0.54041   0.00000  Uiso   1.00
H444   H     0.06688   0.44494   0.31855   0.00000  Uiso   1.00
H445   H     0.00157   0.16066   0.51485   0.00000  Uiso   1.00
H446   H     0.04133   0.07205   0.46041   0.00000  Uiso   1.00
H447   H     0.89559   0.17338   0.60122   0.00000  Uiso   1.00
H448   H     0.07529   0.22396   0.49601   0.00000  Uiso   1.00
H449   H     0.07352   0.99366   0.37946   0.00000  Uiso   1.00
H450   H     0.76623   0.20733   0.67638   0.00000  Uiso   1.00
H451   H     0.14516   0.31400   0.45452   0.00000  Uiso   1.00
O452   O     0.05886   0.00359   0.27280   0.00000  Uiso   1.00
O453   O     0.65572   0.28393   0.66235   0.00000  Uiso   1.00
O454   O     0.15286   0.42388   0.37128   0.00000  Uiso   1.00
N455   N     0.00821   0.10595   0.28295   0.00000  Uiso   1.00
N456   N     0.72092   0.30571   0.56056   0.00000  Uiso   1.00
N457   N     0.07517   0.40544   0.35315   0.00000  Uiso   1.00
N458   N     0.05034   0.03549   0.35612   0.00000  Uiso   1.00
N459   N     0.76304   0.23525   0.63372   0.00000  Uiso   1.00
N460   N     0.11730   0.33498   0.42631   0.00000  Uiso   1.00
C461   C     0.47181   0.44702   0.77335   0.00000  Uiso   1.00
C462   C     0.41830   0.41785   0.79846   0.00000  Uiso   1.00
C463   C     0.41088   0.38061   0.77158   0.00000  Uiso   1.00
C464   C     0.35878   0.35845   0.80171   0.00000  Uiso   1.00
C465   C     0.28222   0.31096   0.83231   0.00000  Uiso   1.00
C466   C     0.44148   0.51774   0.76483   0.00000  Uiso   1.00
C467   C     0.45357   0.56449   0.70967   0.00000  Uiso   1.00
C468   C     0.42098   0.62642   0.71149   0.00000  Uiso   1.00
C469   C     0.38046   0.73401   0.68988   0.00000  Uiso   1.00
C470   C     0.50128   0.42388   0.82619   0.00000  Uiso   1.00
C471   C     0.56365   0.39172   0.82263   0.00000  Uiso   1.00
C472   C     0.58141   0.37463   0.87611   0.00000  Uiso   1.00
C473   C     0.63372   0.33649   0.94977   0.00000  Uiso   1.00
C474   C     0.39246   0.47387   0.87466   0.00000  Uiso   1.00
C475   C     0.37519   0.43243   0.85348   0.00000  Uiso   1.00
C476   C     0.32309   0.41031   0.88366   0.00000  Uiso   1.00
C477   C     0.31560   0.37305   0.85683   0.00000  Uiso   1.00
C478   C     0.39838   0.53233   0.81985   0.00000  Uiso   1.00
C479   C     0.36577   0.59419   0.82175   0.00000  Uiso   1.00
C480   C     0.37780   0.64102   0.76661   0.00000  Uiso   1.00
C481   C     0.45817   0.43846   0.88122   0.00000  Uiso   1.00
C482   C     0.47585   0.42142   0.93471   0.00000  Uiso   1.00
C483   C     0.53823   0.38924   0.93123   0.00000  Uiso   1.00
H484   H     0.50537   0.43568   0.73051   0.00000  Uiso   1.00
H485   H     0.44425   0.36935   0.72900   0.00000  Uiso   1.00
H486   H     0.48693   0.55320   0.66710   0.00000  Uiso   1.00
H487   H     0.59699   0.38045   0.78004   0.00000  Uiso   1.00
H488   H     0.35746   0.30226   0.75157   0.00000  Uiso   1.00
H489   H     0.44748   0.68991   0.62105   0.00000  Uiso   1.00
H490   H     0.67955   0.32564   0.85921   0.00000  Uiso   1.00
H491   H     0.35890   0.48522   0.91749   0.00000  Uiso   1.00
H492   H     0.28974   0.42161   0.92624   0.00000  Uiso   1.00
H493   H     0.33242   0.60546   0.86434   0.00000  Uiso   1.00
H494   H     0.44248   0.43271   0.97728   0.00000  Uiso   1.00
H495   H     0.23206   0.34468   0.91166   0.00000  Uiso   1.00
H496   H     0.32208   0.73234   0.78114   0.00000  Uiso   1.00
H497   H     0.55415   0.36806   0.01930   0.00000  Uiso   1.00
O498   O     0.25190   0.28074   0.83398   0.00000  Uiso   1.00
O499   O     0.37001   0.78933   0.66275   0.00000  Uiso   1.00
O500   O     0.67448   0.31141   0.97521   0.00000  Uiso   1.00
N501   N     0.33745   0.32096   0.78805   0.00000  Uiso   1.00
N502   N     0.42160   0.68340   0.66602   0.00000  Uiso   1.00
N503   N     0.63857   0.34285   0.88868   0.00000  Uiso   1.00
N504   N     0.26997   0.34379   0.87420   0.00000  Uiso   1.00
N505   N     0.35412   0.70622   0.75217   0.00000  Uiso   1.00
N506   N     0.57109   0.36567   0.97482   0.00000  Uiso   1.00
C507   C     0.46290   0.74097   0.42154   0.00000  Uiso   1.00
C508   C     0.44534   0.77784   0.36081   0.00000  Uiso   1.00
C509   C     0.39193   0.78258   0.34932   0.00000  Uiso   1.00
C510   C     0.38439   0.81853   0.29078   0.00000  Uiso   1.00
C511   C     0.35040   0.87117   0.20337   0.00000  Uiso   1.00
C512   C     0.52739   0.69490   0.40387   0.00000  Uiso   1.00
C513   C     0.54297   0.62991   0.42860   0.00000  Uiso   1.00
C514   C     0.60450   0.59606   0.40630   0.00000  Uiso   1.00
C515   C     0.69790   0.51995   0.38579   0.00000  Uiso   1.00
C516   C     0.47189   0.78813   0.44268   0.00000  Uiso   1.00
C517   C     0.44082   0.80153   0.50004   0.00000  Uiso   1.00
C518   C     0.45565   0.84615   0.51042   0.00000  Uiso   1.00
C519   C     0.46288   0.91480   0.55016   0.00000  Uiso   1.00
C520   C     0.54449   0.79639   0.33799   0.00000  Uiso   1.00
C521   C     0.48965   0.80794   0.31543   0.00000  Uiso   1.00
C522   C     0.48219   0.84389   0.25689   0.00000  Uiso   1.00
C523   C     0.42878   0.84869   0.24531   0.00000  Uiso   1.00
C524   C     0.57170   0.72500   0.35850   0.00000  Uiso   1.00
C525   C     0.63323   0.69123   0.33616   0.00000  Uiso   1.00
C526   C     0.64890   0.62621   0.36084   0.00000  Uiso   1.00
C527   C     0.51620   0.81824   0.39730   0.00000  Uiso   1.00
C528   C     0.53108   0.86285   0.40760   0.00000  Uiso   1.00
C529   C     0.50004   0.87631   0.46496   0.00000  Uiso   1.00
H530   H     0.42840   0.71753   0.45687   0.00000  Uiso   1.00
H531   H     0.35765   0.75927   0.38445   0.00000  Uiso   1.00
H532   H     0.50866   0.60663   0.46372   0.00000  Uiso   1.00
H533   H     0.40653   0.77822   0.53515   0.00000  Uiso   1.00
H534   H     0.29876   0.81880   0.28414   0.00000  Uiso   1.00
H535   H     0.61719   0.49697   0.45130   0.00000  Uiso   1.00
H536   H     0.40182   0.85879   0.60192   0.00000  Uiso   1.00
H537   H     0.57899   0.81982   0.30266   0.00000  Uiso   1.00
H538   H     0.51650   0.86718   0.22178   0.00000  Uiso   1.00
H539   H     0.66751   0.71455   0.30105   0.00000  Uiso   1.00
H540   H     0.56538   0.88613   0.37247   0.00000  Uiso   1.00
H541   H     0.42769   0.90639   0.15211   0.00000  Uiso   1.00
H542   H     0.74611   0.58455   0.31927   0.00000  Uiso   1.00
H543   H     0.53075   0.94638   0.46988   0.00000  Uiso   1.00
O544   O     0.31941   0.89188   0.16770   0.00000  Uiso   1.00
O545   O     0.73717   0.46965   0.38700   0.00000  Uiso   1.00
O546   O     0.45462   0.94436   0.58461   0.00000  Uiso   1.00
N547   N     0.33767   0.83293   0.26417   0.00000  Uiso   1.00
N548   N     0.63538   0.53203   0.42045   0.00000  Uiso   1.00
N549   N     0.43405   0.87029   0.56127   0.00000  Uiso   1.00
N550   N     0.40705   0.88006   0.19313   0.00000  Uiso   1.00
N551   N     0.70475   0.57916   0.34940   0.00000  Uiso   1.00
N552   N     0.50342   0.91742   0.49022   0.00000  Uiso   1.00
