data_job_01134
_audit_creation_date              2018-12-19
_audit_creation_method            'Materials Studio'
_symmetry_space_group_name_H-M    'P1'
_symmetry_Int_Tables_number       1
_symmetry_cell_setting            triclinic
loop_
_symmetry_equiv_pos_as_xyz
  x,y,z
_cell_length_a                    16.4681
_cell_length_b                    12.9737
_cell_length_c                    12.3066
_cell_angle_alpha                 90.0000
_cell_angle_beta                  72.6380
_cell_angle_gamma                 90.0000
loop_
_atom_site_label
_atom_site_type_symbol
_atom_site_fract_x
_atom_site_fract_y
_atom_site_fract_z
_atom_site_U_iso_or_equiv
_atom_site_adp_type
_atom_site_occupancy
C1     C     0.79391   0.15241   0.30383   0.00000  Uiso   1.00
C2     C     0.81109   0.06236   0.37354   0.00000  Uiso   1.00
C3     C     0.86127   0.06580   0.44621   0.00000  Uiso   1.00
C4     C     0.86904   0.97515   0.50224   0.00000  Uiso   1.00
C5     C     0.90197   0.84913   0.61290   0.00000  Uiso   1.00
C6     C     0.82152   0.11639   0.18024   0.00000  Uiso   1.00
C7     C     0.88046   0.16526   0.09040   0.00000  Uiso   1.00
C8     C     0.89700   0.12010   0.98372   0.00000  Uiso   1.00
C9     C     0.94609   0.07800   0.79427   0.00000  Uiso   1.00
C10    C     0.69745   0.16396   0.33732   0.00000  Uiso   1.00
C11    C     0.65207   0.25283   0.37952   0.00000  Uiso   1.00
C12    C     0.56415   0.24772   0.40506   0.00000  Uiso   1.00
C13    C     0.42059   0.27948   0.45950   0.00000  Uiso   1.00
C14    C     0.71848   0.98531   0.27411   0.00000  Uiso   1.00
C15    C     0.77011   0.97160   0.35739   0.00000  Uiso   1.00
C16    C     0.77780   0.88093   0.41333   0.00000  Uiso   1.00
C17    C     0.82799   0.88423   0.48608   0.00000  Uiso   1.00
C18    C     0.78055   0.02564   0.16410   0.00000  Uiso   1.00
C19    C     0.79700   0.98039   0.05752   0.00000  Uiso   1.00
C20    C     0.85596   0.02918   0.96755   0.00000  Uiso   1.00
C21    C     0.65647   0.07320   0.32118   0.00000  Uiso   1.00
C22    C     0.56861   0.06796   0.34665   0.00000  Uiso   1.00
C23    C     0.52310   0.15680   0.38889   0.00000  Uiso   1.00
H24    H     0.82582   0.22307   0.31638   0.00000  Uiso   1.00
H25    H     0.89297   0.13605   0.45867   0.00000  Uiso   1.00
H26    H     0.91216   0.23550   0.10292   0.00000  Uiso   1.00
H27    H     0.68380   0.32305   0.39200   0.00000  Uiso   1.00
H28    H     0.94938   0.99954   0.60927   0.00000  Uiso   1.00
H29    H     0.98981   0.20926   0.85914   0.00000  Uiso   1.00
H30    H     0.50827   0.39388   0.46873   0.00000  Uiso   1.00
H31    H     0.68658   0.91465   0.26153   0.00000  Uiso   1.00
H32    H     0.74609   0.81071   0.40082   0.00000  Uiso   1.00
H33    H     0.76528   0.91016   0.04506   0.00000  Uiso   1.00
H34    H     0.53692   0.99771   0.33415   0.00000  Uiso   1.00
H35    H     0.83017   0.73548   0.56231   0.00000  Uiso   1.00
H36    H     0.87060   0.94520   0.81218   0.00000  Uiso   1.00
H37    H     0.38906   0.12982   0.42177   0.00000  Uiso   1.00
O38    O     0.93146   0.80468   0.67838   0.00000  Uiso   1.00
O39    O     0.98449   0.07985   0.69424   0.00000  Uiso   1.00
O40    O     0.35273   0.32206   0.49400   0.00000  Uiso   1.00
N41    N     0.91314   0.95166   0.57912   0.00000  Uiso   1.00
N42    N     0.95095   0.14773   0.87780   0.00000  Uiso   1.00
N43    N     0.50076   0.32034   0.44768   0.00000  Uiso   1.00
N44    N     0.84900   0.80957   0.55386   0.00000  Uiso   1.00
N45    N     0.88681   0.00564   0.85253   0.00000  Uiso   1.00
N46    N     0.43661   0.17825   0.42241   0.00000  Uiso   1.00
C47    C     0.20609   0.65241   0.19617   0.00000  Uiso   1.00
C48    C     0.18891   0.56236   0.12646   0.00000  Uiso   1.00
C49    C     0.13873   0.56580   0.05379   0.00000  Uiso   1.00
C50    C     0.13096   0.47515   0.99776   0.00000  Uiso   1.00
C51    C     0.09803   0.34913   0.88710   0.00000  Uiso   1.00
C52    C     0.17848   0.61639   0.31976   0.00000  Uiso   1.00
C53    C     0.11954   0.66526   0.40960   0.00000  Uiso   1.00
C54    C     0.10300   0.62010   0.51628   0.00000  Uiso   1.00
C55    C     0.05391   0.57800   0.70573   0.00000  Uiso   1.00
C56    C     0.30255   0.66396   0.16268   0.00000  Uiso   1.00
C57    C     0.34793   0.75283   0.12048   0.00000  Uiso   1.00
C58    C     0.43585   0.74772   0.09494   0.00000  Uiso   1.00
C59    C     0.57941   0.77948   0.04050   0.00000  Uiso   1.00
C60    C     0.28152   0.48531   0.22589   0.00000  Uiso   1.00
C61    C     0.22989   0.47160   0.14261   0.00000  Uiso   1.00
C62    C     0.22220   0.38093   0.08667   0.00000  Uiso   1.00
C63    C     0.17201   0.38423   0.01392   0.00000  Uiso   1.00
C64    C     0.21945   0.52564   0.33590   0.00000  Uiso   1.00
C65    C     0.20300   0.48039   0.44248   0.00000  Uiso   1.00
C66    C     0.14404   0.52918   0.53245   0.00000  Uiso   1.00
C67    C     0.34353   0.57320   0.17882   0.00000  Uiso   1.00
C68    C     0.43139   0.56796   0.15335   0.00000  Uiso   1.00
C69    C     0.47690   0.65680   0.11111   0.00000  Uiso   1.00
H70    H     0.17418   0.72307   0.18362   0.00000  Uiso   1.00
H71    H     0.10703   0.63605   0.04133   0.00000  Uiso   1.00
H72    H     0.08784   0.73550   0.39708   0.00000  Uiso   1.00
H73    H     0.31620   0.82305   0.10800   0.00000  Uiso   1.00
H74    H     0.05062   0.49954   0.89073   0.00000  Uiso   1.00
H75    H     0.01019   0.70926   0.64086   0.00000  Uiso   1.00
H76    H     0.49173   0.89388   0.03127   0.00000  Uiso   1.00
H77    H     0.31342   0.41465   0.23847   0.00000  Uiso   1.00
H78    H     0.25391   0.31071   0.09918   0.00000  Uiso   1.00
H79    H     0.23472   0.41016   0.45494   0.00000  Uiso   1.00
H80    H     0.46308   0.49771   0.16585   0.00000  Uiso   1.00
H81    H     0.16983   0.23548   0.93769   0.00000  Uiso   1.00
H82    H     0.12940   0.44520   0.68782   0.00000  Uiso   1.00
H83    H     0.61094   0.62982   0.07823   0.00000  Uiso   1.00
O84    O     0.06854   0.30468   0.82162   0.00000  Uiso   1.00
O85    O     0.01551   0.57985   0.80576   0.00000  Uiso   1.00
O86    O     0.64727   0.82206   0.00600   0.00000  Uiso   1.00
N87    N     0.08686   0.45166   0.92088   0.00000  Uiso   1.00
N88    N     0.04905   0.64773   0.62220   0.00000  Uiso   1.00
N89    N     0.49924   0.82034   0.05232   0.00000  Uiso   1.00
N90    N     0.15100   0.30957   0.94614   0.00000  Uiso   1.00
N91    N     0.11319   0.50564   0.64747   0.00000  Uiso   1.00
N92    N     0.56339   0.67825   0.07759   0.00000  Uiso   1.00
C93    C     0.20609   0.84759   0.69617   0.00000  Uiso   1.00
C94    C     0.18891   0.93764   0.62646   0.00000  Uiso   1.00
C95    C     0.13873   0.93420   0.55379   0.00000  Uiso   1.00
C96    C     0.13096   0.02485   0.49776   0.00000  Uiso   1.00
C97    C     0.09803   0.15087   0.38710   0.00000  Uiso   1.00
C98    C     0.17848   0.88361   0.81976   0.00000  Uiso   1.00
C99    C     0.11954   0.83474   0.90960   0.00000  Uiso   1.00
C100   C     0.10300   0.87990   0.01628   0.00000  Uiso   1.00
C101   C     0.05391   0.92200   0.20573   0.00000  Uiso   1.00
C102   C     0.30255   0.83604   0.66268   0.00000  Uiso   1.00
C103   C     0.34793   0.74717   0.62048   0.00000  Uiso   1.00
C104   C     0.43585   0.75228   0.59494   0.00000  Uiso   1.00
C105   C     0.57941   0.72052   0.54050   0.00000  Uiso   1.00
C106   C     0.28152   0.01469   0.72589   0.00000  Uiso   1.00
C107   C     0.22989   0.02840   0.64261   0.00000  Uiso   1.00
C108   C     0.22220   0.11907   0.58667   0.00000  Uiso   1.00
C109   C     0.17201   0.11577   0.51392   0.00000  Uiso   1.00
C110   C     0.21945   0.97436   0.83590   0.00000  Uiso   1.00
C111   C     0.20300   0.01961   0.94248   0.00000  Uiso   1.00
C112   C     0.14404   0.97082   0.03245   0.00000  Uiso   1.00
C113   C     0.34353   0.92680   0.67882   0.00000  Uiso   1.00
C114   C     0.43139   0.93204   0.65335   0.00000  Uiso   1.00
C115   C     0.47690   0.84320   0.61111   0.00000  Uiso   1.00
H116   H     0.17418   0.77693   0.68362   0.00000  Uiso   1.00
H117   H     0.10703   0.86395   0.54133   0.00000  Uiso   1.00
H118   H     0.08784   0.76450   0.89708   0.00000  Uiso   1.00
H119   H     0.31620   0.67695   0.60800   0.00000  Uiso   1.00
H120   H     0.05062   0.00046   0.39073   0.00000  Uiso   1.00
H121   H     0.01019   0.79074   0.14086   0.00000  Uiso   1.00
H122   H     0.49173   0.60612   0.53127   0.00000  Uiso   1.00
H123   H     0.31342   0.08535   0.73847   0.00000  Uiso   1.00
H124   H     0.25391   0.18929   0.59918   0.00000  Uiso   1.00
H125   H     0.23472   0.08984   0.95494   0.00000  Uiso   1.00
H126   H     0.46308   0.00229   0.66585   0.00000  Uiso   1.00
H127   H     0.16983   0.26452   0.43769   0.00000  Uiso   1.00
H128   H     0.12940   0.05480   0.18782   0.00000  Uiso   1.00
H129   H     0.61094   0.87018   0.57823   0.00000  Uiso   1.00
O130   O     0.06854   0.19532   0.32162   0.00000  Uiso   1.00
O131   O     0.01551   0.92015   0.30576   0.00000  Uiso   1.00
O132   O     0.64727   0.67794   0.50600   0.00000  Uiso   1.00
N133   N     0.08686   0.04834   0.42088   0.00000  Uiso   1.00
N134   N     0.04905   0.85227   0.12220   0.00000  Uiso   1.00
N135   N     0.49924   0.67966   0.55232   0.00000  Uiso   1.00
N136   N     0.15100   0.19043   0.44614   0.00000  Uiso   1.00
N137   N     0.11319   0.99436   0.14747   0.00000  Uiso   1.00
N138   N     0.56339   0.82175   0.57759   0.00000  Uiso   1.00
C139   C     0.79391   0.34759   0.80383   0.00000  Uiso   1.00
C140   C     0.81109   0.43764   0.87354   0.00000  Uiso   1.00
C141   C     0.86127   0.43420   0.94621   0.00000  Uiso   1.00
C142   C     0.86904   0.52485   0.00224   0.00000  Uiso   1.00
C143   C     0.90197   0.65087   0.11290   0.00000  Uiso   1.00
C144   C     0.82152   0.38361   0.68024   0.00000  Uiso   1.00
C145   C     0.88046   0.33474   0.59040   0.00000  Uiso   1.00
C146   C     0.89700   0.37990   0.48372   0.00000  Uiso   1.00
C147   C     0.94609   0.42200   0.29427   0.00000  Uiso   1.00
C148   C     0.69745   0.33604   0.83732   0.00000  Uiso   1.00
C149   C     0.65207   0.24717   0.87952   0.00000  Uiso   1.00
C150   C     0.56415   0.25228   0.90506   0.00000  Uiso   1.00
C151   C     0.42059   0.22052   0.95950   0.00000  Uiso   1.00
C152   C     0.71848   0.51469   0.77411   0.00000  Uiso   1.00
C153   C     0.77011   0.52840   0.85739   0.00000  Uiso   1.00
C154   C     0.77780   0.61907   0.91333   0.00000  Uiso   1.00
C155   C     0.82799   0.61577   0.98608   0.00000  Uiso   1.00
C156   C     0.78055   0.47436   0.66410   0.00000  Uiso   1.00
C157   C     0.79700   0.51961   0.55752   0.00000  Uiso   1.00
C158   C     0.85596   0.47082   0.46755   0.00000  Uiso   1.00
C159   C     0.65647   0.42680   0.82118   0.00000  Uiso   1.00
C160   C     0.56861   0.43204   0.84665   0.00000  Uiso   1.00
C161   C     0.52310   0.34320   0.88889   0.00000  Uiso   1.00
H162   H     0.82582   0.27693   0.81638   0.00000  Uiso   1.00
H163   H     0.89297   0.36395   0.95867   0.00000  Uiso   1.00
H164   H     0.91216   0.26450   0.60292   0.00000  Uiso   1.00
H165   H     0.68380   0.17695   0.89200   0.00000  Uiso   1.00
H166   H     0.94938   0.50046   0.10927   0.00000  Uiso   1.00
H167   H     0.98981   0.29074   0.35914   0.00000  Uiso   1.00
H168   H     0.50827   0.10612   0.96873   0.00000  Uiso   1.00
H169   H     0.68658   0.58535   0.76153   0.00000  Uiso   1.00
H170   H     0.74609   0.68929   0.90082   0.00000  Uiso   1.00
H171   H     0.76528   0.58984   0.54506   0.00000  Uiso   1.00
H172   H     0.53692   0.50229   0.83415   0.00000  Uiso   1.00
H173   H     0.83017   0.76452   0.06231   0.00000  Uiso   1.00
H174   H     0.87060   0.55480   0.31218   0.00000  Uiso   1.00
H175   H     0.38906   0.37018   0.92177   0.00000  Uiso   1.00
O176   O     0.93146   0.69532   0.17838   0.00000  Uiso   1.00
O177   O     0.98449   0.42015   0.19424   0.00000  Uiso   1.00
O178   O     0.35273   0.17794   0.99400   0.00000  Uiso   1.00
N179   N     0.91314   0.54834   0.07912   0.00000  Uiso   1.00
N180   N     0.95095   0.35227   0.37780   0.00000  Uiso   1.00
N181   N     0.50076   0.17966   0.94768   0.00000  Uiso   1.00
N182   N     0.84900   0.69043   0.05386   0.00000  Uiso   1.00
N183   N     0.88681   0.49436   0.35253   0.00000  Uiso   1.00
N184   N     0.43661   0.32175   0.92241   0.00000  Uiso   1.00
