data_job_05840
_audit_creation_date              2018-12-19
_audit_creation_method            'Materials Studio'
_symmetry_space_group_name_H-M    'P1'
_symmetry_Int_Tables_number       1
_symmetry_cell_setting            triclinic
loop_
_symmetry_equiv_pos_as_xyz
  x,y,z
_cell_length_a                    27.3689
_cell_length_b                    14.3201
_cell_length_c                    12.3374
_cell_angle_alpha                 90.0000
_cell_angle_beta                  90.0000
_cell_angle_gamma                 90.0000
loop_
_atom_site_label
_atom_site_type_symbol
_atom_site_fract_x
_atom_site_fract_y
_atom_site_fract_z
_atom_site_U_iso_or_equiv
_atom_site_adp_type
_atom_site_occupancy
C1     C     0.88169   0.84614   0.06353   0.00000  Uiso   1.00
C2     C     0.86466   0.77328   0.14537   0.00000  Uiso   1.00
C3     C     0.84066   0.79171   0.24212   0.00000  Uiso   1.00
C4     C     0.82815   0.71543   0.30579   0.00000  Uiso   1.00
C5     C     0.80005   0.61619   0.43778   0.00000  Uiso   1.00
C6     C     0.93638   0.83025   0.04890   0.00000  Uiso   1.00
C7     C     0.97268   0.89659   0.06451   0.00000  Uiso   1.00
C8     C     0.02054   0.86827   0.04696   0.00000  Uiso   1.00
C9     C     0.10379   0.85750   0.02908   0.00000  Uiso   1.00
C10    C     0.85805   0.81961   0.95593   0.00000  Uiso   1.00
C11    C     0.82849   0.87700   0.89335   0.00000  Uiso   1.00
C12    C     0.81042   0.83972   0.79750   0.00000  Uiso   1.00
C13    C     0.77204   0.81242   0.63527   0.00000  Uiso   1.00
C14    C     0.90216   0.67790   0.00458   0.00000  Uiso   1.00
C15    C     0.87579   0.68190   0.11335   0.00000  Uiso   1.00
C16    C     0.86331   0.60557   0.17690   0.00000  Uiso   1.00
C17    C     0.83929   0.62388   0.27372   0.00000  Uiso   1.00
C18    C     0.94751   0.73887   0.01688   0.00000  Uiso   1.00
C19    C     0.99533   0.71045   0.99929   0.00000  Uiso   1.00
C20    C     0.03169   0.77672   0.01488   0.00000  Uiso   1.00
C21    C     0.86917   0.72822   0.92391   0.00000  Uiso   1.00
C22    C     0.85115   0.69085   0.82814   0.00000  Uiso   1.00
C23    C     0.82156   0.74817   0.76543   0.00000  Uiso   1.00
H24    H     0.87303   0.91729   0.08845   0.00000  Uiso   1.00
H25    H     0.83206   0.86244   0.26687   0.00000  Uiso   1.00
H26    H     0.96406   0.96730   0.08928   0.00000  Uiso   1.00
H27    H     0.81989   0.94771   0.91815   0.00000  Uiso   1.00
H28    H     0.79156   0.76133   0.45058   0.00000  Uiso   1.00
H29    H     0.06988   0.98245   0.07608   0.00000  Uiso   1.00
H30    H     0.76588   0.94114   0.71521   0.00000  Uiso   1.00
H31    H     0.91083   0.60675   0.97965   0.00000  Uiso   1.00
H32    H     0.87193   0.53486   0.15210   0.00000  Uiso   1.00
H33    H     0.00393   0.63973   0.97451   0.00000  Uiso   1.00
H34    H     0.85976   0.62013   0.80338   0.00000  Uiso   1.00
H35    H     0.82392   0.49545   0.35743   0.00000  Uiso   1.00
H36    H     0.10224   0.71658   0.98293   0.00000  Uiso   1.00
H37    H     0.79824   0.67526   0.62207   0.00000  Uiso   1.00
O38    O     0.78148   0.58670   0.51943   0.00000  Uiso   1.00
O39    O     0.14663   0.87681   0.02807   0.00000  Uiso   1.00
O40    O     0.74779   0.82260   0.55464   0.00000  Uiso   1.00
N41    N     0.80450   0.70862   0.40498   0.00000  Uiso   1.00
N42    N     0.06472   0.91535   0.05486   0.00000  Uiso   1.00
N43    N     0.78051   0.87674   0.71747   0.00000  Uiso   1.00
N44    N     0.82191   0.56555   0.35486   0.00000  Uiso   1.00
N45    N     0.08213   0.77229   0.00474   0.00000  Uiso   1.00
N46    N     0.79793   0.73367   0.66735   0.00000  Uiso   1.00
C47    C     0.61831   0.65386   0.56353   0.00000  Uiso   1.00
C48    C     0.63534   0.72672   0.64537   0.00000  Uiso   1.00
C49    C     0.65934   0.70829   0.74212   0.00000  Uiso   1.00
C50    C     0.67185   0.78457   0.80579   0.00000  Uiso   1.00
C51    C     0.69995   0.88381   0.93778   0.00000  Uiso   1.00
C52    C     0.56362   0.66975   0.54890   0.00000  Uiso   1.00
C53    C     0.52732   0.60341   0.56451   0.00000  Uiso   1.00
C54    C     0.47946   0.63173   0.54696   0.00000  Uiso   1.00
C55    C     0.39621   0.64250   0.52908   0.00000  Uiso   1.00
C56    C     0.64195   0.68039   0.45593   0.00000  Uiso   1.00
C57    C     0.67151   0.62300   0.39335   0.00000  Uiso   1.00
C58    C     0.68958   0.66028   0.29750   0.00000  Uiso   1.00
C59    C     0.72796   0.68758   0.13527   0.00000  Uiso   1.00
C60    C     0.59784   0.82210   0.50458   0.00000  Uiso   1.00
C61    C     0.62421   0.81810   0.61335   0.00000  Uiso   1.00
C62    C     0.63669   0.89443   0.67690   0.00000  Uiso   1.00
C63    C     0.66071   0.87612   0.77372   0.00000  Uiso   1.00
C64    C     0.55249   0.76113   0.51688   0.00000  Uiso   1.00
C65    C     0.50467   0.78955   0.49929   0.00000  Uiso   1.00
C66    C     0.46831   0.72328   0.51488   0.00000  Uiso   1.00
C67    C     0.63083   0.77178   0.42391   0.00000  Uiso   1.00
C68    C     0.64885   0.80915   0.32814   0.00000  Uiso   1.00
C69    C     0.67844   0.75183   0.26543   0.00000  Uiso   1.00
H70    H     0.62697   0.58271   0.58845   0.00000  Uiso   1.00
H71    H     0.66794   0.63756   0.76687   0.00000  Uiso   1.00
H72    H     0.53594   0.53270   0.58928   0.00000  Uiso   1.00
H73    H     0.68011   0.55229   0.41815   0.00000  Uiso   1.00
H74    H     0.70844   0.73867   0.95058   0.00000  Uiso   1.00
H75    H     0.43012   0.51755   0.57608   0.00000  Uiso   1.00
H76    H     0.73412   0.55886   0.21521   0.00000  Uiso   1.00
H77    H     0.58917   0.89325   0.47965   0.00000  Uiso   1.00
H78    H     0.62807   0.96514   0.65210   0.00000  Uiso   1.00
H79    H     0.49607   0.86027   0.47451   0.00000  Uiso   1.00
H80    H     0.64024   0.87987   0.30338   0.00000  Uiso   1.00
H81    H     0.67608   0.00455   0.85743   0.00000  Uiso   1.00
H82    H     0.39776   0.78342   0.48293   0.00000  Uiso   1.00
H83    H     0.70176   0.82474   0.12207   0.00000  Uiso   1.00
O84    O     0.71852   0.91330   0.01943   0.00000  Uiso   1.00
O85    O     0.35337   0.62319   0.52807   0.00000  Uiso   1.00
O86    O     0.75221   0.67740   0.05464   0.00000  Uiso   1.00
N87    N     0.69550   0.79138   0.90498   0.00000  Uiso   1.00
N88    N     0.43528   0.58465   0.55486   0.00000  Uiso   1.00
N89    N     0.71949   0.62326   0.21747   0.00000  Uiso   1.00
N90    N     0.67809   0.93445   0.85486   0.00000  Uiso   1.00
N91    N     0.41787   0.72771   0.50474   0.00000  Uiso   1.00
N92    N     0.70207   0.76633   0.16735   0.00000  Uiso   1.00
C93    C     0.11831   0.84614   0.43647   0.00000  Uiso   1.00
C94    C     0.13534   0.77328   0.35463   0.00000  Uiso   1.00
C95    C     0.15934   0.79171   0.25788   0.00000  Uiso   1.00
C96    C     0.17185   0.71543   0.19421   0.00000  Uiso   1.00
C97    C     0.19995   0.61619   0.06222   0.00000  Uiso   1.00
C98    C     0.06362   0.83025   0.45110   0.00000  Uiso   1.00
C99    C     0.02732   0.89659   0.43549   0.00000  Uiso   1.00
C100   C     0.97946   0.86827   0.45304   0.00000  Uiso   1.00
C101   C     0.89621   0.85750   0.47092   0.00000  Uiso   1.00
C102   C     0.14195   0.81961   0.54407   0.00000  Uiso   1.00
C103   C     0.17151   0.87700   0.60665   0.00000  Uiso   1.00
C104   C     0.18958   0.83972   0.70250   0.00000  Uiso   1.00
C105   C     0.22796   0.81242   0.86473   0.00000  Uiso   1.00
C106   C     0.09784   0.67790   0.49542   0.00000  Uiso   1.00
C107   C     0.12421   0.68190   0.38665   0.00000  Uiso   1.00
C108   C     0.13669   0.60557   0.32310   0.00000  Uiso   1.00
C109   C     0.16071   0.62388   0.22628   0.00000  Uiso   1.00
C110   C     0.05249   0.73887   0.48312   0.00000  Uiso   1.00
C111   C     0.00467   0.71045   0.50071   0.00000  Uiso   1.00
C112   C     0.96831   0.77672   0.48512   0.00000  Uiso   1.00
C113   C     0.13083   0.72822   0.57609   0.00000  Uiso   1.00
C114   C     0.14885   0.69085   0.67186   0.00000  Uiso   1.00
C115   C     0.17844   0.74817   0.73457   0.00000  Uiso   1.00
H116   H     0.12697   0.91729   0.41155   0.00000  Uiso   1.00
H117   H     0.16794   0.86244   0.23313   0.00000  Uiso   1.00
H118   H     0.03594   0.96730   0.41072   0.00000  Uiso   1.00
H119   H     0.18011   0.94771   0.58185   0.00000  Uiso   1.00
H120   H     0.20844   0.76133   0.04942   0.00000  Uiso   1.00
H121   H     0.93012   0.98245   0.42392   0.00000  Uiso   1.00
H122   H     0.23412   0.94114   0.78479   0.00000  Uiso   1.00
H123   H     0.08917   0.60675   0.52035   0.00000  Uiso   1.00
H124   H     0.12807   0.53486   0.34790   0.00000  Uiso   1.00
H125   H     0.99607   0.63973   0.52549   0.00000  Uiso   1.00
H126   H     0.14024   0.62013   0.69662   0.00000  Uiso   1.00
H127   H     0.17608   0.49545   0.14257   0.00000  Uiso   1.00
H128   H     0.89776   0.71658   0.51707   0.00000  Uiso   1.00
H129   H     0.20176   0.67526   0.87793   0.00000  Uiso   1.00
O130   O     0.21852   0.58670   0.98057   0.00000  Uiso   1.00
O131   O     0.85337   0.87681   0.47193   0.00000  Uiso   1.00
O132   O     0.25221   0.82260   0.94536   0.00000  Uiso   1.00
N133   N     0.19550   0.70862   0.09502   0.00000  Uiso   1.00
N134   N     0.93528   0.91535   0.44514   0.00000  Uiso   1.00
N135   N     0.21949   0.87674   0.78253   0.00000  Uiso   1.00
N136   N     0.17809   0.56555   0.14514   0.00000  Uiso   1.00
N137   N     0.91787   0.77229   0.49526   0.00000  Uiso   1.00
N138   N     0.20207   0.73367   0.83265   0.00000  Uiso   1.00
C139   C     0.38169   0.65386   0.93647   0.00000  Uiso   1.00
C140   C     0.36466   0.72672   0.85463   0.00000  Uiso   1.00
C141   C     0.34066   0.70829   0.75788   0.00000  Uiso   1.00
C142   C     0.32815   0.78457   0.69421   0.00000  Uiso   1.00
C143   C     0.30005   0.88381   0.56222   0.00000  Uiso   1.00
C144   C     0.43638   0.66975   0.95110   0.00000  Uiso   1.00
C145   C     0.47268   0.60341   0.93549   0.00000  Uiso   1.00
C146   C     0.52054   0.63173   0.95304   0.00000  Uiso   1.00
C147   C     0.60379   0.64250   0.97092   0.00000  Uiso   1.00
C148   C     0.35805   0.68039   0.04407   0.00000  Uiso   1.00
C149   C     0.32849   0.62300   0.10665   0.00000  Uiso   1.00
C150   C     0.31042   0.66028   0.20250   0.00000  Uiso   1.00
C151   C     0.27204   0.68758   0.36473   0.00000  Uiso   1.00
C152   C     0.40216   0.82210   0.99542   0.00000  Uiso   1.00
C153   C     0.37579   0.81810   0.88665   0.00000  Uiso   1.00
C154   C     0.36331   0.89443   0.82310   0.00000  Uiso   1.00
C155   C     0.33929   0.87612   0.72628   0.00000  Uiso   1.00
C156   C     0.44751   0.76113   0.98312   0.00000  Uiso   1.00
C157   C     0.49533   0.78955   0.00071   0.00000  Uiso   1.00
C158   C     0.53169   0.72328   0.98512   0.00000  Uiso   1.00
C159   C     0.36917   0.77178   0.07609   0.00000  Uiso   1.00
C160   C     0.35115   0.80915   0.17186   0.00000  Uiso   1.00
C161   C     0.32156   0.75183   0.23457   0.00000  Uiso   1.00
H162   H     0.37303   0.58271   0.91155   0.00000  Uiso   1.00
H163   H     0.33206   0.63756   0.73313   0.00000  Uiso   1.00
H164   H     0.46406   0.53270   0.91072   0.00000  Uiso   1.00
H165   H     0.31989   0.55229   0.08185   0.00000  Uiso   1.00
H166   H     0.29156   0.73867   0.54942   0.00000  Uiso   1.00
H167   H     0.56988   0.51755   0.92392   0.00000  Uiso   1.00
H168   H     0.26588   0.55886   0.28479   0.00000  Uiso   1.00
H169   H     0.41083   0.89325   0.02035   0.00000  Uiso   1.00
H170   H     0.37193   0.96514   0.84790   0.00000  Uiso   1.00
H171   H     0.50393   0.86027   0.02549   0.00000  Uiso   1.00
H172   H     0.35976   0.87987   0.19662   0.00000  Uiso   1.00
H173   H     0.32392   0.00455   0.64257   0.00000  Uiso   1.00
H174   H     0.60224   0.78342   0.01707   0.00000  Uiso   1.00
H175   H     0.29824   0.82474   0.37793   0.00000  Uiso   1.00
O176   O     0.28148   0.91330   0.48057   0.00000  Uiso   1.00
O177   O     0.64663   0.62319   0.97193   0.00000  Uiso   1.00
O178   O     0.24779   0.67740   0.44536   0.00000  Uiso   1.00
N179   N     0.30450   0.79138   0.59502   0.00000  Uiso   1.00
N180   N     0.56472   0.58465   0.94514   0.00000  Uiso   1.00
N181   N     0.28051   0.62326   0.28253   0.00000  Uiso   1.00
N182   N     0.32191   0.93445   0.64514   0.00000  Uiso   1.00
N183   N     0.58213   0.72771   0.99526   0.00000  Uiso   1.00
N184   N     0.29793   0.76633   0.33265   0.00000  Uiso   1.00
C185   C     0.11831   0.15386   0.93647   0.00000  Uiso   1.00
C186   C     0.13534   0.22672   0.85463   0.00000  Uiso   1.00
C187   C     0.15934   0.20829   0.75788   0.00000  Uiso   1.00
C188   C     0.17185   0.28457   0.69421   0.00000  Uiso   1.00
C189   C     0.19995   0.38381   0.56222   0.00000  Uiso   1.00
C190   C     0.06362   0.16975   0.95110   0.00000  Uiso   1.00
C191   C     0.02732   0.10341   0.93549   0.00000  Uiso   1.00
C192   C     0.97946   0.13173   0.95304   0.00000  Uiso   1.00
C193   C     0.89621   0.14250   0.97092   0.00000  Uiso   1.00
C194   C     0.14195   0.18039   0.04407   0.00000  Uiso   1.00
C195   C     0.17151   0.12300   0.10665   0.00000  Uiso   1.00
C196   C     0.18958   0.16028   0.20250   0.00000  Uiso   1.00
C197   C     0.22796   0.18758   0.36473   0.00000  Uiso   1.00
C198   C     0.09784   0.32210   0.99542   0.00000  Uiso   1.00
C199   C     0.12421   0.31810   0.88665   0.00000  Uiso   1.00
C200   C     0.13669   0.39443   0.82310   0.00000  Uiso   1.00
C201   C     0.16071   0.37612   0.72628   0.00000  Uiso   1.00
C202   C     0.05249   0.26113   0.98312   0.00000  Uiso   1.00
C203   C     0.00467   0.28955   0.00071   0.00000  Uiso   1.00
C204   C     0.96831   0.22328   0.98512   0.00000  Uiso   1.00
C205   C     0.13083   0.27178   0.07609   0.00000  Uiso   1.00
C206   C     0.14885   0.30915   0.17186   0.00000  Uiso   1.00
C207   C     0.17844   0.25183   0.23457   0.00000  Uiso   1.00
H208   H     0.12697   0.08271   0.91155   0.00000  Uiso   1.00
H209   H     0.16794   0.13756   0.73313   0.00000  Uiso   1.00
H210   H     0.03594   0.03270   0.91072   0.00000  Uiso   1.00
H211   H     0.18011   0.05229   0.08185   0.00000  Uiso   1.00
H212   H     0.20844   0.23867   0.54942   0.00000  Uiso   1.00
H213   H     0.93012   0.01755   0.92392   0.00000  Uiso   1.00
H214   H     0.23412   0.05886   0.28479   0.00000  Uiso   1.00
H215   H     0.08917   0.39325   0.02035   0.00000  Uiso   1.00
H216   H     0.12807   0.46514   0.84790   0.00000  Uiso   1.00
H217   H     0.99607   0.36027   0.02549   0.00000  Uiso   1.00
H218   H     0.14024   0.37987   0.19662   0.00000  Uiso   1.00
H219   H     0.17608   0.50455   0.64257   0.00000  Uiso   1.00
H220   H     0.89776   0.28342   0.01707   0.00000  Uiso   1.00
H221   H     0.20176   0.32474   0.37793   0.00000  Uiso   1.00
O222   O     0.21852   0.41330   0.48057   0.00000  Uiso   1.00
O223   O     0.85337   0.12319   0.97193   0.00000  Uiso   1.00
O224   O     0.25221   0.17740   0.44536   0.00000  Uiso   1.00
N225   N     0.19550   0.29138   0.59502   0.00000  Uiso   1.00
N226   N     0.93528   0.08465   0.94514   0.00000  Uiso   1.00
N227   N     0.21949   0.12326   0.28253   0.00000  Uiso   1.00
N228   N     0.17809   0.43445   0.64514   0.00000  Uiso   1.00
N229   N     0.91787   0.22771   0.99526   0.00000  Uiso   1.00
N230   N     0.20207   0.26633   0.33265   0.00000  Uiso   1.00
C231   C     0.38169   0.34614   0.43647   0.00000  Uiso   1.00
C232   C     0.36466   0.27328   0.35463   0.00000  Uiso   1.00
C233   C     0.34066   0.29171   0.25788   0.00000  Uiso   1.00
C234   C     0.32815   0.21543   0.19421   0.00000  Uiso   1.00
C235   C     0.30005   0.11619   0.06222   0.00000  Uiso   1.00
C236   C     0.43638   0.33025   0.45110   0.00000  Uiso   1.00
C237   C     0.47268   0.39659   0.43549   0.00000  Uiso   1.00
C238   C     0.52054   0.36827   0.45304   0.00000  Uiso   1.00
C239   C     0.60379   0.35750   0.47092   0.00000  Uiso   1.00
C240   C     0.35805   0.31961   0.54407   0.00000  Uiso   1.00
C241   C     0.32849   0.37700   0.60665   0.00000  Uiso   1.00
C242   C     0.31042   0.33972   0.70250   0.00000  Uiso   1.00
C243   C     0.27204   0.31242   0.86473   0.00000  Uiso   1.00
C244   C     0.40216   0.17790   0.49542   0.00000  Uiso   1.00
C245   C     0.37579   0.18190   0.38665   0.00000  Uiso   1.00
C246   C     0.36331   0.10557   0.32310   0.00000  Uiso   1.00
C247   C     0.33929   0.12388   0.22628   0.00000  Uiso   1.00
C248   C     0.44751   0.23887   0.48312   0.00000  Uiso   1.00
C249   C     0.49533   0.21045   0.50071   0.00000  Uiso   1.00
C250   C     0.53169   0.27672   0.48512   0.00000  Uiso   1.00
C251   C     0.36917   0.22822   0.57609   0.00000  Uiso   1.00
C252   C     0.35115   0.19085   0.67186   0.00000  Uiso   1.00
C253   C     0.32156   0.24817   0.73457   0.00000  Uiso   1.00
H254   H     0.37303   0.41729   0.41155   0.00000  Uiso   1.00
H255   H     0.33206   0.36244   0.23313   0.00000  Uiso   1.00
H256   H     0.46406   0.46730   0.41072   0.00000  Uiso   1.00
H257   H     0.31989   0.44771   0.58185   0.00000  Uiso   1.00
H258   H     0.29156   0.26133   0.04942   0.00000  Uiso   1.00
H259   H     0.56988   0.48245   0.42392   0.00000  Uiso   1.00
H260   H     0.26588   0.44114   0.78479   0.00000  Uiso   1.00
H261   H     0.41083   0.10675   0.52035   0.00000  Uiso   1.00
H262   H     0.37193   0.03486   0.34790   0.00000  Uiso   1.00
H263   H     0.50393   0.13973   0.52549   0.00000  Uiso   1.00
H264   H     0.35976   0.12013   0.69662   0.00000  Uiso   1.00
H265   H     0.32392   0.99545   0.14257   0.00000  Uiso   1.00
H266   H     0.60224   0.21658   0.51707   0.00000  Uiso   1.00
H267   H     0.29824   0.17526   0.87793   0.00000  Uiso   1.00
O268   O     0.28148   0.08670   0.98057   0.00000  Uiso   1.00
O269   O     0.64663   0.37681   0.47193   0.00000  Uiso   1.00
O270   O     0.24779   0.32260   0.94536   0.00000  Uiso   1.00
N271   N     0.30450   0.20862   0.09502   0.00000  Uiso   1.00
N272   N     0.56472   0.41535   0.44514   0.00000  Uiso   1.00
N273   N     0.28051   0.37674   0.78253   0.00000  Uiso   1.00
N274   N     0.32191   0.06555   0.14514   0.00000  Uiso   1.00
N275   N     0.58213   0.27229   0.49526   0.00000  Uiso   1.00
N276   N     0.29793   0.23367   0.83265   0.00000  Uiso   1.00
C277   C     0.88169   0.15386   0.56353   0.00000  Uiso   1.00
C278   C     0.86466   0.22672   0.64537   0.00000  Uiso   1.00
C279   C     0.84066   0.20829   0.74212   0.00000  Uiso   1.00
C280   C     0.82815   0.28457   0.80579   0.00000  Uiso   1.00
C281   C     0.80005   0.38381   0.93778   0.00000  Uiso   1.00
C282   C     0.93638   0.16975   0.54890   0.00000  Uiso   1.00
C283   C     0.97268   0.10341   0.56451   0.00000  Uiso   1.00
C284   C     0.02054   0.13173   0.54696   0.00000  Uiso   1.00
C285   C     0.10379   0.14250   0.52908   0.00000  Uiso   1.00
C286   C     0.85805   0.18039   0.45593   0.00000  Uiso   1.00
C287   C     0.82849   0.12300   0.39335   0.00000  Uiso   1.00
C288   C     0.81042   0.16028   0.29750   0.00000  Uiso   1.00
C289   C     0.77204   0.18758   0.13527   0.00000  Uiso   1.00
C290   C     0.90216   0.32210   0.50458   0.00000  Uiso   1.00
C291   C     0.87579   0.31810   0.61335   0.00000  Uiso   1.00
C292   C     0.86331   0.39443   0.67690   0.00000  Uiso   1.00
C293   C     0.83929   0.37612   0.77372   0.00000  Uiso   1.00
C294   C     0.94751   0.26113   0.51688   0.00000  Uiso   1.00
C295   C     0.99533   0.28955   0.49929   0.00000  Uiso   1.00
C296   C     0.03169   0.22328   0.51488   0.00000  Uiso   1.00
C297   C     0.86917   0.27178   0.42391   0.00000  Uiso   1.00
C298   C     0.85115   0.30915   0.32814   0.00000  Uiso   1.00
C299   C     0.82156   0.25183   0.26543   0.00000  Uiso   1.00
H300   H     0.87303   0.08271   0.58845   0.00000  Uiso   1.00
H301   H     0.83206   0.13756   0.76687   0.00000  Uiso   1.00
H302   H     0.96406   0.03270   0.58928   0.00000  Uiso   1.00
H303   H     0.81989   0.05229   0.41815   0.00000  Uiso   1.00
H304   H     0.79156   0.23867   0.95058   0.00000  Uiso   1.00
H305   H     0.06988   0.01755   0.57608   0.00000  Uiso   1.00
H306   H     0.76588   0.05886   0.21521   0.00000  Uiso   1.00
H307   H     0.91083   0.39325   0.47965   0.00000  Uiso   1.00
H308   H     0.87193   0.46514   0.65210   0.00000  Uiso   1.00
H309   H     0.00393   0.36027   0.47451   0.00000  Uiso   1.00
H310   H     0.85976   0.37987   0.30338   0.00000  Uiso   1.00
H311   H     0.82392   0.50455   0.85743   0.00000  Uiso   1.00
H312   H     0.10224   0.28342   0.48293   0.00000  Uiso   1.00
H313   H     0.79824   0.32474   0.12207   0.00000  Uiso   1.00
O314   O     0.78148   0.41330   0.01943   0.00000  Uiso   1.00
O315   O     0.14663   0.12319   0.52807   0.00000  Uiso   1.00
O316   O     0.74779   0.17740   0.05464   0.00000  Uiso   1.00
N317   N     0.80450   0.29138   0.90498   0.00000  Uiso   1.00
N318   N     0.06472   0.08465   0.55486   0.00000  Uiso   1.00
N319   N     0.78051   0.12326   0.21747   0.00000  Uiso   1.00
N320   N     0.82191   0.43445   0.85486   0.00000  Uiso   1.00
N321   N     0.08213   0.22771   0.50474   0.00000  Uiso   1.00
N322   N     0.79793   0.26633   0.16735   0.00000  Uiso   1.00
C323   C     0.61831   0.34614   0.06353   0.00000  Uiso   1.00
C324   C     0.63534   0.27328   0.14537   0.00000  Uiso   1.00
C325   C     0.65934   0.29171   0.24212   0.00000  Uiso   1.00
C326   C     0.67185   0.21543   0.30579   0.00000  Uiso   1.00
C327   C     0.69995   0.11619   0.43778   0.00000  Uiso   1.00
C328   C     0.56362   0.33025   0.04890   0.00000  Uiso   1.00
C329   C     0.52732   0.39659   0.06451   0.00000  Uiso   1.00
C330   C     0.47946   0.36827   0.04696   0.00000  Uiso   1.00
C331   C     0.39621   0.35750   0.02908   0.00000  Uiso   1.00
C332   C     0.64195   0.31961   0.95593   0.00000  Uiso   1.00
C333   C     0.67151   0.37700   0.89335   0.00000  Uiso   1.00
C334   C     0.68958   0.33972   0.79750   0.00000  Uiso   1.00
C335   C     0.72796   0.31242   0.63527   0.00000  Uiso   1.00
C336   C     0.59784   0.17790   0.00458   0.00000  Uiso   1.00
C337   C     0.62421   0.18190   0.11335   0.00000  Uiso   1.00
C338   C     0.63669   0.10557   0.17690   0.00000  Uiso   1.00
C339   C     0.66071   0.12388   0.27372   0.00000  Uiso   1.00
C340   C     0.55249   0.23887   0.01688   0.00000  Uiso   1.00
C341   C     0.50467   0.21045   0.99929   0.00000  Uiso   1.00
C342   C     0.46831   0.27672   0.01488   0.00000  Uiso   1.00
C343   C     0.63083   0.22822   0.92391   0.00000  Uiso   1.00
C344   C     0.64885   0.19085   0.82814   0.00000  Uiso   1.00
C345   C     0.67844   0.24817   0.76543   0.00000  Uiso   1.00
H346   H     0.62697   0.41729   0.08845   0.00000  Uiso   1.00
H347   H     0.66794   0.36244   0.26687   0.00000  Uiso   1.00
H348   H     0.53594   0.46730   0.08928   0.00000  Uiso   1.00
H349   H     0.68011   0.44771   0.91815   0.00000  Uiso   1.00
H350   H     0.70844   0.26133   0.45058   0.00000  Uiso   1.00
H351   H     0.43012   0.48245   0.07608   0.00000  Uiso   1.00
H352   H     0.73412   0.44114   0.71521   0.00000  Uiso   1.00
H353   H     0.58917   0.10675   0.97965   0.00000  Uiso   1.00
H354   H     0.62807   0.03486   0.15210   0.00000  Uiso   1.00
H355   H     0.49607   0.13973   0.97451   0.00000  Uiso   1.00
H356   H     0.64024   0.12013   0.80338   0.00000  Uiso   1.00
H357   H     0.67608   0.99545   0.35743   0.00000  Uiso   1.00
H358   H     0.39776   0.21658   0.98293   0.00000  Uiso   1.00
H359   H     0.70176   0.17526   0.62207   0.00000  Uiso   1.00
O360   O     0.71852   0.08670   0.51943   0.00000  Uiso   1.00
O361   O     0.35337   0.37681   0.02807   0.00000  Uiso   1.00
O362   O     0.75221   0.32260   0.55464   0.00000  Uiso   1.00
N363   N     0.69550   0.20862   0.40498   0.00000  Uiso   1.00
N364   N     0.43528   0.41535   0.05486   0.00000  Uiso   1.00
N365   N     0.71949   0.37674   0.71747   0.00000  Uiso   1.00
N366   N     0.67809   0.06555   0.35486   0.00000  Uiso   1.00
N367   N     0.41787   0.27229   0.00474   0.00000  Uiso   1.00
N368   N     0.70207   0.23367   0.66735   0.00000  Uiso   1.00
