data_job_01779
_audit_creation_date              2018-12-19
_audit_creation_method            'Materials Studio'
_symmetry_space_group_name_H-M    'P1'
_symmetry_Int_Tables_number       1
_symmetry_cell_setting            triclinic
loop_
_symmetry_equiv_pos_as_xyz
  x,y,z
_cell_length_a                    16.6573
_cell_length_b                    8.4902
_cell_length_c                    29.2710
_cell_angle_alpha                 90.0000
_cell_angle_beta                  141.2183
_cell_angle_gamma                 90.0000
loop_
_atom_site_label
_atom_site_type_symbol
_atom_site_fract_x
_atom_site_fract_y
_atom_site_fract_z
_atom_site_U_iso_or_equiv
_atom_site_adp_type
_atom_site_occupancy
C1     C     0.05004   0.27303   0.12904   0.00000  Uiso   1.00
C2     C     0.12771   0.13707   0.14368   0.00000  Uiso   1.00
C3     C     0.17705   0.12970   0.12159   0.00000  Uiso   1.00
C4     C     0.24541   0.99518   0.14035   0.00000  Uiso   1.00
C5     C     0.36318   0.80270   0.15706   0.00000  Uiso   1.00
C6     C     0.92423   0.20145   0.08972   0.00000  Uiso   1.00
C7     C     0.80248   0.24824   0.02226   0.00000  Uiso   1.00
C8     C     0.69954   0.16793   0.99561   0.00000  Uiso   1.00
C9     C     0.50139   0.07548   0.92856   0.00000  Uiso   1.00
C10    C     0.12125   0.32581   0.20347   0.00000  Uiso   1.00
C11    C     0.16514   0.47717   0.23165   0.00000  Uiso   1.00
C12    C     0.22806   0.50157   0.30076   0.00000  Uiso   1.00
C13    C     0.33581   0.60221   0.41032   0.00000  Uiso   1.00
C14    C     0.08371   0.04724   0.20164   0.00000  Uiso   1.00
C15    C     0.14599   0.01443   0.18312   0.00000  Uiso   1.00
C16    C     0.21430   0.87989   0.20192   0.00000  Uiso   1.00
C17    C     0.26374   0.87232   0.17986   0.00000  Uiso   1.00
C18    C     0.94251   0.07882   0.12915   0.00000  Uiso   1.00
C19    C     0.83973   0.99843   0.10259   0.00000  Uiso   1.00
C20    C     0.71786   0.04507   0.03511   0.00000  Uiso   1.00
C21    C     0.13954   0.20318   0.24291   0.00000  Uiso   1.00
C22    C     0.20239   0.22735   0.31198   0.00000  Uiso   1.00
C23    C     0.24637   0.37871   0.34026   0.00000  Uiso   1.00
H24    H     0.03580   0.36850   0.09834   0.00000  Uiso   1.00
H25    H     0.16287   0.22463   0.09107   0.00000  Uiso   1.00
H26    H     0.78836   0.34316   0.99176   0.00000  Uiso   1.00
H27    H     0.15097   0.57205   0.20112   0.00000  Uiso   1.00
H28    H     0.31178   0.01100   0.10038   0.00000  Uiso   1.00
H29    H     0.52210   0.26096   0.89100   0.00000  Uiso   1.00
H30    H     0.28672   0.74363   0.33246   0.00000  Uiso   1.00
H31    H     0.09795   0.95175   0.23235   0.00000  Uiso   1.00
H32    H     0.22844   0.78500   0.23244   0.00000  Uiso   1.00
H33    H     0.85392   0.90353   0.13312   0.00000  Uiso   1.00
H34    H     0.21653   0.13242   0.34248   0.00000  Uiso   1.00
H35    H     0.36499   0.65418   0.21512   0.00000  Uiso   1.00
H36    H     0.57530   0.90415   0.00573   0.00000  Uiso   1.00
H37    H     0.33994   0.38681   0.44720   0.00000  Uiso   1.00
O38    O     0.42306   0.73039   0.15537   0.00000  Uiso   1.00
O39    O     0.38704   0.05836   0.88067   0.00000  Uiso   1.00
O40    O     0.39021   0.69160   0.45986   0.00000  Uiso   1.00
N41    N     0.30641   0.94992   0.12738   0.00000  Uiso   1.00
N42    N     0.56811   0.18361   0.93162   0.00000  Uiso   1.00
N43    N     0.28294   0.63487   0.34434   0.00000  Uiso   1.00
N44    N     0.33505   0.75792   0.18912   0.00000  Uiso   1.00
N45    N     0.59674   0.99161   0.99335   0.00000  Uiso   1.00
N46    N     0.31158   0.44287   0.40608   0.00000  Uiso   1.00
C47    C     0.94996   0.27303   0.37096   0.00000  Uiso   1.00
C48    C     0.87229   0.13707   0.35632   0.00000  Uiso   1.00
C49    C     0.82295   0.12970   0.37841   0.00000  Uiso   1.00
C50    C     0.75459   0.99518   0.35965   0.00000  Uiso   1.00
C51    C     0.63682   0.80270   0.34294   0.00000  Uiso   1.00
C52    C     0.07577   0.20145   0.41028   0.00000  Uiso   1.00
C53    C     0.19752   0.24824   0.47774   0.00000  Uiso   1.00
C54    C     0.30046   0.16793   0.50439   0.00000  Uiso   1.00
C55    C     0.49861   0.07548   0.57144   0.00000  Uiso   1.00
C56    C     0.87875   0.32581   0.29653   0.00000  Uiso   1.00
C57    C     0.83486   0.47717   0.26835   0.00000  Uiso   1.00
C58    C     0.77194   0.50157   0.19924   0.00000  Uiso   1.00
C59    C     0.66419   0.60221   0.08968   0.00000  Uiso   1.00
C60    C     0.91629   0.04724   0.29836   0.00000  Uiso   1.00
C61    C     0.85401   0.01443   0.31688   0.00000  Uiso   1.00
C62    C     0.78570   0.87989   0.29808   0.00000  Uiso   1.00
C63    C     0.73626   0.87232   0.32014   0.00000  Uiso   1.00
C64    C     0.05749   0.07882   0.37085   0.00000  Uiso   1.00
C65    C     0.16027   0.99843   0.39741   0.00000  Uiso   1.00
C66    C     0.28214   0.04507   0.46489   0.00000  Uiso   1.00
C67    C     0.86046   0.20318   0.25709   0.00000  Uiso   1.00
C68    C     0.79761   0.22735   0.18802   0.00000  Uiso   1.00
C69    C     0.75363   0.37871   0.15974   0.00000  Uiso   1.00
H70    H     0.96420   0.36850   0.40166   0.00000  Uiso   1.00
H71    H     0.83713   0.22463   0.40893   0.00000  Uiso   1.00
H72    H     0.21164   0.34316   0.50824   0.00000  Uiso   1.00
H73    H     0.84903   0.57205   0.29888   0.00000  Uiso   1.00
H74    H     0.68822   0.01100   0.39962   0.00000  Uiso   1.00
H75    H     0.47790   0.26096   0.60900   0.00000  Uiso   1.00
H76    H     0.71328   0.74363   0.16754   0.00000  Uiso   1.00
H77    H     0.90205   0.95175   0.26765   0.00000  Uiso   1.00
H78    H     0.77156   0.78500   0.26756   0.00000  Uiso   1.00
H79    H     0.14608   0.90353   0.36688   0.00000  Uiso   1.00
H80    H     0.78347   0.13242   0.15752   0.00000  Uiso   1.00
H81    H     0.63501   0.65418   0.28488   0.00000  Uiso   1.00
H82    H     0.42470   0.90415   0.49427   0.00000  Uiso   1.00
H83    H     0.66006   0.38681   0.05280   0.00000  Uiso   1.00
O84    O     0.57694   0.73039   0.34463   0.00000  Uiso   1.00
O85    O     0.61296   0.05836   0.61933   0.00000  Uiso   1.00
O86    O     0.60979   0.69160   0.04014   0.00000  Uiso   1.00
N87    N     0.69359   0.94992   0.37262   0.00000  Uiso   1.00
N88    N     0.43189   0.18361   0.56838   0.00000  Uiso   1.00
N89    N     0.71706   0.63487   0.15566   0.00000  Uiso   1.00
N90    N     0.66495   0.75792   0.31088   0.00000  Uiso   1.00
N91    N     0.40326   0.99161   0.50665   0.00000  Uiso   1.00
N92    N     0.68842   0.44287   0.09392   0.00000  Uiso   1.00
C93    C     0.94996   0.72697   0.87096   0.00000  Uiso   1.00
C94    C     0.87229   0.86293   0.85632   0.00000  Uiso   1.00
C95    C     0.82295   0.87030   0.87841   0.00000  Uiso   1.00
C96    C     0.75459   0.00482   0.85965   0.00000  Uiso   1.00
C97    C     0.63682   0.19730   0.84294   0.00000  Uiso   1.00
C98    C     0.07577   0.79855   0.91028   0.00000  Uiso   1.00
C99    C     0.19752   0.75176   0.97774   0.00000  Uiso   1.00
C100   C     0.30046   0.83207   0.00439   0.00000  Uiso   1.00
C101   C     0.49861   0.92452   0.07144   0.00000  Uiso   1.00
C102   C     0.87875   0.67419   0.79653   0.00000  Uiso   1.00
C103   C     0.83486   0.52283   0.76835   0.00000  Uiso   1.00
C104   C     0.77194   0.49843   0.69924   0.00000  Uiso   1.00
C105   C     0.66419   0.39779   0.58968   0.00000  Uiso   1.00
C106   C     0.91629   0.95276   0.79836   0.00000  Uiso   1.00
C107   C     0.85401   0.98557   0.81688   0.00000  Uiso   1.00
C108   C     0.78570   0.12011   0.79808   0.00000  Uiso   1.00
C109   C     0.73626   0.12768   0.82014   0.00000  Uiso   1.00
C110   C     0.05749   0.92118   0.87085   0.00000  Uiso   1.00
C111   C     0.16027   0.00157   0.89741   0.00000  Uiso   1.00
C112   C     0.28214   0.95493   0.96489   0.00000  Uiso   1.00
C113   C     0.86046   0.79682   0.75709   0.00000  Uiso   1.00
C114   C     0.79761   0.77265   0.68802   0.00000  Uiso   1.00
C115   C     0.75363   0.62129   0.65974   0.00000  Uiso   1.00
H116   H     0.96420   0.63150   0.90166   0.00000  Uiso   1.00
H117   H     0.83713   0.77537   0.90893   0.00000  Uiso   1.00
H118   H     0.21164   0.65684   0.00824   0.00000  Uiso   1.00
H119   H     0.84903   0.42795   0.79888   0.00000  Uiso   1.00
H120   H     0.68822   0.98900   0.89962   0.00000  Uiso   1.00
H121   H     0.47790   0.73904   0.10900   0.00000  Uiso   1.00
H122   H     0.71328   0.25637   0.66754   0.00000  Uiso   1.00
H123   H     0.90205   0.04825   0.76765   0.00000  Uiso   1.00
H124   H     0.77156   0.21500   0.76756   0.00000  Uiso   1.00
H125   H     0.14608   0.09647   0.86688   0.00000  Uiso   1.00
H126   H     0.78347   0.86758   0.65752   0.00000  Uiso   1.00
H127   H     0.63501   0.34582   0.78488   0.00000  Uiso   1.00
H128   H     0.42470   0.09585   0.99427   0.00000  Uiso   1.00
H129   H     0.66006   0.61319   0.55280   0.00000  Uiso   1.00
O130   O     0.57694   0.26961   0.84463   0.00000  Uiso   1.00
O131   O     0.61296   0.94164   0.11933   0.00000  Uiso   1.00
O132   O     0.60979   0.30840   0.54014   0.00000  Uiso   1.00
N133   N     0.69359   0.05008   0.87262   0.00000  Uiso   1.00
N134   N     0.43189   0.81639   0.06838   0.00000  Uiso   1.00
N135   N     0.71706   0.36513   0.65566   0.00000  Uiso   1.00
N136   N     0.66495   0.24208   0.81088   0.00000  Uiso   1.00
N137   N     0.40326   0.00839   0.00665   0.00000  Uiso   1.00
N138   N     0.68842   0.55713   0.59392   0.00000  Uiso   1.00
C139   C     0.05004   0.72697   0.62904   0.00000  Uiso   1.00
C140   C     0.12771   0.86293   0.64368   0.00000  Uiso   1.00
C141   C     0.17705   0.87030   0.62159   0.00000  Uiso   1.00
C142   C     0.24541   0.00482   0.64035   0.00000  Uiso   1.00
C143   C     0.36318   0.19730   0.65706   0.00000  Uiso   1.00
C144   C     0.92423   0.79855   0.58972   0.00000  Uiso   1.00
C145   C     0.80248   0.75176   0.52226   0.00000  Uiso   1.00
C146   C     0.69954   0.83207   0.49561   0.00000  Uiso   1.00
C147   C     0.50139   0.92452   0.42856   0.00000  Uiso   1.00
C148   C     0.12125   0.67419   0.70347   0.00000  Uiso   1.00
C149   C     0.16514   0.52283   0.73165   0.00000  Uiso   1.00
C150   C     0.22806   0.49843   0.80076   0.00000  Uiso   1.00
C151   C     0.33581   0.39779   0.91032   0.00000  Uiso   1.00
C152   C     0.08371   0.95276   0.70164   0.00000  Uiso   1.00
C153   C     0.14599   0.98557   0.68312   0.00000  Uiso   1.00
C154   C     0.21430   0.12011   0.70192   0.00000  Uiso   1.00
C155   C     0.26374   0.12768   0.67986   0.00000  Uiso   1.00
C156   C     0.94251   0.92118   0.62915   0.00000  Uiso   1.00
C157   C     0.83973   0.00157   0.60259   0.00000  Uiso   1.00
C158   C     0.71786   0.95493   0.53511   0.00000  Uiso   1.00
C159   C     0.13954   0.79682   0.74291   0.00000  Uiso   1.00
C160   C     0.20239   0.77265   0.81198   0.00000  Uiso   1.00
C161   C     0.24637   0.62129   0.84026   0.00000  Uiso   1.00
H162   H     0.03580   0.63150   0.59834   0.00000  Uiso   1.00
H163   H     0.16287   0.77537   0.59107   0.00000  Uiso   1.00
H164   H     0.78836   0.65684   0.49176   0.00000  Uiso   1.00
H165   H     0.15097   0.42795   0.70112   0.00000  Uiso   1.00
H166   H     0.31178   0.98900   0.60038   0.00000  Uiso   1.00
H167   H     0.52210   0.73904   0.39100   0.00000  Uiso   1.00
H168   H     0.28672   0.25637   0.83246   0.00000  Uiso   1.00
H169   H     0.09795   0.04825   0.73235   0.00000  Uiso   1.00
H170   H     0.22844   0.21500   0.73244   0.00000  Uiso   1.00
H171   H     0.85392   0.09647   0.63312   0.00000  Uiso   1.00
H172   H     0.21653   0.86758   0.84248   0.00000  Uiso   1.00
H173   H     0.36499   0.34582   0.71512   0.00000  Uiso   1.00
H174   H     0.57530   0.09585   0.50573   0.00000  Uiso   1.00
H175   H     0.33994   0.61319   0.94720   0.00000  Uiso   1.00
O176   O     0.42306   0.26961   0.65537   0.00000  Uiso   1.00
O177   O     0.38704   0.94164   0.38067   0.00000  Uiso   1.00
O178   O     0.39021   0.30840   0.95986   0.00000  Uiso   1.00
N179   N     0.30641   0.05008   0.62738   0.00000  Uiso   1.00
N180   N     0.56811   0.81639   0.43162   0.00000  Uiso   1.00
N181   N     0.28294   0.36513   0.84434   0.00000  Uiso   1.00
N182   N     0.33505   0.24208   0.68912   0.00000  Uiso   1.00
N183   N     0.59674   0.00839   0.49335   0.00000  Uiso   1.00
N184   N     0.31158   0.55713   0.90608   0.00000  Uiso   1.00
