data_job_05315
_audit_creation_date              2018-12-19
_audit_creation_method            'Materials Studio'
_symmetry_space_group_name_H-M    'P1'
_symmetry_Int_Tables_number       1
_symmetry_cell_setting            triclinic
loop_
_symmetry_equiv_pos_as_xyz
  x,y,z
_cell_length_a                    26.0651
_cell_length_b                    11.1443
_cell_length_c                    12.6151
_cell_angle_alpha                 90.0000
_cell_angle_beta                  136.0890
_cell_angle_gamma                 90.0000
loop_
_atom_site_label
_atom_site_type_symbol
_atom_site_fract_x
_atom_site_fract_y
_atom_site_fract_z
_atom_site_U_iso_or_equiv
_atom_site_adp_type
_atom_site_occupancy
C1     C     0.26842   0.95133   0.37413   0.00000  Uiso   1.00
C2     C     0.29141   0.81988   0.40177   0.00000  Uiso   1.00
C3     C     0.36162   0.77517   0.52676   0.00000  Uiso   1.00
C4     C     0.37144   0.65217   0.53094   0.00000  Uiso   1.00
C5     C     0.41601   0.45955   0.59156   0.00000  Uiso   1.00
C6     C     0.23661   0.98299   0.21837   0.00000  Uiso   1.00
C7     C     0.26074   0.07543   0.18918   0.00000  Uiso   1.00
C8     C     0.22442   0.08975   0.03896   0.00000  Uiso   1.00
C9     C     0.18389   0.15042   0.81485   0.00000  Uiso   1.00
C10    C     0.20364   0.95592   0.35501   0.00000  Uiso   1.00
C11    C     0.20003   0.02562   0.44066   0.00000  Uiso   1.00
C12    C     0.13594   0.01717   0.40546   0.00000  Uiso   1.00
C13    C     0.04421   0.03580   0.39348   0.00000  Uiso   1.00
C14    C     0.16101   0.81242   0.15927   0.00000  Uiso   1.00
C15    C     0.23307   0.74444   0.28506   0.00000  Uiso   1.00
C16    C     0.24278   0.62147   0.28905   0.00000  Uiso   1.00
C17    C     0.31299   0.57658   0.41403   0.00000  Uiso   1.00
C18    C     0.17827   0.90755   0.10167   0.00000  Uiso   1.00
C19    C     0.14190   0.92174   0.95146   0.00000  Uiso   1.00
C20    C     0.16598   0.01416   0.92205   0.00000  Uiso   1.00
C21    C     0.14529   0.88047   0.23831   0.00000  Uiso   1.00
C22    C     0.08119   0.87192   0.20295   0.00000  Uiso   1.00
C23    C     0.07749   0.94158   0.28854   0.00000  Uiso   1.00
H24    H     0.31384   0.01008   0.46498   0.00000  Uiso   1.00
H25    H     0.40676   0.83359   0.61705   0.00000  Uiso   1.00
H26    H     0.30589   0.13381   0.27951   0.00000  Uiso   1.00
H27    H     0.24519   0.08400   0.53096   0.00000  Uiso   1.00
H28    H     0.48404   0.60465   0.73415   0.00000  Uiso   1.00
H29    H     0.27135   0.23771   0.02243   0.00000  Uiso   1.00
H30    H     0.14335   0.13268   0.55265   0.00000  Uiso   1.00
H31    H     0.11558   0.75368   0.06841   0.00000  Uiso   1.00
H32    H     0.19762   0.56311   0.19872   0.00000  Uiso   1.00
H33    H     0.09675   0.86333   0.86118   0.00000  Uiso   1.00
H34    H     0.03606   0.81352   0.11263   0.00000  Uiso   1.00
H35    H     0.31430   0.38512   0.39461   0.00000  Uiso   1.00
H36    H     0.10160   0.01818   0.68289   0.00000  Uiso   1.00
H37    H     0.97361   0.91314   0.21312   0.00000  Uiso   1.00
O38    O     0.45672   0.37415   0.65723   0.00000  Uiso   1.00
O39    O     0.17766   0.20472   0.72348   0.00000  Uiso   1.00
O40    O     0.00973   0.06691   0.41913   0.00000  Uiso   1.00
N41    N     0.43283   0.57913   0.63637   0.00000  Uiso   1.00
N42    N     0.23398   0.17099   0.97096   0.00000  Uiso   1.00
N43    N     0.11431   0.07282   0.46665   0.00000  Uiso   1.00
N44    N     0.34150   0.46100   0.45367   0.00000  Uiso   1.00
N45    N     0.14265   0.05286   0.78826   0.00000  Uiso   1.00
N46    N     0.02297   0.95469   0.28395   0.00000  Uiso   1.00
C47    C     0.73158   0.45133   0.12587   0.00000  Uiso   1.00
C48    C     0.70859   0.31988   0.09823   0.00000  Uiso   1.00
C49    C     0.63838   0.27517   0.97324   0.00000  Uiso   1.00
C50    C     0.62856   0.15217   0.96906   0.00000  Uiso   1.00
C51    C     0.58399   0.95955   0.90844   0.00000  Uiso   1.00
C52    C     0.76339   0.48299   0.28163   0.00000  Uiso   1.00
C53    C     0.73926   0.57543   0.31082   0.00000  Uiso   1.00
C54    C     0.77558   0.58975   0.46104   0.00000  Uiso   1.00
C55    C     0.81611   0.65042   0.68515   0.00000  Uiso   1.00
C56    C     0.79636   0.45592   0.14499   0.00000  Uiso   1.00
C57    C     0.79997   0.52562   0.05934   0.00000  Uiso   1.00
C58    C     0.86406   0.51717   0.09454   0.00000  Uiso   1.00
C59    C     0.95579   0.53580   0.10652   0.00000  Uiso   1.00
C60    C     0.83899   0.31242   0.34073   0.00000  Uiso   1.00
C61    C     0.76693   0.24444   0.21494   0.00000  Uiso   1.00
C62    C     0.75722   0.12147   0.21095   0.00000  Uiso   1.00
C63    C     0.68701   0.07658   0.08597   0.00000  Uiso   1.00
C64    C     0.82173   0.40755   0.39833   0.00000  Uiso   1.00
C65    C     0.85810   0.42174   0.54854   0.00000  Uiso   1.00
C66    C     0.83402   0.51416   0.57795   0.00000  Uiso   1.00
C67    C     0.85471   0.38047   0.26169   0.00000  Uiso   1.00
C68    C     0.91881   0.37192   0.29705   0.00000  Uiso   1.00
C69    C     0.92251   0.44158   0.21146   0.00000  Uiso   1.00
H70    H     0.68616   0.51008   0.03502   0.00000  Uiso   1.00
H71    H     0.59324   0.33359   0.88295   0.00000  Uiso   1.00
H72    H     0.69411   0.63381   0.22049   0.00000  Uiso   1.00
H73    H     0.75481   0.58400   0.96904   0.00000  Uiso   1.00
H74    H     0.51596   0.10465   0.76585   0.00000  Uiso   1.00
H75    H     0.72865   0.73771   0.47757   0.00000  Uiso   1.00
H76    H     0.85665   0.63268   0.94735   0.00000  Uiso   1.00
H77    H     0.88442   0.25368   0.43159   0.00000  Uiso   1.00
H78    H     0.80238   0.06311   0.30128   0.00000  Uiso   1.00
H79    H     0.90325   0.36333   0.63882   0.00000  Uiso   1.00
H80    H     0.96394   0.31352   0.38737   0.00000  Uiso   1.00
H81    H     0.68570   0.88512   0.10539   0.00000  Uiso   1.00
H82    H     0.89840   0.51818   0.81711   0.00000  Uiso   1.00
H83    H     0.02639   0.41314   0.28688   0.00000  Uiso   1.00
O84    O     0.54328   0.87415   0.84277   0.00000  Uiso   1.00
O85    O     0.82234   0.70472   0.77652   0.00000  Uiso   1.00
O86    O     0.99027   0.56691   0.08087   0.00000  Uiso   1.00
N87    N     0.56717   0.07913   0.86363   0.00000  Uiso   1.00
N88    N     0.76602   0.67099   0.52904   0.00000  Uiso   1.00
N89    N     0.88569   0.57282   0.03335   0.00000  Uiso   1.00
N90    N     0.65850   0.96100   0.04633   0.00000  Uiso   1.00
N91    N     0.85735   0.55286   0.71174   0.00000  Uiso   1.00
N92    N     0.97703   0.45469   0.21605   0.00000  Uiso   1.00
C93    C     0.73158   0.04867   0.62587   0.00000  Uiso   1.00
C94    C     0.70859   0.18012   0.59823   0.00000  Uiso   1.00
C95    C     0.63838   0.22483   0.47324   0.00000  Uiso   1.00
C96    C     0.62856   0.34783   0.46906   0.00000  Uiso   1.00
C97    C     0.58399   0.54045   0.40844   0.00000  Uiso   1.00
C98    C     0.76339   0.01701   0.78163   0.00000  Uiso   1.00
C99    C     0.73926   0.92457   0.81082   0.00000  Uiso   1.00
C100   C     0.77558   0.91025   0.96104   0.00000  Uiso   1.00
C101   C     0.81611   0.84958   0.18515   0.00000  Uiso   1.00
C102   C     0.79636   0.04408   0.64499   0.00000  Uiso   1.00
C103   C     0.79997   0.97438   0.55934   0.00000  Uiso   1.00
C104   C     0.86406   0.98283   0.59454   0.00000  Uiso   1.00
C105   C     0.95579   0.96420   0.60652   0.00000  Uiso   1.00
C106   C     0.83899   0.18758   0.84073   0.00000  Uiso   1.00
C107   C     0.76693   0.25556   0.71494   0.00000  Uiso   1.00
C108   C     0.75722   0.37853   0.71095   0.00000  Uiso   1.00
C109   C     0.68701   0.42342   0.58597   0.00000  Uiso   1.00
C110   C     0.82173   0.09245   0.89833   0.00000  Uiso   1.00
C111   C     0.85810   0.07826   0.04854   0.00000  Uiso   1.00
C112   C     0.83402   0.98584   0.07795   0.00000  Uiso   1.00
C113   C     0.85471   0.11953   0.76169   0.00000  Uiso   1.00
C114   C     0.91881   0.12808   0.79705   0.00000  Uiso   1.00
C115   C     0.92251   0.05842   0.71146   0.00000  Uiso   1.00
H116   H     0.68616   0.98992   0.53502   0.00000  Uiso   1.00
H117   H     0.59324   0.16641   0.38295   0.00000  Uiso   1.00
H118   H     0.69411   0.86619   0.72049   0.00000  Uiso   1.00
H119   H     0.75481   0.91600   0.46904   0.00000  Uiso   1.00
H120   H     0.51596   0.39535   0.26585   0.00000  Uiso   1.00
H121   H     0.72865   0.76229   0.97757   0.00000  Uiso   1.00
H122   H     0.85665   0.86732   0.44735   0.00000  Uiso   1.00
H123   H     0.88442   0.24632   0.93159   0.00000  Uiso   1.00
H124   H     0.80238   0.43689   0.80128   0.00000  Uiso   1.00
H125   H     0.90325   0.13667   0.13882   0.00000  Uiso   1.00
H126   H     0.96394   0.18648   0.88737   0.00000  Uiso   1.00
H127   H     0.68570   0.61488   0.60539   0.00000  Uiso   1.00
H128   H     0.89840   0.98182   0.31711   0.00000  Uiso   1.00
H129   H     0.02639   0.08686   0.78688   0.00000  Uiso   1.00
O130   O     0.54328   0.62585   0.34277   0.00000  Uiso   1.00
O131   O     0.82234   0.79528   0.27652   0.00000  Uiso   1.00
O132   O     0.99027   0.93309   0.58087   0.00000  Uiso   1.00
N133   N     0.56717   0.42087   0.36363   0.00000  Uiso   1.00
N134   N     0.76602   0.82901   0.02904   0.00000  Uiso   1.00
N135   N     0.88569   0.92718   0.53335   0.00000  Uiso   1.00
N136   N     0.65850   0.53900   0.54633   0.00000  Uiso   1.00
N137   N     0.85735   0.94714   0.21174   0.00000  Uiso   1.00
N138   N     0.97703   0.04531   0.71605   0.00000  Uiso   1.00
C139   C     0.26842   0.54867   0.87413   0.00000  Uiso   1.00
C140   C     0.29141   0.68012   0.90177   0.00000  Uiso   1.00
C141   C     0.36162   0.72483   0.02676   0.00000  Uiso   1.00
C142   C     0.37144   0.84783   0.03094   0.00000  Uiso   1.00
C143   C     0.41601   0.04045   0.09156   0.00000  Uiso   1.00
C144   C     0.23661   0.51701   0.71837   0.00000  Uiso   1.00
C145   C     0.26074   0.42457   0.68918   0.00000  Uiso   1.00
C146   C     0.22442   0.41025   0.53896   0.00000  Uiso   1.00
C147   C     0.18389   0.34958   0.31485   0.00000  Uiso   1.00
C148   C     0.20364   0.54408   0.85501   0.00000  Uiso   1.00
C149   C     0.20003   0.47438   0.94066   0.00000  Uiso   1.00
C150   C     0.13594   0.48283   0.90546   0.00000  Uiso   1.00
C151   C     0.04421   0.46420   0.89348   0.00000  Uiso   1.00
C152   C     0.16101   0.68758   0.65927   0.00000  Uiso   1.00
C153   C     0.23307   0.75556   0.78506   0.00000  Uiso   1.00
C154   C     0.24278   0.87853   0.78905   0.00000  Uiso   1.00
C155   C     0.31299   0.92342   0.91403   0.00000  Uiso   1.00
C156   C     0.17827   0.59245   0.60167   0.00000  Uiso   1.00
C157   C     0.14190   0.57826   0.45146   0.00000  Uiso   1.00
C158   C     0.16598   0.48584   0.42205   0.00000  Uiso   1.00
C159   C     0.14529   0.61953   0.73831   0.00000  Uiso   1.00
C160   C     0.08119   0.62808   0.70295   0.00000  Uiso   1.00
C161   C     0.07749   0.55842   0.78854   0.00000  Uiso   1.00
H162   H     0.31384   0.48992   0.96498   0.00000  Uiso   1.00
H163   H     0.40676   0.66641   0.11705   0.00000  Uiso   1.00
H164   H     0.30589   0.36619   0.77951   0.00000  Uiso   1.00
H165   H     0.24519   0.41600   0.03096   0.00000  Uiso   1.00
H166   H     0.48404   0.89535   0.23415   0.00000  Uiso   1.00
H167   H     0.27135   0.26229   0.52243   0.00000  Uiso   1.00
H168   H     0.14335   0.36732   0.05265   0.00000  Uiso   1.00
H169   H     0.11558   0.74632   0.56841   0.00000  Uiso   1.00
H170   H     0.19762   0.93689   0.69872   0.00000  Uiso   1.00
H171   H     0.09675   0.63667   0.36118   0.00000  Uiso   1.00
H172   H     0.03606   0.68648   0.61263   0.00000  Uiso   1.00
H173   H     0.31430   0.11488   0.89461   0.00000  Uiso   1.00
H174   H     0.10160   0.48182   0.18289   0.00000  Uiso   1.00
H175   H     0.97361   0.58686   0.71312   0.00000  Uiso   1.00
O176   O     0.45672   0.12585   0.15723   0.00000  Uiso   1.00
O177   O     0.17766   0.29528   0.22348   0.00000  Uiso   1.00
O178   O     0.00973   0.43309   0.91913   0.00000  Uiso   1.00
N179   N     0.43283   0.92087   0.13637   0.00000  Uiso   1.00
N180   N     0.23398   0.32901   0.47096   0.00000  Uiso   1.00
N181   N     0.11431   0.42718   0.96665   0.00000  Uiso   1.00
N182   N     0.34150   0.03900   0.95367   0.00000  Uiso   1.00
N183   N     0.14265   0.44714   0.28826   0.00000  Uiso   1.00
N184   N     0.02297   0.54531   0.78395   0.00000  Uiso   1.00
