data_job_00714
_audit_creation_date              2018-12-19
_audit_creation_method            'Materials Studio'
_symmetry_space_group_name_H-M    'P1'
_symmetry_Int_Tables_number       1
_symmetry_cell_setting            triclinic
loop_
_symmetry_equiv_pos_as_xyz
  x,y,z
_cell_length_a                    21.0379
_cell_length_b                    16.5463
_cell_length_c                    17.6124
_cell_angle_alpha                 90.0000
_cell_angle_beta                  90.0000
_cell_angle_gamma                 90.0000
loop_
_atom_site_label
_atom_site_type_symbol
_atom_site_fract_x
_atom_site_fract_y
_atom_site_fract_z
_atom_site_U_iso_or_equiv
_atom_site_adp_type
_atom_site_occupancy
C1     C     0.66245   0.13445   0.62838   0.00000  Uiso   1.00
C2     C     0.63066   0.10995   0.70271   0.00000  Uiso   1.00
C3     C     0.60540   0.03443   0.71893   0.00000  Uiso   1.00
C4     C     0.57835   0.02411   0.79018   0.00000  Uiso   1.00
C5     C     0.52923   0.97650   0.89752   0.00000  Uiso   1.00
C6     C     0.62603   0.20806   0.59972   0.00000  Uiso   1.00
C7     C     0.59688   0.21502   0.52933   0.00000  Uiso   1.00
C8     C     0.56594   0.28729   0.51388   0.00000  Uiso   1.00
C9     C     0.50966   0.39202   0.46128   0.00000  Uiso   1.00
C10    C     0.72852   0.16482   0.64966   0.00000  Uiso   1.00
C11    C     0.78555   0.13543   0.62125   0.00000  Uiso   1.00
C12    C     0.84091   0.17131   0.64783   0.00000  Uiso   1.00
C13    C     0.94376   0.20889   0.67278   0.00000  Uiso   1.00
C14    C     0.65935   0.25043   0.72608   0.00000  Uiso   1.00
C15    C     0.62898   0.17295   0.75578   0.00000  Uiso   1.00
C16    C     0.60197   0.16274   0.82702   0.00000  Uiso   1.00
C17    C     0.57667   0.08721   0.84335   0.00000  Uiso   1.00
C18    C     0.62435   0.27106   0.65278   0.00000  Uiso   1.00
C19    C     0.59345   0.34334   0.63742   0.00000  Uiso   1.00
C20    C     0.56425   0.35040   0.56703   0.00000  Uiso   1.00
C21    C     0.72684   0.22781   0.70272   0.00000  Uiso   1.00
C22    C     0.78212   0.26375   0.72934   0.00000  Uiso   1.00
C23    C     0.83922   0.23442   0.70099   0.00000  Uiso   1.00
H24    H     0.66376   0.08541   0.58706   0.00000  Uiso   1.00
H25    H     0.60670   0.98569   0.67785   0.00000  Uiso   1.00
H26    H     0.59819   0.16626   0.48827   0.00000  Uiso   1.00
H27    H     0.78683   0.08668   0.58019   0.00000  Uiso   1.00
H28    H     0.54269   0.90293   0.80189   0.00000  Uiso   1.00
H29    H     0.52476   0.28368   0.40216   0.00000  Uiso   1.00
H30    H     0.92255   0.11587   0.59596   0.00000  Uiso   1.00
H31    H     0.65804   0.29948   0.76739   0.00000  Uiso   1.00
H32    H     0.60068   0.21150   0.86808   0.00000  Uiso   1.00
H33    H     0.59216   0.39208   0.67850   0.00000  Uiso   1.00
H34    H     0.78080   0.31250   0.77041   0.00000  Uiso   1.00
H35    H     0.53779   0.08621   0.95629   0.00000  Uiso   1.00
H36    H     0.51986   0.46696   0.55654   0.00000  Uiso   1.00
H37    H     0.91765   0.29915   0.75035   0.00000  Uiso   1.00
O38    O     0.50259   0.93284   0.94206   0.00000  Uiso   1.00
O39    O     0.47907   0.43238   0.41761   0.00000  Uiso   1.00
O40    O     0.00096   0.21222   0.67189   0.00000  Uiso   1.00
N41    N     0.54942   0.95813   0.82442   0.00000  Uiso   1.00
N42    N     0.53265   0.31411   0.45069   0.00000  Uiso   1.00
N43    N     0.90455   0.15724   0.63187   0.00000  Uiso   1.00
N44    N     0.54679   0.05675   0.90750   0.00000  Uiso   1.00
N45    N     0.53001   0.41273   0.53377   0.00000  Uiso   1.00
N46    N     0.90191   0.25586   0.71495   0.00000  Uiso   1.00
C47    C     0.83755   0.86555   0.62838   0.00000  Uiso   1.00
C48    C     0.86934   0.89005   0.70271   0.00000  Uiso   1.00
C49    C     0.89460   0.96557   0.71893   0.00000  Uiso   1.00
C50    C     0.92165   0.97589   0.79018   0.00000  Uiso   1.00
C51    C     0.97077   0.02350   0.89752   0.00000  Uiso   1.00
C52    C     0.87397   0.79194   0.59972   0.00000  Uiso   1.00
C53    C     0.90312   0.78498   0.52933   0.00000  Uiso   1.00
C54    C     0.93406   0.71271   0.51388   0.00000  Uiso   1.00
C55    C     0.99034   0.60798   0.46128   0.00000  Uiso   1.00
C56    C     0.77148   0.83518   0.64966   0.00000  Uiso   1.00
C57    C     0.71445   0.86457   0.62125   0.00000  Uiso   1.00
C58    C     0.65909   0.82869   0.64783   0.00000  Uiso   1.00
C59    C     0.55624   0.79111   0.67278   0.00000  Uiso   1.00
C60    C     0.84065   0.74957   0.72608   0.00000  Uiso   1.00
C61    C     0.87102   0.82705   0.75578   0.00000  Uiso   1.00
C62    C     0.89803   0.83726   0.82702   0.00000  Uiso   1.00
C63    C     0.92333   0.91279   0.84335   0.00000  Uiso   1.00
C64    C     0.87565   0.72894   0.65278   0.00000  Uiso   1.00
C65    C     0.90655   0.65666   0.63742   0.00000  Uiso   1.00
C66    C     0.93575   0.64960   0.56703   0.00000  Uiso   1.00
C67    C     0.77316   0.77219   0.70272   0.00000  Uiso   1.00
C68    C     0.71788   0.73625   0.72934   0.00000  Uiso   1.00
C69    C     0.66078   0.76558   0.70099   0.00000  Uiso   1.00
H70    H     0.83624   0.91459   0.58706   0.00000  Uiso   1.00
H71    H     0.89330   0.01431   0.67785   0.00000  Uiso   1.00
H72    H     0.90181   0.83374   0.48827   0.00000  Uiso   1.00
H73    H     0.71317   0.91332   0.58019   0.00000  Uiso   1.00
H74    H     0.95731   0.09707   0.80189   0.00000  Uiso   1.00
H75    H     0.97524   0.71632   0.40216   0.00000  Uiso   1.00
H76    H     0.57745   0.88413   0.59596   0.00000  Uiso   1.00
H77    H     0.84196   0.70052   0.76739   0.00000  Uiso   1.00
H78    H     0.89932   0.78850   0.86808   0.00000  Uiso   1.00
H79    H     0.90784   0.60792   0.67850   0.00000  Uiso   1.00
H80    H     0.71920   0.68750   0.77041   0.00000  Uiso   1.00
H81    H     0.96221   0.91379   0.95629   0.00000  Uiso   1.00
H82    H     0.98014   0.53304   0.55654   0.00000  Uiso   1.00
H83    H     0.58235   0.70085   0.75035   0.00000  Uiso   1.00
O84    O     0.99741   0.06716   0.94206   0.00000  Uiso   1.00
O85    O     0.02093   0.56762   0.41761   0.00000  Uiso   1.00
O86    O     0.49904   0.78778   0.67189   0.00000  Uiso   1.00
N87    N     0.95058   0.04187   0.82442   0.00000  Uiso   1.00
N88    N     0.96735   0.68589   0.45069   0.00000  Uiso   1.00
N89    N     0.59545   0.84276   0.63187   0.00000  Uiso   1.00
N90    N     0.95321   0.94325   0.90750   0.00000  Uiso   1.00
N91    N     0.96999   0.58727   0.53377   0.00000  Uiso   1.00
N92    N     0.59809   0.74414   0.71495   0.00000  Uiso   1.00
C93    C     0.33755   0.13445   0.87162   0.00000  Uiso   1.00
C94    C     0.36934   0.10995   0.79729   0.00000  Uiso   1.00
C95    C     0.39460   0.03443   0.78107   0.00000  Uiso   1.00
C96    C     0.42165   0.02411   0.70982   0.00000  Uiso   1.00
C97    C     0.47077   0.97650   0.60248   0.00000  Uiso   1.00
C98    C     0.37397   0.20806   0.90028   0.00000  Uiso   1.00
C99    C     0.40312   0.21502   0.97067   0.00000  Uiso   1.00
C100   C     0.43406   0.28729   0.98612   0.00000  Uiso   1.00
C101   C     0.49034   0.39202   0.03872   0.00000  Uiso   1.00
C102   C     0.27148   0.16482   0.85034   0.00000  Uiso   1.00
C103   C     0.21445   0.13543   0.87875   0.00000  Uiso   1.00
C104   C     0.15909   0.17131   0.85217   0.00000  Uiso   1.00
C105   C     0.05624   0.20889   0.82722   0.00000  Uiso   1.00
C106   C     0.34065   0.25043   0.77392   0.00000  Uiso   1.00
C107   C     0.37102   0.17295   0.74422   0.00000  Uiso   1.00
C108   C     0.39803   0.16274   0.67298   0.00000  Uiso   1.00
C109   C     0.42333   0.08721   0.65665   0.00000  Uiso   1.00
C110   C     0.37565   0.27106   0.84722   0.00000  Uiso   1.00
C111   C     0.40655   0.34334   0.86258   0.00000  Uiso   1.00
C112   C     0.43575   0.35040   0.93297   0.00000  Uiso   1.00
C113   C     0.27316   0.22781   0.79728   0.00000  Uiso   1.00
C114   C     0.21788   0.26375   0.77066   0.00000  Uiso   1.00
C115   C     0.16078   0.23442   0.79901   0.00000  Uiso   1.00
H116   H     0.33624   0.08541   0.91294   0.00000  Uiso   1.00
H117   H     0.39330   0.98569   0.82215   0.00000  Uiso   1.00
H118   H     0.40181   0.16626   0.01173   0.00000  Uiso   1.00
H119   H     0.21317   0.08668   0.91981   0.00000  Uiso   1.00
H120   H     0.45731   0.90293   0.69811   0.00000  Uiso   1.00
H121   H     0.47524   0.28368   0.09784   0.00000  Uiso   1.00
H122   H     0.07745   0.11587   0.90404   0.00000  Uiso   1.00
H123   H     0.34196   0.29948   0.73261   0.00000  Uiso   1.00
H124   H     0.39932   0.21150   0.63192   0.00000  Uiso   1.00
H125   H     0.40784   0.39208   0.82150   0.00000  Uiso   1.00
H126   H     0.21920   0.31250   0.72959   0.00000  Uiso   1.00
H127   H     0.46221   0.08621   0.54371   0.00000  Uiso   1.00
H128   H     0.48014   0.46696   0.94346   0.00000  Uiso   1.00
H129   H     0.08235   0.29915   0.74965   0.00000  Uiso   1.00
O130   O     0.49741   0.93284   0.55794   0.00000  Uiso   1.00
O131   O     0.52093   0.43238   0.08239   0.00000  Uiso   1.00
O132   O     0.99904   0.21222   0.82811   0.00000  Uiso   1.00
N133   N     0.45058   0.95813   0.67558   0.00000  Uiso   1.00
N134   N     0.46735   0.31411   0.04931   0.00000  Uiso   1.00
N135   N     0.09545   0.15724   0.86813   0.00000  Uiso   1.00
N136   N     0.45321   0.05675   0.59250   0.00000  Uiso   1.00
N137   N     0.46999   0.41273   0.96623   0.00000  Uiso   1.00
N138   N     0.09809   0.25586   0.78505   0.00000  Uiso   1.00
C139   C     0.16245   0.86555   0.87162   0.00000  Uiso   1.00
C140   C     0.13066   0.89005   0.79729   0.00000  Uiso   1.00
C141   C     0.10540   0.96557   0.78107   0.00000  Uiso   1.00
C142   C     0.07835   0.97589   0.70982   0.00000  Uiso   1.00
C143   C     0.02923   0.02350   0.60248   0.00000  Uiso   1.00
C144   C     0.12603   0.79194   0.90028   0.00000  Uiso   1.00
C145   C     0.09688   0.78498   0.97067   0.00000  Uiso   1.00
C146   C     0.06594   0.71271   0.98612   0.00000  Uiso   1.00
C147   C     0.00966   0.60798   0.03872   0.00000  Uiso   1.00
C148   C     0.22852   0.83518   0.85034   0.00000  Uiso   1.00
C149   C     0.28555   0.86457   0.87875   0.00000  Uiso   1.00
C150   C     0.34091   0.82869   0.85217   0.00000  Uiso   1.00
C151   C     0.44376   0.79111   0.82722   0.00000  Uiso   1.00
C152   C     0.15935   0.74957   0.77392   0.00000  Uiso   1.00
C153   C     0.12898   0.82705   0.74422   0.00000  Uiso   1.00
C154   C     0.10197   0.83726   0.67298   0.00000  Uiso   1.00
C155   C     0.07667   0.91279   0.65665   0.00000  Uiso   1.00
C156   C     0.12435   0.72894   0.84722   0.00000  Uiso   1.00
C157   C     0.09345   0.65666   0.86258   0.00000  Uiso   1.00
C158   C     0.06425   0.64960   0.93297   0.00000  Uiso   1.00
C159   C     0.22684   0.77219   0.79728   0.00000  Uiso   1.00
C160   C     0.28212   0.73625   0.77066   0.00000  Uiso   1.00
C161   C     0.33922   0.76558   0.79901   0.00000  Uiso   1.00
H162   H     0.16376   0.91459   0.91294   0.00000  Uiso   1.00
H163   H     0.10670   0.01431   0.82215   0.00000  Uiso   1.00
H164   H     0.09819   0.83374   0.01173   0.00000  Uiso   1.00
H165   H     0.28683   0.91332   0.91981   0.00000  Uiso   1.00
H166   H     0.04269   0.09707   0.69811   0.00000  Uiso   1.00
H167   H     0.02476   0.71632   0.09784   0.00000  Uiso   1.00
H168   H     0.42255   0.88413   0.90404   0.00000  Uiso   1.00
H169   H     0.15804   0.70052   0.73261   0.00000  Uiso   1.00
H170   H     0.10068   0.78850   0.63192   0.00000  Uiso   1.00
H171   H     0.09216   0.60792   0.82150   0.00000  Uiso   1.00
H172   H     0.28080   0.68750   0.72959   0.00000  Uiso   1.00
H173   H     0.03779   0.91379   0.54371   0.00000  Uiso   1.00
H174   H     0.01986   0.53304   0.94346   0.00000  Uiso   1.00
H175   H     0.41765   0.70085   0.74965   0.00000  Uiso   1.00
O176   O     0.00259   0.06716   0.55794   0.00000  Uiso   1.00
O177   O     0.97907   0.56762   0.08239   0.00000  Uiso   1.00
O178   O     0.50096   0.78778   0.82811   0.00000  Uiso   1.00
N179   N     0.04942   0.04187   0.67558   0.00000  Uiso   1.00
N180   N     0.03265   0.68589   0.04931   0.00000  Uiso   1.00
N181   N     0.40455   0.84276   0.86813   0.00000  Uiso   1.00
N182   N     0.04679   0.94325   0.59250   0.00000  Uiso   1.00
N183   N     0.03001   0.58727   0.96623   0.00000  Uiso   1.00
N184   N     0.40191   0.74414   0.78505   0.00000  Uiso   1.00
C185   C     0.33755   0.86555   0.37162   0.00000  Uiso   1.00
C186   C     0.36934   0.89005   0.29729   0.00000  Uiso   1.00
C187   C     0.39460   0.96557   0.28107   0.00000  Uiso   1.00
C188   C     0.42165   0.97589   0.20982   0.00000  Uiso   1.00
C189   C     0.47077   0.02350   0.10248   0.00000  Uiso   1.00
C190   C     0.37397   0.79194   0.40028   0.00000  Uiso   1.00
C191   C     0.40312   0.78498   0.47067   0.00000  Uiso   1.00
C192   C     0.43406   0.71271   0.48612   0.00000  Uiso   1.00
C193   C     0.49034   0.60798   0.53872   0.00000  Uiso   1.00
C194   C     0.27148   0.83518   0.35034   0.00000  Uiso   1.00
C195   C     0.21445   0.86457   0.37875   0.00000  Uiso   1.00
C196   C     0.15909   0.82869   0.35217   0.00000  Uiso   1.00
C197   C     0.05624   0.79111   0.32722   0.00000  Uiso   1.00
C198   C     0.34065   0.74957   0.27392   0.00000  Uiso   1.00
C199   C     0.37102   0.82705   0.24422   0.00000  Uiso   1.00
C200   C     0.39803   0.83726   0.17298   0.00000  Uiso   1.00
C201   C     0.42333   0.91279   0.15665   0.00000  Uiso   1.00
C202   C     0.37565   0.72894   0.34722   0.00000  Uiso   1.00
C203   C     0.40655   0.65666   0.36258   0.00000  Uiso   1.00
C204   C     0.43575   0.64960   0.43297   0.00000  Uiso   1.00
C205   C     0.27316   0.77219   0.29728   0.00000  Uiso   1.00
C206   C     0.21788   0.73625   0.27066   0.00000  Uiso   1.00
C207   C     0.16078   0.76558   0.29901   0.00000  Uiso   1.00
H208   H     0.33624   0.91459   0.41294   0.00000  Uiso   1.00
H209   H     0.39330   0.01431   0.32215   0.00000  Uiso   1.00
H210   H     0.40181   0.83374   0.51173   0.00000  Uiso   1.00
H211   H     0.21317   0.91332   0.41981   0.00000  Uiso   1.00
H212   H     0.45731   0.09707   0.19811   0.00000  Uiso   1.00
H213   H     0.47524   0.71632   0.59784   0.00000  Uiso   1.00
H214   H     0.07745   0.88413   0.40404   0.00000  Uiso   1.00
H215   H     0.34196   0.70052   0.23261   0.00000  Uiso   1.00
H216   H     0.39932   0.78850   0.13192   0.00000  Uiso   1.00
H217   H     0.40784   0.60792   0.32150   0.00000  Uiso   1.00
H218   H     0.21920   0.68750   0.22959   0.00000  Uiso   1.00
H219   H     0.46221   0.91379   0.04371   0.00000  Uiso   1.00
H220   H     0.48014   0.53304   0.44346   0.00000  Uiso   1.00
H221   H     0.08235   0.70085   0.24965   0.00000  Uiso   1.00
O222   O     0.49741   0.06716   0.05794   0.00000  Uiso   1.00
O223   O     0.52093   0.56762   0.58239   0.00000  Uiso   1.00
O224   O     0.99904   0.78778   0.32811   0.00000  Uiso   1.00
N225   N     0.45058   0.04187   0.17558   0.00000  Uiso   1.00
N226   N     0.46735   0.68589   0.54931   0.00000  Uiso   1.00
N227   N     0.09545   0.84276   0.36813   0.00000  Uiso   1.00
N228   N     0.45321   0.94325   0.09250   0.00000  Uiso   1.00
N229   N     0.46999   0.58727   0.46623   0.00000  Uiso   1.00
N230   N     0.09809   0.74414   0.28505   0.00000  Uiso   1.00
C231   C     0.16245   0.13445   0.37162   0.00000  Uiso   1.00
C232   C     0.13066   0.10995   0.29729   0.00000  Uiso   1.00
C233   C     0.10540   0.03443   0.28107   0.00000  Uiso   1.00
C234   C     0.07835   0.02411   0.20982   0.00000  Uiso   1.00
C235   C     0.02923   0.97650   0.10248   0.00000  Uiso   1.00
C236   C     0.12603   0.20806   0.40028   0.00000  Uiso   1.00
C237   C     0.09688   0.21502   0.47067   0.00000  Uiso   1.00
C238   C     0.06594   0.28729   0.48612   0.00000  Uiso   1.00
C239   C     0.00966   0.39202   0.53872   0.00000  Uiso   1.00
C240   C     0.22852   0.16482   0.35034   0.00000  Uiso   1.00
C241   C     0.28555   0.13543   0.37875   0.00000  Uiso   1.00
C242   C     0.34091   0.17131   0.35217   0.00000  Uiso   1.00
C243   C     0.44376   0.20889   0.32722   0.00000  Uiso   1.00
C244   C     0.15935   0.25043   0.27392   0.00000  Uiso   1.00
C245   C     0.12898   0.17295   0.24422   0.00000  Uiso   1.00
C246   C     0.10197   0.16274   0.17298   0.00000  Uiso   1.00
C247   C     0.07667   0.08721   0.15665   0.00000  Uiso   1.00
C248   C     0.12435   0.27106   0.34722   0.00000  Uiso   1.00
C249   C     0.09345   0.34334   0.36258   0.00000  Uiso   1.00
C250   C     0.06425   0.35040   0.43297   0.00000  Uiso   1.00
C251   C     0.22684   0.22781   0.29728   0.00000  Uiso   1.00
C252   C     0.28212   0.26375   0.27066   0.00000  Uiso   1.00
C253   C     0.33922   0.23442   0.29901   0.00000  Uiso   1.00
H254   H     0.16376   0.08541   0.41294   0.00000  Uiso   1.00
H255   H     0.10670   0.98569   0.32215   0.00000  Uiso   1.00
H256   H     0.09819   0.16626   0.51173   0.00000  Uiso   1.00
H257   H     0.28683   0.08668   0.41981   0.00000  Uiso   1.00
H258   H     0.04269   0.90293   0.19811   0.00000  Uiso   1.00
H259   H     0.02476   0.28368   0.59784   0.00000  Uiso   1.00
H260   H     0.42255   0.11587   0.40404   0.00000  Uiso   1.00
H261   H     0.15804   0.29948   0.23261   0.00000  Uiso   1.00
H262   H     0.10068   0.21150   0.13192   0.00000  Uiso   1.00
H263   H     0.09216   0.39208   0.32150   0.00000  Uiso   1.00
H264   H     0.28080   0.31250   0.22959   0.00000  Uiso   1.00
H265   H     0.03779   0.08621   0.04371   0.00000  Uiso   1.00
H266   H     0.01986   0.46696   0.44346   0.00000  Uiso   1.00
H267   H     0.41765   0.29915   0.24965   0.00000  Uiso   1.00
O268   O     0.00259   0.93284   0.05794   0.00000  Uiso   1.00
O269   O     0.97907   0.43238   0.58239   0.00000  Uiso   1.00
O270   O     0.50096   0.21222   0.32811   0.00000  Uiso   1.00
N271   N     0.04942   0.95813   0.17558   0.00000  Uiso   1.00
N272   N     0.03265   0.31411   0.54931   0.00000  Uiso   1.00
N273   N     0.40455   0.15724   0.36813   0.00000  Uiso   1.00
N274   N     0.04679   0.05675   0.09250   0.00000  Uiso   1.00
N275   N     0.03001   0.41273   0.46623   0.00000  Uiso   1.00
N276   N     0.40191   0.25586   0.28505   0.00000  Uiso   1.00
C277   C     0.66245   0.86555   0.12838   0.00000  Uiso   1.00
C278   C     0.63066   0.89005   0.20271   0.00000  Uiso   1.00
C279   C     0.60540   0.96557   0.21893   0.00000  Uiso   1.00
C280   C     0.57835   0.97589   0.29018   0.00000  Uiso   1.00
C281   C     0.52923   0.02350   0.39752   0.00000  Uiso   1.00
C282   C     0.62603   0.79194   0.09972   0.00000  Uiso   1.00
C283   C     0.59688   0.78498   0.02933   0.00000  Uiso   1.00
C284   C     0.56594   0.71271   0.01388   0.00000  Uiso   1.00
C285   C     0.50966   0.60798   0.96128   0.00000  Uiso   1.00
C286   C     0.72852   0.83518   0.14966   0.00000  Uiso   1.00
C287   C     0.78555   0.86457   0.12125   0.00000  Uiso   1.00
C288   C     0.84091   0.82869   0.14783   0.00000  Uiso   1.00
C289   C     0.94376   0.79111   0.17278   0.00000  Uiso   1.00
C290   C     0.65935   0.74957   0.22608   0.00000  Uiso   1.00
C291   C     0.62898   0.82705   0.25578   0.00000  Uiso   1.00
C292   C     0.60197   0.83726   0.32702   0.00000  Uiso   1.00
C293   C     0.57667   0.91279   0.34335   0.00000  Uiso   1.00
C294   C     0.62435   0.72894   0.15278   0.00000  Uiso   1.00
C295   C     0.59345   0.65666   0.13742   0.00000  Uiso   1.00
C296   C     0.56425   0.64960   0.06703   0.00000  Uiso   1.00
C297   C     0.72684   0.77219   0.20272   0.00000  Uiso   1.00
C298   C     0.78212   0.73625   0.22934   0.00000  Uiso   1.00
C299   C     0.83922   0.76558   0.20099   0.00000  Uiso   1.00
H300   H     0.66376   0.91459   0.08706   0.00000  Uiso   1.00
H301   H     0.60670   0.01431   0.17785   0.00000  Uiso   1.00
H302   H     0.59819   0.83374   0.98827   0.00000  Uiso   1.00
H303   H     0.78683   0.91332   0.08019   0.00000  Uiso   1.00
H304   H     0.54269   0.09707   0.30189   0.00000  Uiso   1.00
H305   H     0.52476   0.71632   0.90216   0.00000  Uiso   1.00
H306   H     0.92255   0.88413   0.09596   0.00000  Uiso   1.00
H307   H     0.65804   0.70052   0.26739   0.00000  Uiso   1.00
H308   H     0.60068   0.78850   0.36808   0.00000  Uiso   1.00
H309   H     0.59216   0.60792   0.17850   0.00000  Uiso   1.00
H310   H     0.78080   0.68750   0.27041   0.00000  Uiso   1.00
H311   H     0.53779   0.91379   0.45629   0.00000  Uiso   1.00
H312   H     0.51986   0.53304   0.05654   0.00000  Uiso   1.00
H313   H     0.91765   0.70085   0.25035   0.00000  Uiso   1.00
O314   O     0.50259   0.06716   0.44206   0.00000  Uiso   1.00
O315   O     0.47907   0.56762   0.91761   0.00000  Uiso   1.00
O316   O     0.00096   0.78778   0.17189   0.00000  Uiso   1.00
N317   N     0.54942   0.04187   0.32442   0.00000  Uiso   1.00
N318   N     0.53265   0.68589   0.95069   0.00000  Uiso   1.00
N319   N     0.90455   0.84276   0.13187   0.00000  Uiso   1.00
N320   N     0.54679   0.94325   0.40750   0.00000  Uiso   1.00
N321   N     0.53001   0.58727   0.03377   0.00000  Uiso   1.00
N322   N     0.90191   0.74414   0.21495   0.00000  Uiso   1.00
C323   C     0.83755   0.13445   0.12838   0.00000  Uiso   1.00
C324   C     0.86934   0.10995   0.20271   0.00000  Uiso   1.00
C325   C     0.89460   0.03443   0.21893   0.00000  Uiso   1.00
C326   C     0.92165   0.02411   0.29018   0.00000  Uiso   1.00
C327   C     0.97077   0.97650   0.39752   0.00000  Uiso   1.00
C328   C     0.87397   0.20806   0.09972   0.00000  Uiso   1.00
C329   C     0.90312   0.21502   0.02933   0.00000  Uiso   1.00
C330   C     0.93406   0.28729   0.01388   0.00000  Uiso   1.00
C331   C     0.99034   0.39202   0.96128   0.00000  Uiso   1.00
C332   C     0.77148   0.16482   0.14966   0.00000  Uiso   1.00
C333   C     0.71445   0.13543   0.12125   0.00000  Uiso   1.00
C334   C     0.65909   0.17131   0.14783   0.00000  Uiso   1.00
C335   C     0.55624   0.20889   0.17278   0.00000  Uiso   1.00
C336   C     0.84065   0.25043   0.22608   0.00000  Uiso   1.00
C337   C     0.87102   0.17295   0.25578   0.00000  Uiso   1.00
C338   C     0.89803   0.16274   0.32702   0.00000  Uiso   1.00
C339   C     0.92333   0.08721   0.34335   0.00000  Uiso   1.00
C340   C     0.87565   0.27106   0.15278   0.00000  Uiso   1.00
C341   C     0.90655   0.34334   0.13742   0.00000  Uiso   1.00
C342   C     0.93575   0.35040   0.06703   0.00000  Uiso   1.00
C343   C     0.77316   0.22781   0.20272   0.00000  Uiso   1.00
C344   C     0.71788   0.26375   0.22934   0.00000  Uiso   1.00
C345   C     0.66078   0.23442   0.20099   0.00000  Uiso   1.00
H346   H     0.83624   0.08541   0.08706   0.00000  Uiso   1.00
H347   H     0.89330   0.98569   0.17785   0.00000  Uiso   1.00
H348   H     0.90181   0.16626   0.98827   0.00000  Uiso   1.00
H349   H     0.71317   0.08668   0.08019   0.00000  Uiso   1.00
H350   H     0.95731   0.90293   0.30189   0.00000  Uiso   1.00
H351   H     0.97524   0.28368   0.90216   0.00000  Uiso   1.00
H352   H     0.57745   0.11587   0.09596   0.00000  Uiso   1.00
H353   H     0.84196   0.29948   0.26739   0.00000  Uiso   1.00
H354   H     0.89932   0.21150   0.36808   0.00000  Uiso   1.00
H355   H     0.90784   0.39208   0.17850   0.00000  Uiso   1.00
H356   H     0.71920   0.31250   0.27041   0.00000  Uiso   1.00
H357   H     0.96221   0.08621   0.45629   0.00000  Uiso   1.00
H358   H     0.98014   0.46696   0.05654   0.00000  Uiso   1.00
H359   H     0.58235   0.29915   0.25035   0.00000  Uiso   1.00
O360   O     0.99741   0.93284   0.44206   0.00000  Uiso   1.00
O361   O     0.02093   0.43238   0.91761   0.00000  Uiso   1.00
O362   O     0.49904   0.21222   0.17189   0.00000  Uiso   1.00
N363   N     0.95058   0.95813   0.32442   0.00000  Uiso   1.00
N364   N     0.96735   0.31411   0.95069   0.00000  Uiso   1.00
N365   N     0.59545   0.15724   0.13187   0.00000  Uiso   1.00
N366   N     0.95321   0.05675   0.40750   0.00000  Uiso   1.00
N367   N     0.96999   0.41273   0.03377   0.00000  Uiso   1.00
N368   N     0.59809   0.25586   0.21495   0.00000  Uiso   1.00
