data_job_03668
_audit_creation_date              2018-12-19
_audit_creation_method            'Materials Studio'
_symmetry_space_group_name_H-M    'P1'
_symmetry_Int_Tables_number       1
_symmetry_cell_setting            triclinic
loop_
_symmetry_equiv_pos_as_xyz
  x,y,z
_cell_length_a                    9.0946
_cell_length_b                    12.0806
_cell_length_c                    17.0466
_cell_angle_alpha                 87.4522
_cell_angle_beta                  78.0843
_cell_angle_gamma                 91.0570
loop_
_atom_site_label
_atom_site_type_symbol
_atom_site_fract_x
_atom_site_fract_y
_atom_site_fract_z
_atom_site_U_iso_or_equiv
_atom_site_adp_type
_atom_site_occupancy
C1     C     0.59039   0.14758   0.71939   0.00000  Uiso   1.00
C2     C     0.61045   0.04254   0.76864   0.00000  Uiso   1.00
C3     C     0.74479   0.98912   0.76690   0.00000  Uiso   1.00
C4     C     0.73965   0.89413   0.81644   0.00000  Uiso   1.00
C5     C     0.79128   0.73709   0.88535   0.00000  Uiso   1.00
C6     C     0.47069   0.11873   0.67222   0.00000  Uiso   1.00
C7     C     0.48751   0.12939   0.58943   0.00000  Uiso   1.00
C8     C     0.36471   0.09856   0.55780   0.00000  Uiso   1.00
C9     C     0.19932   0.05988   0.47704   0.00000  Uiso   1.00
C10    C     0.52006   0.23096   0.77971   0.00000  Uiso   1.00
C11    C     0.57838   0.33600   0.78727   0.00000  Uiso   1.00
C12    C     0.49713   0.39966   0.84614   0.00000  Uiso   1.00
C13    C     0.40840   0.53524   0.93226   0.00000  Uiso   1.00
C14    C     0.34238   0.07388   0.81046   0.00000  Uiso   1.00
C15    C     0.47573   0.00251   0.81810   0.00000  Uiso   1.00
C16    C     0.47039   0.90758   0.86766   0.00000  Uiso   1.00
C17    C     0.60470   0.85403   0.86599   0.00000  Uiso   1.00
C18    C     0.33598   0.07870   0.72168   0.00000  Uiso   1.00
C19    C     0.21312   0.04785   0.69018   0.00000  Uiso   1.00
C20    C     0.22976   0.05845   0.60736   0.00000  Uiso   1.00
C21    C     0.38535   0.19093   0.82918   0.00000  Uiso   1.00
C22    C     0.30399   0.25445   0.88803   0.00000  Uiso   1.00
C23    C     0.36217   0.35956   0.89569   0.00000  Uiso   1.00
H24    H     0.69526   0.17875   0.68088   0.00000  Uiso   1.00
H25    H     0.84901   0.02012   0.72861   0.00000  Uiso   1.00
H26    H     0.59177   0.16038   0.55116   0.00000  Uiso   1.00
H27    H     0.68263   0.36695   0.74899   0.00000  Uiso   1.00
H28    H     0.96006   0.82658   0.80332   0.00000  Uiso   1.00
H29    H     0.41763   0.12236   0.42917   0.00000  Uiso   1.00
H30    H     0.60922   0.55795   0.84631   0.00000  Uiso   1.00
H31    H     0.23749   0.04271   0.84897   0.00000  Uiso   1.00
H32    H     0.36613   0.87662   0.90593   0.00000  Uiso   1.00
H33    H     0.10889   0.01688   0.72848   0.00000  Uiso   1.00
H34    H     0.19975   0.22344   0.92630   0.00000  Uiso   1.00
H35    H     0.56813   0.71010   0.94723   0.00000  Uiso   1.00
H36    H     0.02570   0.00589   0.57308   0.00000  Uiso   1.00
H37    H     0.21730   0.44148   0.99023   0.00000  Uiso   1.00
O38    O     0.85697   0.66151   0.90969   0.00000  Uiso   1.00
O39    O     0.14532   0.04959   0.41882   0.00000  Uiso   1.00
O40    O     0.39669   0.62107   0.96611   0.00000  Uiso   1.00
N41    N     0.85017   0.82197   0.82938   0.00000  Uiso   1.00
N42    N     0.34304   0.09850   0.47957   0.00000  Uiso   1.00
N43    N     0.52214   0.50575   0.86955   0.00000  Uiso   1.00
N44    N     0.63928   0.75930   0.90682   0.00000  Uiso   1.00
N45    N     0.13215   0.03582   0.55701   0.00000  Uiso   1.00
N46    N     0.31125   0.44307   0.94699   0.00000  Uiso   1.00
C47    C     0.40961   0.85242   0.28061   0.00000  Uiso   1.00
C48    C     0.38955   0.95746   0.23136   0.00000  Uiso   1.00
C49    C     0.25521   0.01088   0.23310   0.00000  Uiso   1.00
C50    C     0.26035   0.10587   0.18356   0.00000  Uiso   1.00
C51    C     0.20872   0.26291   0.11465   0.00000  Uiso   1.00
C52    C     0.52931   0.88127   0.32778   0.00000  Uiso   1.00
C53    C     0.51249   0.87061   0.41057   0.00000  Uiso   1.00
C54    C     0.63529   0.90144   0.44220   0.00000  Uiso   1.00
C55    C     0.80068   0.94012   0.52296   0.00000  Uiso   1.00
C56    C     0.47994   0.76904   0.22029   0.00000  Uiso   1.00
C57    C     0.42162   0.66400   0.21273   0.00000  Uiso   1.00
C58    C     0.50287   0.60034   0.15386   0.00000  Uiso   1.00
C59    C     0.59160   0.46476   0.06774   0.00000  Uiso   1.00
C60    C     0.65762   0.92612   0.18954   0.00000  Uiso   1.00
C61    C     0.52427   0.99749   0.18190   0.00000  Uiso   1.00
C62    C     0.52961   0.09242   0.13234   0.00000  Uiso   1.00
C63    C     0.39530   0.14597   0.13401   0.00000  Uiso   1.00
C64    C     0.66402   0.92130   0.27832   0.00000  Uiso   1.00
C65    C     0.78688   0.95215   0.30982   0.00000  Uiso   1.00
C66    C     0.77024   0.94155   0.39264   0.00000  Uiso   1.00
C67    C     0.61465   0.80907   0.17082   0.00000  Uiso   1.00
C68    C     0.69601   0.74555   0.11197   0.00000  Uiso   1.00
C69    C     0.63783   0.64044   0.10431   0.00000  Uiso   1.00
H70    H     0.30474   0.82125   0.31912   0.00000  Uiso   1.00
H71    H     0.15099   0.97988   0.27139   0.00000  Uiso   1.00
H72    H     0.40823   0.83962   0.44884   0.00000  Uiso   1.00
H73    H     0.31737   0.63305   0.25101   0.00000  Uiso   1.00
H74    H     0.03994   0.17342   0.19668   0.00000  Uiso   1.00
H75    H     0.58237   0.87764   0.57083   0.00000  Uiso   1.00
H76    H     0.39078   0.44205   0.15369   0.00000  Uiso   1.00
H77    H     0.76251   0.95729   0.15103   0.00000  Uiso   1.00
H78    H     0.63387   0.12338   0.09407   0.00000  Uiso   1.00
H79    H     0.89111   0.98312   0.27152   0.00000  Uiso   1.00
H80    H     0.80025   0.77656   0.07370   0.00000  Uiso   1.00
H81    H     0.43187   0.28990   0.05277   0.00000  Uiso   1.00
H82    H     0.97430   0.99411   0.42692   0.00000  Uiso   1.00
H83    H     0.78270   0.55852   0.00977   0.00000  Uiso   1.00
O84    O     0.14303   0.33849   0.09031   0.00000  Uiso   1.00
O85    O     0.85468   0.95041   0.58118   0.00000  Uiso   1.00
O86    O     0.60331   0.37893   0.03389   0.00000  Uiso   1.00
N87    N     0.14983   0.17803   0.17062   0.00000  Uiso   1.00
N88    N     0.65696   0.90150   0.52043   0.00000  Uiso   1.00
N89    N     0.47786   0.49425   0.13045   0.00000  Uiso   1.00
N90    N     0.36072   0.24070   0.09318   0.00000  Uiso   1.00
N91    N     0.86785   0.96418   0.44299   0.00000  Uiso   1.00
N92    N     0.68875   0.55693   0.05301   0.00000  Uiso   1.00
