data_job_04873
_audit_creation_date              2018-12-19
_audit_creation_method            'Materials Studio'
_symmetry_space_group_name_H-M    'P1'
_symmetry_Int_Tables_number       1
_symmetry_cell_setting            triclinic
loop_
_symmetry_equiv_pos_as_xyz
  x,y,z
_cell_length_a                    20.2216
_cell_length_b                    20.2216
_cell_length_c                    9.5983
_cell_angle_alpha                 90.0000
_cell_angle_beta                  90.0000
_cell_angle_gamma                 120.0000
loop_
_atom_site_label
_atom_site_type_symbol
_atom_site_fract_x
_atom_site_fract_y
_atom_site_fract_z
_atom_site_U_iso_or_equiv
_atom_site_adp_type
_atom_site_occupancy
C1     C     0.68012   0.78907   0.69389   0.00000  Uiso   1.00
C2     C     0.65235   0.70491   0.66645   0.00000  Uiso   1.00
C3     C     0.68727   0.67667   0.57943   0.00000  Uiso   1.00
C4     C     0.65296   0.59784   0.56829   0.00000  Uiso   1.00
C5     C     0.61998   0.47458   0.51447   0.00000  Uiso   1.00
C6     C     0.61365   0.80119   0.65641   0.00000  Uiso   1.00
C7     C     0.61605   0.85390   0.56097   0.00000  Uiso   1.00
C8     C     0.54916   0.85613   0.54140   0.00000  Uiso   1.00
C9     C     0.45612   0.88238   0.47208   0.00000  Uiso   1.00
C10    C     0.69003   0.79960   0.85129   0.00000  Uiso   1.00
C11    C     0.75665   0.85100   0.91971   0.00000  Uiso   1.00
C12    C     0.75406   0.85190   0.06422   0.00000  Uiso   1.00
C13    C     0.77962   0.87569   0.29747   0.00000  Uiso   1.00
C14    C     0.55707   0.69930   0.82885   0.00000  Uiso   1.00
C15    C     0.58551   0.65615   0.73975   0.00000  Uiso   1.00
C16    C     0.55113   0.57735   0.72874   0.00000  Uiso   1.00
C17    C     0.58601   0.54899   0.64173   0.00000  Uiso   1.00
C18    C     0.54682   0.75243   0.72971   0.00000  Uiso   1.00
C19    C     0.47991   0.75458   0.71028   0.00000  Uiso   1.00
C20    C     0.48220   0.80728   0.61484   0.00000  Uiso   1.00
C21    C     0.62320   0.75084   0.92460   0.00000  Uiso   1.00
C22    C     0.62051   0.75167   0.06902   0.00000  Uiso   1.00
C23    C     0.68711   0.80306   0.13766   0.00000  Uiso   1.00
H24    H     0.73215   0.82703   0.63682   0.00000  Uiso   1.00
H25    H     0.73899   0.71442   0.52271   0.00000  Uiso   1.00
H26    H     0.66778   0.89163   0.50427   0.00000  Uiso   1.00
H27    H     0.80836   0.88872   0.86296   0.00000  Uiso   1.00
H28    H     0.71709   0.56806   0.42849   0.00000  Uiso   1.00
H29    H     0.56694   0.94174   0.38964   0.00000  Uiso   1.00
H30    H     0.86338   0.93561   0.14599   0.00000  Uiso   1.00
H31    H     0.50503   0.66134   0.88592   0.00000  Uiso   1.00
H32    H     0.49941   0.53963   0.78548   0.00000  Uiso   1.00
H33    H     0.42820   0.71685   0.76703   0.00000  Uiso   1.00
H34    H     0.56878   0.71393   0.12572   0.00000  Uiso   1.00
H35    H     0.52263   0.42620   0.64175   0.00000  Uiso   1.00
H36    H     0.37249   0.79988   0.60291   0.00000  Uiso   1.00
H37    H     0.66892   0.79374   0.35926   0.00000  Uiso   1.00
O38    O     0.62025   0.42006   0.46452   0.00000  Uiso   1.00
O39    O     0.42326   0.91032   0.41357   0.00000  Uiso   1.00
O40    O     0.81218   0.90227   0.40588   0.00000  Uiso   1.00
N41    N     0.67210   0.55138   0.49249   0.00000  Uiso   1.00
N42    N     0.53172   0.90074   0.45615   0.00000  Uiso   1.00
N43    N     0.80886   0.89502   0.16327   0.00000  Uiso   1.00
N44    N     0.56747   0.47504   0.60724   0.00000  Uiso   1.00
N45    N     0.42709   0.82440   0.57091   0.00000  Uiso   1.00
N46    N     0.70422   0.81868   0.27803   0.00000  Uiso   1.00
C47    C     0.21093   0.89105   0.69389   0.00000  Uiso   1.00
C48    C     0.29509   0.94744   0.66645   0.00000  Uiso   1.00
C49    C     0.32333   0.01061   0.57943   0.00000  Uiso   1.00
C50    C     0.40216   0.05512   0.56829   0.00000  Uiso   1.00
C51    C     0.52542   0.14540   0.51447   0.00000  Uiso   1.00
C52    C     0.19881   0.81246   0.65641   0.00000  Uiso   1.00
C53    C     0.14610   0.76215   0.56097   0.00000  Uiso   1.00
C54    C     0.14387   0.69303   0.54140   0.00000  Uiso   1.00
C55    C     0.11762   0.57374   0.47208   0.00000  Uiso   1.00
C56    C     0.20040   0.89043   0.85129   0.00000  Uiso   1.00
C57    C     0.14900   0.90565   0.91971   0.00000  Uiso   1.00
C58    C     0.14810   0.90216   0.06422   0.00000  Uiso   1.00
C59    C     0.12431   0.90393   0.29747   0.00000  Uiso   1.00
C60    C     0.30070   0.85777   0.82885   0.00000  Uiso   1.00
C61    C     0.34385   0.92936   0.73975   0.00000  Uiso   1.00
C62    C     0.42265   0.97379   0.72874   0.00000  Uiso   1.00
C63    C     0.45101   0.03701   0.64173   0.00000  Uiso   1.00
C64    C     0.24757   0.79438   0.72971   0.00000  Uiso   1.00
C65    C     0.24542   0.72532   0.71028   0.00000  Uiso   1.00
C66    C     0.19272   0.67492   0.61484   0.00000  Uiso   1.00
C67    C     0.24916   0.87236   0.92460   0.00000  Uiso   1.00
C68    C     0.24833   0.86883   0.06902   0.00000  Uiso   1.00
C69    C     0.19694   0.88405   0.13766   0.00000  Uiso   1.00
H70    H     0.17297   0.90512   0.63682   0.00000  Uiso   1.00
H71    H     0.28558   0.02457   0.52271   0.00000  Uiso   1.00
H72    H     0.10837   0.77615   0.50427   0.00000  Uiso   1.00
H73    H     0.11128   0.91964   0.86296   0.00000  Uiso   1.00
H74    H     0.43194   0.14902   0.42849   0.00000  Uiso   1.00
H75    H     0.05826   0.62520   0.38964   0.00000  Uiso   1.00
H76    H     0.06439   0.92777   0.14599   0.00000  Uiso   1.00
H77    H     0.33866   0.84369   0.88592   0.00000  Uiso   1.00
H78    H     0.46037   0.95978   0.78548   0.00000  Uiso   1.00
H79    H     0.28315   0.71135   0.76703   0.00000  Uiso   1.00
H80    H     0.28607   0.85484   0.12572   0.00000  Uiso   1.00
H81    H     0.57380   0.09643   0.64175   0.00000  Uiso   1.00
H82    H     0.20012   0.57260   0.60291   0.00000  Uiso   1.00
H83    H     0.20626   0.87518   0.35926   0.00000  Uiso   1.00
O84    O     0.57994   0.20019   0.46452   0.00000  Uiso   1.00
O85    O     0.08968   0.51294   0.41357   0.00000  Uiso   1.00
O86    O     0.09773   0.90992   0.40588   0.00000  Uiso   1.00
N87    N     0.44862   0.12072   0.49249   0.00000  Uiso   1.00
N88    N     0.09926   0.63098   0.45615   0.00000  Uiso   1.00
N89    N     0.10498   0.91384   0.16327   0.00000  Uiso   1.00
N90    N     0.52496   0.09243   0.60724   0.00000  Uiso   1.00
N91    N     0.17560   0.60268   0.57091   0.00000  Uiso   1.00
N92    N     0.18132   0.88554   0.27803   0.00000  Uiso   1.00
C93    C     0.10895   0.31988   0.69389   0.00000  Uiso   1.00
C94    C     0.05256   0.34765   0.66645   0.00000  Uiso   1.00
C95    C     0.98939   0.31273   0.57943   0.00000  Uiso   1.00
C96    C     0.94488   0.34704   0.56829   0.00000  Uiso   1.00
C97    C     0.85460   0.38002   0.51447   0.00000  Uiso   1.00
C98    C     0.18754   0.38635   0.65641   0.00000  Uiso   1.00
C99    C     0.23785   0.38395   0.56097   0.00000  Uiso   1.00
C100   C     0.30697   0.45084   0.54140   0.00000  Uiso   1.00
C101   C     0.42626   0.54388   0.47208   0.00000  Uiso   1.00
C102   C     0.10957   0.30997   0.85129   0.00000  Uiso   1.00
C103   C     0.09435   0.24335   0.91971   0.00000  Uiso   1.00
C104   C     0.09784   0.24594   0.06422   0.00000  Uiso   1.00
C105   C     0.09607   0.22038   0.29747   0.00000  Uiso   1.00
C106   C     0.14223   0.44293   0.82885   0.00000  Uiso   1.00
C107   C     0.07064   0.41449   0.73975   0.00000  Uiso   1.00
C108   C     0.02621   0.44887   0.72874   0.00000  Uiso   1.00
C109   C     0.96299   0.41399   0.64173   0.00000  Uiso   1.00
C110   C     0.20562   0.45318   0.72971   0.00000  Uiso   1.00
C111   C     0.27468   0.52009   0.71028   0.00000  Uiso   1.00
C112   C     0.32508   0.51780   0.61484   0.00000  Uiso   1.00
C113   C     0.12764   0.37680   0.92460   0.00000  Uiso   1.00
C114   C     0.13117   0.37949   0.06902   0.00000  Uiso   1.00
C115   C     0.11595   0.31289   0.13766   0.00000  Uiso   1.00
H116   H     0.09488   0.26785   0.63682   0.00000  Uiso   1.00
H117   H     0.97543   0.26101   0.52271   0.00000  Uiso   1.00
H118   H     0.22385   0.33222   0.50427   0.00000  Uiso   1.00
H119   H     0.08036   0.19164   0.86296   0.00000  Uiso   1.00
H120   H     0.85098   0.28291   0.42849   0.00000  Uiso   1.00
H121   H     0.37480   0.43306   0.38964   0.00000  Uiso   1.00
H122   H     0.07223   0.13662   0.14599   0.00000  Uiso   1.00
H123   H     0.15631   0.49497   0.88592   0.00000  Uiso   1.00
H124   H     0.04022   0.50059   0.78548   0.00000  Uiso   1.00
H125   H     0.28865   0.57180   0.76703   0.00000  Uiso   1.00
H126   H     0.14516   0.43122   0.12572   0.00000  Uiso   1.00
H127   H     0.90357   0.47737   0.64175   0.00000  Uiso   1.00
H128   H     0.42740   0.62751   0.60291   0.00000  Uiso   1.00
H129   H     0.12482   0.33108   0.35926   0.00000  Uiso   1.00
O130   O     0.79981   0.37975   0.46452   0.00000  Uiso   1.00
O131   O     0.48706   0.57674   0.41357   0.00000  Uiso   1.00
O132   O     0.09008   0.18782   0.40588   0.00000  Uiso   1.00
N133   N     0.87928   0.32790   0.49249   0.00000  Uiso   1.00
N134   N     0.36902   0.46828   0.45615   0.00000  Uiso   1.00
N135   N     0.08616   0.19114   0.16327   0.00000  Uiso   1.00
N136   N     0.90757   0.43253   0.60724   0.00000  Uiso   1.00
N137   N     0.39732   0.57291   0.57091   0.00000  Uiso   1.00
N138   N     0.11446   0.29578   0.27803   0.00000  Uiso   1.00
C139   C     0.31988   0.21093   0.19389   0.00000  Uiso   1.00
C140   C     0.34765   0.29509   0.16645   0.00000  Uiso   1.00
C141   C     0.31273   0.32333   0.07943   0.00000  Uiso   1.00
C142   C     0.34704   0.40216   0.06829   0.00000  Uiso   1.00
C143   C     0.38002   0.52542   0.01447   0.00000  Uiso   1.00
C144   C     0.38635   0.19881   0.15641   0.00000  Uiso   1.00
C145   C     0.38395   0.14610   0.06097   0.00000  Uiso   1.00
C146   C     0.45084   0.14387   0.04140   0.00000  Uiso   1.00
C147   C     0.54388   0.11762   0.97208   0.00000  Uiso   1.00
C148   C     0.30997   0.20040   0.35129   0.00000  Uiso   1.00
C149   C     0.24335   0.14900   0.41971   0.00000  Uiso   1.00
C150   C     0.24594   0.14810   0.56422   0.00000  Uiso   1.00
C151   C     0.22038   0.12431   0.79747   0.00000  Uiso   1.00
C152   C     0.44293   0.30070   0.32885   0.00000  Uiso   1.00
C153   C     0.41449   0.34385   0.23975   0.00000  Uiso   1.00
C154   C     0.44887   0.42265   0.22874   0.00000  Uiso   1.00
C155   C     0.41399   0.45101   0.14173   0.00000  Uiso   1.00
C156   C     0.45318   0.24757   0.22971   0.00000  Uiso   1.00
C157   C     0.52009   0.24542   0.21028   0.00000  Uiso   1.00
C158   C     0.51780   0.19272   0.11484   0.00000  Uiso   1.00
C159   C     0.37680   0.24916   0.42460   0.00000  Uiso   1.00
C160   C     0.37949   0.24833   0.56902   0.00000  Uiso   1.00
C161   C     0.31289   0.19694   0.63766   0.00000  Uiso   1.00
H162   H     0.26785   0.17297   0.13682   0.00000  Uiso   1.00
H163   H     0.26101   0.28558   0.02271   0.00000  Uiso   1.00
H164   H     0.33222   0.10837   0.00427   0.00000  Uiso   1.00
H165   H     0.19164   0.11128   0.36296   0.00000  Uiso   1.00
H166   H     0.28291   0.43194   0.92849   0.00000  Uiso   1.00
H167   H     0.43306   0.05826   0.88964   0.00000  Uiso   1.00
H168   H     0.13662   0.06439   0.64599   0.00000  Uiso   1.00
H169   H     0.49497   0.33866   0.38592   0.00000  Uiso   1.00
H170   H     0.50059   0.46037   0.28548   0.00000  Uiso   1.00
H171   H     0.57180   0.28315   0.26703   0.00000  Uiso   1.00
H172   H     0.43122   0.28607   0.62572   0.00000  Uiso   1.00
H173   H     0.47737   0.57380   0.14175   0.00000  Uiso   1.00
H174   H     0.62751   0.20012   0.10291   0.00000  Uiso   1.00
H175   H     0.33108   0.20626   0.85926   0.00000  Uiso   1.00
O176   O     0.37975   0.57994   0.96452   0.00000  Uiso   1.00
O177   O     0.57674   0.08968   0.91357   0.00000  Uiso   1.00
O178   O     0.18782   0.09773   0.90588   0.00000  Uiso   1.00
N179   N     0.32790   0.44862   0.99249   0.00000  Uiso   1.00
N180   N     0.46828   0.09926   0.95615   0.00000  Uiso   1.00
N181   N     0.19114   0.10498   0.66327   0.00000  Uiso   1.00
N182   N     0.43253   0.52496   0.10724   0.00000  Uiso   1.00
N183   N     0.57291   0.17560   0.07091   0.00000  Uiso   1.00
N184   N     0.29578   0.18132   0.77803   0.00000  Uiso   1.00
C185   C     0.78907   0.10895   0.19389   0.00000  Uiso   1.00
C186   C     0.70491   0.05256   0.16645   0.00000  Uiso   1.00
C187   C     0.67667   0.98939   0.07943   0.00000  Uiso   1.00
C188   C     0.59784   0.94488   0.06829   0.00000  Uiso   1.00
C189   C     0.47458   0.85460   0.01447   0.00000  Uiso   1.00
C190   C     0.80119   0.18754   0.15641   0.00000  Uiso   1.00
C191   C     0.85390   0.23785   0.06097   0.00000  Uiso   1.00
C192   C     0.85613   0.30697   0.04140   0.00000  Uiso   1.00
C193   C     0.88238   0.42626   0.97208   0.00000  Uiso   1.00
C194   C     0.79960   0.10957   0.35129   0.00000  Uiso   1.00
C195   C     0.85100   0.09435   0.41971   0.00000  Uiso   1.00
C196   C     0.85190   0.09784   0.56422   0.00000  Uiso   1.00
C197   C     0.87569   0.09607   0.79747   0.00000  Uiso   1.00
C198   C     0.69930   0.14223   0.32885   0.00000  Uiso   1.00
C199   C     0.65615   0.07064   0.23975   0.00000  Uiso   1.00
C200   C     0.57735   0.02621   0.22874   0.00000  Uiso   1.00
C201   C     0.54899   0.96299   0.14173   0.00000  Uiso   1.00
C202   C     0.75243   0.20562   0.22971   0.00000  Uiso   1.00
C203   C     0.75458   0.27468   0.21028   0.00000  Uiso   1.00
C204   C     0.80728   0.32508   0.11484   0.00000  Uiso   1.00
C205   C     0.75084   0.12764   0.42460   0.00000  Uiso   1.00
C206   C     0.75167   0.13117   0.56902   0.00000  Uiso   1.00
C207   C     0.80306   0.11595   0.63766   0.00000  Uiso   1.00
H208   H     0.82703   0.09488   0.13682   0.00000  Uiso   1.00
H209   H     0.71442   0.97543   0.02271   0.00000  Uiso   1.00
H210   H     0.89163   0.22385   0.00427   0.00000  Uiso   1.00
H211   H     0.88872   0.08036   0.36296   0.00000  Uiso   1.00
H212   H     0.56806   0.85098   0.92849   0.00000  Uiso   1.00
H213   H     0.94174   0.37480   0.88964   0.00000  Uiso   1.00
H214   H     0.93561   0.07223   0.64599   0.00000  Uiso   1.00
H215   H     0.66134   0.15631   0.38592   0.00000  Uiso   1.00
H216   H     0.53963   0.04022   0.28548   0.00000  Uiso   1.00
H217   H     0.71685   0.28865   0.26703   0.00000  Uiso   1.00
H218   H     0.71393   0.14516   0.62572   0.00000  Uiso   1.00
H219   H     0.42620   0.90357   0.14175   0.00000  Uiso   1.00
H220   H     0.79988   0.42740   0.10291   0.00000  Uiso   1.00
H221   H     0.79374   0.12482   0.85926   0.00000  Uiso   1.00
O222   O     0.42006   0.79981   0.96452   0.00000  Uiso   1.00
O223   O     0.91032   0.48706   0.91357   0.00000  Uiso   1.00
O224   O     0.90227   0.09008   0.90588   0.00000  Uiso   1.00
N225   N     0.55138   0.87928   0.99249   0.00000  Uiso   1.00
N226   N     0.90074   0.36902   0.95615   0.00000  Uiso   1.00
N227   N     0.89502   0.08616   0.66327   0.00000  Uiso   1.00
N228   N     0.47504   0.90757   0.10724   0.00000  Uiso   1.00
N229   N     0.82440   0.39732   0.07091   0.00000  Uiso   1.00
N230   N     0.81868   0.11446   0.77803   0.00000  Uiso   1.00
C231   C     0.89105   0.68012   0.19389   0.00000  Uiso   1.00
C232   C     0.94744   0.65235   0.16645   0.00000  Uiso   1.00
C233   C     0.01061   0.68727   0.07943   0.00000  Uiso   1.00
C234   C     0.05512   0.65296   0.06829   0.00000  Uiso   1.00
C235   C     0.14540   0.61998   0.01447   0.00000  Uiso   1.00
C236   C     0.81246   0.61365   0.15641   0.00000  Uiso   1.00
C237   C     0.76215   0.61605   0.06097   0.00000  Uiso   1.00
C238   C     0.69303   0.54916   0.04140   0.00000  Uiso   1.00
C239   C     0.57374   0.45612   0.97208   0.00000  Uiso   1.00
C240   C     0.89043   0.69003   0.35129   0.00000  Uiso   1.00
C241   C     0.90565   0.75665   0.41971   0.00000  Uiso   1.00
C242   C     0.90216   0.75406   0.56422   0.00000  Uiso   1.00
C243   C     0.90393   0.77962   0.79747   0.00000  Uiso   1.00
C244   C     0.85777   0.55707   0.32885   0.00000  Uiso   1.00
C245   C     0.92936   0.58551   0.23975   0.00000  Uiso   1.00
C246   C     0.97379   0.55113   0.22874   0.00000  Uiso   1.00
C247   C     0.03701   0.58601   0.14173   0.00000  Uiso   1.00
C248   C     0.79438   0.54682   0.22971   0.00000  Uiso   1.00
C249   C     0.72532   0.47991   0.21028   0.00000  Uiso   1.00
C250   C     0.67492   0.48220   0.11484   0.00000  Uiso   1.00
C251   C     0.87236   0.62320   0.42460   0.00000  Uiso   1.00
C252   C     0.86883   0.62051   0.56902   0.00000  Uiso   1.00
C253   C     0.88405   0.68711   0.63766   0.00000  Uiso   1.00
H254   H     0.90512   0.73215   0.13682   0.00000  Uiso   1.00
H255   H     0.02457   0.73899   0.02271   0.00000  Uiso   1.00
H256   H     0.77615   0.66778   0.00427   0.00000  Uiso   1.00
H257   H     0.91964   0.80836   0.36296   0.00000  Uiso   1.00
H258   H     0.14902   0.71709   0.92849   0.00000  Uiso   1.00
H259   H     0.62520   0.56694   0.88964   0.00000  Uiso   1.00
H260   H     0.92777   0.86338   0.64599   0.00000  Uiso   1.00
H261   H     0.84369   0.50503   0.38592   0.00000  Uiso   1.00
H262   H     0.95978   0.49941   0.28548   0.00000  Uiso   1.00
H263   H     0.71135   0.42820   0.26703   0.00000  Uiso   1.00
H264   H     0.85484   0.56878   0.62572   0.00000  Uiso   1.00
H265   H     0.09643   0.52263   0.14175   0.00000  Uiso   1.00
H266   H     0.57260   0.37249   0.10291   0.00000  Uiso   1.00
H267   H     0.87518   0.66892   0.85926   0.00000  Uiso   1.00
O268   O     0.20019   0.62025   0.96452   0.00000  Uiso   1.00
O269   O     0.51294   0.42326   0.91357   0.00000  Uiso   1.00
O270   O     0.90992   0.81218   0.90588   0.00000  Uiso   1.00
N271   N     0.12072   0.67210   0.99249   0.00000  Uiso   1.00
N272   N     0.63098   0.53172   0.95615   0.00000  Uiso   1.00
N273   N     0.91384   0.80886   0.66327   0.00000  Uiso   1.00
N274   N     0.09243   0.56747   0.10724   0.00000  Uiso   1.00
N275   N     0.60268   0.42709   0.07091   0.00000  Uiso   1.00
N276   N     0.88554   0.70422   0.77803   0.00000  Uiso   1.00
