data_job_03963
_audit_creation_date              2018-12-19
_audit_creation_method            'Materials Studio'
_symmetry_space_group_name_H-M    'P1'
_symmetry_Int_Tables_number       1
_symmetry_cell_setting            triclinic
loop_
_symmetry_equiv_pos_as_xyz
  x,y,z
_cell_length_a                    22.2347
_cell_length_b                    7.6473
_cell_length_c                    23.0007
_cell_angle_alpha                 90.0000
_cell_angle_beta                  75.5081
_cell_angle_gamma                 90.0000
loop_
_atom_site_label
_atom_site_type_symbol
_atom_site_fract_x
_atom_site_fract_y
_atom_site_fract_z
_atom_site_U_iso_or_equiv
_atom_site_adp_type
_atom_site_occupancy
C1     C     0.19915   0.74810   0.54613   0.00000  Uiso   1.00
C2     C     0.25075   0.62434   0.55288   0.00000  Uiso   1.00
C3     C     0.31393   0.65096   0.52952   0.00000  Uiso   1.00
C4     C     0.35366   0.52226   0.54065   0.00000  Uiso   1.00
C5     C     0.43723   0.35285   0.54605   0.00000  Uiso   1.00
C6     C     0.15621   0.64050   0.51777   0.00000  Uiso   1.00
C7     C     0.13990   0.68073   0.46489   0.00000  Uiso   1.00
C8     C     0.10005   0.56564   0.44647   0.00000  Uiso   1.00
C9     C     0.03681   0.42139   0.39738   0.00000  Uiso   1.00
C10    C     0.16184   0.79037   0.60973   0.00000  Uiso   1.00
C11    C     0.15025   0.95662   0.63416   0.00000  Uiso   1.00
C12    C     0.11512   0.96771   0.69315   0.00000  Uiso   1.00
C13    C     0.06063   0.05615   0.78684   0.00000  Uiso   1.00
C14    C     0.15735   0.47220   0.60743   0.00000  Uiso   1.00
C15    C     0.22804   0.47448   0.58618   0.00000  Uiso   1.00
C16    C     0.26769   0.34571   0.59734   0.00000  Uiso   1.00
C17    C     0.33092   0.37213   0.57400   0.00000  Uiso   1.00
C18    C     0.13351   0.49065   0.55107   0.00000  Uiso   1.00
C19    C     0.09366   0.37548   0.53271   0.00000  Uiso   1.00
C20    C     0.07730   0.41551   0.47982   0.00000  Uiso   1.00
C21    C     0.13914   0.64051   0.64303   0.00000  Uiso   1.00
C22    C     0.10401   0.65135   0.70199   0.00000  Uiso   1.00
C23    C     0.09237   0.81758   0.72651   0.00000  Uiso   1.00
H24    H     0.21682   0.86477   0.52020   0.00000  Uiso   1.00
H25    H     0.33148   0.76695   0.50375   0.00000  Uiso   1.00
H26    H     0.15748   0.79672   0.43914   0.00000  Uiso   1.00
H27    H     0.16783   0.07255   0.60838   0.00000  Uiso   1.00
H28    H     0.44859   0.59237   0.50018   0.00000  Uiso   1.00
H29    H     0.08168   0.65518   0.36395   0.00000  Uiso   1.00
H30    H     0.10350   0.23684   0.72083   0.00000  Uiso   1.00
H31    H     0.13968   0.35552   0.63335   0.00000  Uiso   1.00
H32    H     0.25011   0.22975   0.62311   0.00000  Uiso   1.00
H33    H     0.07610   0.25952   0.55849   0.00000  Uiso   1.00
H34    H     0.08645   0.53536   0.72774   0.00000  Uiso   1.00
H35    H     0.38254   0.15636   0.59705   0.00000  Uiso   1.00
H36    H     0.01562   0.21918   0.46082   0.00000  Uiso   1.00
H37    H     0.03745   0.80083   0.81771   0.00000  Uiso   1.00
O38    O     0.48960   0.30079   0.53982   0.00000  Uiso   1.00
O39    O     0.00821   0.38322   0.36110   0.00000  Uiso   1.00
O40    O     0.03685   0.14633   0.82932   0.00000  Uiso   1.00
N41    N     0.41789   0.50703   0.52440   0.00000  Uiso   1.00
N42    N     0.07486   0.56574   0.39702   0.00000  Uiso   1.00
N43    N     0.09524   0.10954   0.73067   0.00000  Uiso   1.00
N44    N     0.38235   0.27242   0.57652   0.00000  Uiso   1.00
N45    N     0.03932   0.33113   0.44915   0.00000  Uiso   1.00
N46    N     0.05970   0.87493   0.78280   0.00000  Uiso   1.00
C47    C     0.80085   0.74810   0.95387   0.00000  Uiso   1.00
C48    C     0.74925   0.62434   0.94712   0.00000  Uiso   1.00
C49    C     0.68607   0.65096   0.97048   0.00000  Uiso   1.00
C50    C     0.64634   0.52226   0.95935   0.00000  Uiso   1.00
C51    C     0.56277   0.35285   0.95395   0.00000  Uiso   1.00
C52    C     0.84379   0.64050   0.98223   0.00000  Uiso   1.00
C53    C     0.86010   0.68073   0.03511   0.00000  Uiso   1.00
C54    C     0.89995   0.56564   0.05353   0.00000  Uiso   1.00
C55    C     0.96319   0.42139   0.10262   0.00000  Uiso   1.00
C56    C     0.83816   0.79037   0.89027   0.00000  Uiso   1.00
C57    C     0.84975   0.95662   0.86584   0.00000  Uiso   1.00
C58    C     0.88488   0.96771   0.80685   0.00000  Uiso   1.00
C59    C     0.93937   0.05615   0.71316   0.00000  Uiso   1.00
C60    C     0.84265   0.47220   0.89257   0.00000  Uiso   1.00
C61    C     0.77196   0.47448   0.91382   0.00000  Uiso   1.00
C62    C     0.73231   0.34571   0.90266   0.00000  Uiso   1.00
C63    C     0.66908   0.37213   0.92600   0.00000  Uiso   1.00
C64    C     0.86649   0.49065   0.94893   0.00000  Uiso   1.00
C65    C     0.90634   0.37548   0.96729   0.00000  Uiso   1.00
C66    C     0.92270   0.41551   0.02018   0.00000  Uiso   1.00
C67    C     0.86086   0.64051   0.85697   0.00000  Uiso   1.00
C68    C     0.89599   0.65135   0.79801   0.00000  Uiso   1.00
C69    C     0.90763   0.81758   0.77349   0.00000  Uiso   1.00
H70    H     0.78318   0.86477   0.97980   0.00000  Uiso   1.00
H71    H     0.66852   0.76695   0.99625   0.00000  Uiso   1.00
H72    H     0.84252   0.79672   0.06086   0.00000  Uiso   1.00
H73    H     0.83217   0.07255   0.89162   0.00000  Uiso   1.00
H74    H     0.55141   0.59237   0.99982   0.00000  Uiso   1.00
H75    H     0.91832   0.65518   0.13605   0.00000  Uiso   1.00
H76    H     0.89650   0.23684   0.77917   0.00000  Uiso   1.00
H77    H     0.86032   0.35552   0.86665   0.00000  Uiso   1.00
H78    H     0.74989   0.22975   0.87689   0.00000  Uiso   1.00
H79    H     0.92390   0.25952   0.94151   0.00000  Uiso   1.00
H80    H     0.91355   0.53536   0.77226   0.00000  Uiso   1.00
H81    H     0.61746   0.15636   0.90295   0.00000  Uiso   1.00
H82    H     0.98438   0.21918   0.03918   0.00000  Uiso   1.00
H83    H     0.96255   0.80083   0.68229   0.00000  Uiso   1.00
O84    O     0.51040   0.30079   0.96018   0.00000  Uiso   1.00
O85    O     0.99179   0.38322   0.13890   0.00000  Uiso   1.00
O86    O     0.96315   0.14633   0.67068   0.00000  Uiso   1.00
N87    N     0.58211   0.50703   0.97560   0.00000  Uiso   1.00
N88    N     0.92514   0.56574   0.10298   0.00000  Uiso   1.00
N89    N     0.90476   0.10954   0.76933   0.00000  Uiso   1.00
N90    N     0.61765   0.27242   0.92348   0.00000  Uiso   1.00
N91    N     0.96068   0.33113   0.05085   0.00000  Uiso   1.00
N92    N     0.94030   0.87493   0.71720   0.00000  Uiso   1.00
C93    C     0.80085   0.25190   0.45387   0.00000  Uiso   1.00
C94    C     0.74925   0.37566   0.44712   0.00000  Uiso   1.00
C95    C     0.68607   0.34904   0.47048   0.00000  Uiso   1.00
C96    C     0.64634   0.47774   0.45935   0.00000  Uiso   1.00
C97    C     0.56277   0.64715   0.45395   0.00000  Uiso   1.00
C98    C     0.84379   0.35950   0.48223   0.00000  Uiso   1.00
C99    C     0.86010   0.31927   0.53511   0.00000  Uiso   1.00
C100   C     0.89995   0.43436   0.55353   0.00000  Uiso   1.00
C101   C     0.96319   0.57861   0.60262   0.00000  Uiso   1.00
C102   C     0.83816   0.20963   0.39027   0.00000  Uiso   1.00
C103   C     0.84975   0.04338   0.36584   0.00000  Uiso   1.00
C104   C     0.88488   0.03229   0.30685   0.00000  Uiso   1.00
C105   C     0.93937   0.94385   0.21316   0.00000  Uiso   1.00
C106   C     0.84265   0.52780   0.39257   0.00000  Uiso   1.00
C107   C     0.77196   0.52552   0.41382   0.00000  Uiso   1.00
C108   C     0.73231   0.65429   0.40266   0.00000  Uiso   1.00
C109   C     0.66908   0.62787   0.42600   0.00000  Uiso   1.00
C110   C     0.86649   0.50935   0.44893   0.00000  Uiso   1.00
C111   C     0.90634   0.62452   0.46729   0.00000  Uiso   1.00
C112   C     0.92270   0.58449   0.52018   0.00000  Uiso   1.00
C113   C     0.86086   0.35949   0.35697   0.00000  Uiso   1.00
C114   C     0.89599   0.34865   0.29801   0.00000  Uiso   1.00
C115   C     0.90763   0.18242   0.27349   0.00000  Uiso   1.00
H116   H     0.78318   0.13523   0.47980   0.00000  Uiso   1.00
H117   H     0.66852   0.23305   0.49625   0.00000  Uiso   1.00
H118   H     0.84252   0.20328   0.56086   0.00000  Uiso   1.00
H119   H     0.83217   0.92745   0.39162   0.00000  Uiso   1.00
H120   H     0.55141   0.40763   0.49982   0.00000  Uiso   1.00
H121   H     0.91832   0.34482   0.63605   0.00000  Uiso   1.00
H122   H     0.89650   0.76316   0.27917   0.00000  Uiso   1.00
H123   H     0.86032   0.64448   0.36665   0.00000  Uiso   1.00
H124   H     0.74989   0.77025   0.37689   0.00000  Uiso   1.00
H125   H     0.92390   0.74048   0.44151   0.00000  Uiso   1.00
H126   H     0.91355   0.46464   0.27226   0.00000  Uiso   1.00
H127   H     0.61746   0.84364   0.40295   0.00000  Uiso   1.00
H128   H     0.98438   0.78082   0.53918   0.00000  Uiso   1.00
H129   H     0.96255   0.19917   0.18229   0.00000  Uiso   1.00
O130   O     0.51040   0.69921   0.46018   0.00000  Uiso   1.00
O131   O     0.99179   0.61678   0.63890   0.00000  Uiso   1.00
O132   O     0.96315   0.85367   0.17068   0.00000  Uiso   1.00
N133   N     0.58211   0.49297   0.47560   0.00000  Uiso   1.00
N134   N     0.92514   0.43426   0.60298   0.00000  Uiso   1.00
N135   N     0.90476   0.89046   0.26933   0.00000  Uiso   1.00
N136   N     0.61765   0.72758   0.42348   0.00000  Uiso   1.00
N137   N     0.96068   0.66887   0.55085   0.00000  Uiso   1.00
N138   N     0.94030   0.12507   0.21720   0.00000  Uiso   1.00
C139   C     0.19915   0.25190   0.04613   0.00000  Uiso   1.00
C140   C     0.25075   0.37566   0.05288   0.00000  Uiso   1.00
C141   C     0.31393   0.34904   0.02952   0.00000  Uiso   1.00
C142   C     0.35366   0.47774   0.04065   0.00000  Uiso   1.00
C143   C     0.43723   0.64715   0.04605   0.00000  Uiso   1.00
C144   C     0.15621   0.35950   0.01777   0.00000  Uiso   1.00
C145   C     0.13990   0.31927   0.96489   0.00000  Uiso   1.00
C146   C     0.10005   0.43436   0.94647   0.00000  Uiso   1.00
C147   C     0.03681   0.57861   0.89738   0.00000  Uiso   1.00
C148   C     0.16184   0.20963   0.10973   0.00000  Uiso   1.00
C149   C     0.15025   0.04338   0.13416   0.00000  Uiso   1.00
C150   C     0.11512   0.03229   0.19315   0.00000  Uiso   1.00
C151   C     0.06063   0.94385   0.28684   0.00000  Uiso   1.00
C152   C     0.15735   0.52780   0.10743   0.00000  Uiso   1.00
C153   C     0.22804   0.52552   0.08618   0.00000  Uiso   1.00
C154   C     0.26769   0.65429   0.09734   0.00000  Uiso   1.00
C155   C     0.33092   0.62787   0.07400   0.00000  Uiso   1.00
C156   C     0.13351   0.50935   0.05107   0.00000  Uiso   1.00
C157   C     0.09366   0.62452   0.03271   0.00000  Uiso   1.00
C158   C     0.07730   0.58449   0.97982   0.00000  Uiso   1.00
C159   C     0.13914   0.35949   0.14303   0.00000  Uiso   1.00
C160   C     0.10401   0.34865   0.20199   0.00000  Uiso   1.00
C161   C     0.09237   0.18242   0.22651   0.00000  Uiso   1.00
H162   H     0.21682   0.13523   0.02020   0.00000  Uiso   1.00
H163   H     0.33148   0.23305   0.00375   0.00000  Uiso   1.00
H164   H     0.15748   0.20328   0.93914   0.00000  Uiso   1.00
H165   H     0.16783   0.92745   0.10838   0.00000  Uiso   1.00
H166   H     0.44859   0.40763   0.00018   0.00000  Uiso   1.00
H167   H     0.08168   0.34482   0.86395   0.00000  Uiso   1.00
H168   H     0.10350   0.76316   0.22083   0.00000  Uiso   1.00
H169   H     0.13968   0.64448   0.13335   0.00000  Uiso   1.00
H170   H     0.25011   0.77025   0.12311   0.00000  Uiso   1.00
H171   H     0.07610   0.74048   0.05849   0.00000  Uiso   1.00
H172   H     0.08645   0.46464   0.22774   0.00000  Uiso   1.00
H173   H     0.38254   0.84364   0.09705   0.00000  Uiso   1.00
H174   H     0.01562   0.78082   0.96082   0.00000  Uiso   1.00
H175   H     0.03745   0.19917   0.31771   0.00000  Uiso   1.00
O176   O     0.48960   0.69921   0.03982   0.00000  Uiso   1.00
O177   O     0.00821   0.61678   0.86110   0.00000  Uiso   1.00
O178   O     0.03685   0.85367   0.32932   0.00000  Uiso   1.00
N179   N     0.41789   0.49297   0.02440   0.00000  Uiso   1.00
N180   N     0.07486   0.43426   0.89702   0.00000  Uiso   1.00
N181   N     0.09524   0.89046   0.23067   0.00000  Uiso   1.00
N182   N     0.38235   0.72758   0.07652   0.00000  Uiso   1.00
N183   N     0.03932   0.66887   0.94915   0.00000  Uiso   1.00
N184   N     0.05970   0.12507   0.28280   0.00000  Uiso   1.00
