data_job_02955
_audit_creation_date              2018-12-19
_audit_creation_method            'Materials Studio'
_symmetry_space_group_name_H-M    'P1'
_symmetry_Int_Tables_number       1
_symmetry_cell_setting            triclinic
loop_
_symmetry_equiv_pos_as_xyz
  x,y,z
_cell_length_a                    23.1997
_cell_length_b                    8.8572
_cell_length_c                    35.0055
_cell_angle_alpha                 90.0000
_cell_angle_beta                  127.6134
_cell_angle_gamma                 90.0000
loop_
_atom_site_label
_atom_site_type_symbol
_atom_site_fract_x
_atom_site_fract_y
_atom_site_fract_z
_atom_site_U_iso_or_equiv
_atom_site_adp_type
_atom_site_occupancy
C1     C     0.51197   0.09352   0.86923   0.00000  Uiso   1.00
C2     C     0.56277   0.22757   0.89579   0.00000  Uiso   1.00
C3     C     0.63666   0.23024   0.91753   0.00000  Uiso   1.00
C4     C     0.67359   0.36371   0.94001   0.00000  Uiso   1.00
C5     C     0.75791   0.55263   0.98116   0.00000  Uiso   1.00
C6     C     0.47728   0.06190   0.89395   0.00000  Uiso   1.00
C7     C     0.47929   0.92528   0.91415   0.00000  Uiso   1.00
C8     C     0.44424   0.91928   0.93508   0.00000  Uiso   1.00
C9     C     0.39580   0.85097   0.97336   0.00000  Uiso   1.00
C10    C     0.45075   0.15027   0.81881   0.00000  Uiso   1.00
C11    C     0.43043   0.08792   0.77581   0.00000  Uiso   1.00
C12    C     0.37303   0.15631   0.73347   0.00000  Uiso   1.00
C13    C     0.28340   0.22520   0.65507   0.00000  Uiso   1.00
C14    C     0.44615   0.32579   0.87048   0.00000  Uiso   1.00
C15    C     0.52701   0.35372   0.89646   0.00000  Uiso   1.00
C16    C     0.56384   0.48723   0.91891   0.00000  Uiso   1.00
C17    C     0.63777   0.49010   0.94068   0.00000  Uiso   1.00
C18    C     0.44153   0.18805   0.89463   0.00000  Uiso   1.00
C19    C     0.40647   0.18226   0.91553   0.00000  Uiso   1.00
C20    C     0.40842   0.04567   0.93576   0.00000  Uiso   1.00
C21    C     0.41500   0.27643   0.81948   0.00000  Uiso   1.00
C22    C     0.35761   0.34491   0.77720   0.00000  Uiso   1.00
C23    C     0.33722   0.28270   0.73415   0.00000  Uiso   1.00
H24    H     0.53980   0.99530   0.86870   0.00000  Uiso   1.00
H25    H     0.66431   0.13258   0.91700   0.00000  Uiso   1.00
H26    H     0.50695   0.82766   0.91362   0.00000  Uiso   1.00
H27    H     0.45811   0.99030   0.77530   0.00000  Uiso   1.00
H28    H     0.78659   0.34041   0.97086   0.00000  Uiso   1.00
H29    H     0.45478   0.69745   0.96372   0.00000  Uiso   1.00
H30    H     0.35178   0.04039   0.67205   0.00000  Uiso   1.00
H31    H     0.41831   0.42402   0.87101   0.00000  Uiso   1.00
H32    H     0.53616   0.58484   0.91943   0.00000  Uiso   1.00
H33    H     0.37880   0.27991   0.91605   0.00000  Uiso   1.00
H34    H     0.32996   0.44254   0.77774   0.00000  Uiso   1.00
H35    H     0.68258   0.70747   0.97284   0.00000  Uiso   1.00
H36    H     0.35076   0.06451   0.96569   0.00000  Uiso   1.00
H37    H     0.24777   0.40745   0.67403   0.00000  Uiso   1.00
O38    O     0.81430   0.62198   0.00368   0.00000  Uiso   1.00
O39    O     0.37897   0.77844   0.99429   0.00000  Uiso   1.00
O40    O     0.24384   0.22836   0.61164   0.00000  Uiso   1.00
N41    N     0.74594   0.40474   0.96467   0.00000  Uiso   1.00
N42    N     0.43572   0.80362   0.95800   0.00000  Uiso   1.00
N43    N     0.33941   0.12421   0.68532   0.00000  Uiso   1.00
N44    N     0.68997   0.60225   0.96574   0.00000  Uiso   1.00
N45    N     0.37975   0.00113   0.95906   0.00000  Uiso   1.00
N46    N     0.28344   0.32172   0.68638   0.00000  Uiso   1.00
C47    C     0.01197   0.59352   0.86923   0.00000  Uiso   1.00
C48    C     0.06277   0.72757   0.89579   0.00000  Uiso   1.00
C49    C     0.13666   0.73024   0.91753   0.00000  Uiso   1.00
C50    C     0.17359   0.86371   0.94001   0.00000  Uiso   1.00
C51    C     0.25791   0.05263   0.98116   0.00000  Uiso   1.00
C52    C     0.97728   0.56190   0.89395   0.00000  Uiso   1.00
C53    C     0.97929   0.42528   0.91415   0.00000  Uiso   1.00
C54    C     0.94424   0.41928   0.93508   0.00000  Uiso   1.00
C55    C     0.89580   0.35097   0.97336   0.00000  Uiso   1.00
C56    C     0.95075   0.65027   0.81881   0.00000  Uiso   1.00
C57    C     0.93043   0.58792   0.77581   0.00000  Uiso   1.00
C58    C     0.87303   0.65631   0.73347   0.00000  Uiso   1.00
C59    C     0.78340   0.72520   0.65507   0.00000  Uiso   1.00
C60    C     0.94615   0.82579   0.87048   0.00000  Uiso   1.00
C61    C     0.02701   0.85372   0.89646   0.00000  Uiso   1.00
C62    C     0.06384   0.98723   0.91891   0.00000  Uiso   1.00
C63    C     0.13777   0.99010   0.94068   0.00000  Uiso   1.00
C64    C     0.94153   0.68805   0.89463   0.00000  Uiso   1.00
C65    C     0.90647   0.68226   0.91553   0.00000  Uiso   1.00
C66    C     0.90842   0.54567   0.93576   0.00000  Uiso   1.00
C67    C     0.91500   0.77643   0.81948   0.00000  Uiso   1.00
C68    C     0.85761   0.84491   0.77720   0.00000  Uiso   1.00
C69    C     0.83722   0.78270   0.73415   0.00000  Uiso   1.00
H70    H     0.03980   0.49530   0.86870   0.00000  Uiso   1.00
H71    H     0.16431   0.63258   0.91700   0.00000  Uiso   1.00
H72    H     0.00695   0.32766   0.91362   0.00000  Uiso   1.00
H73    H     0.95811   0.49030   0.77530   0.00000  Uiso   1.00
H74    H     0.28659   0.84041   0.97086   0.00000  Uiso   1.00
H75    H     0.95478   0.19745   0.96372   0.00000  Uiso   1.00
H76    H     0.85178   0.54039   0.67205   0.00000  Uiso   1.00
H77    H     0.91831   0.92402   0.87101   0.00000  Uiso   1.00
H78    H     0.03616   0.08484   0.91943   0.00000  Uiso   1.00
H79    H     0.87880   0.77991   0.91605   0.00000  Uiso   1.00
H80    H     0.82996   0.94254   0.77774   0.00000  Uiso   1.00
H81    H     0.18258   0.20747   0.97284   0.00000  Uiso   1.00
H82    H     0.85076   0.56451   0.96569   0.00000  Uiso   1.00
H83    H     0.74777   0.90745   0.67403   0.00000  Uiso   1.00
O84    O     0.31430   0.12198   0.00368   0.00000  Uiso   1.00
O85    O     0.87897   0.27844   0.99429   0.00000  Uiso   1.00
O86    O     0.74384   0.72836   0.61164   0.00000  Uiso   1.00
N87    N     0.24594   0.90474   0.96467   0.00000  Uiso   1.00
N88    N     0.93572   0.30362   0.95800   0.00000  Uiso   1.00
N89    N     0.83941   0.62421   0.68532   0.00000  Uiso   1.00
N90    N     0.18997   0.10225   0.96574   0.00000  Uiso   1.00
N91    N     0.87975   0.50113   0.95906   0.00000  Uiso   1.00
N92    N     0.78344   0.82172   0.68638   0.00000  Uiso   1.00
C93    C     0.48803   0.09352   0.63077   0.00000  Uiso   1.00
C94    C     0.43723   0.22757   0.60421   0.00000  Uiso   1.00
C95    C     0.36334   0.23024   0.58247   0.00000  Uiso   1.00
C96    C     0.32641   0.36371   0.55999   0.00000  Uiso   1.00
C97    C     0.24209   0.55263   0.51884   0.00000  Uiso   1.00
C98    C     0.52272   0.06190   0.60605   0.00000  Uiso   1.00
C99    C     0.52071   0.92528   0.58585   0.00000  Uiso   1.00
C100   C     0.55576   0.91928   0.56492   0.00000  Uiso   1.00
C101   C     0.60420   0.85097   0.52664   0.00000  Uiso   1.00
C102   C     0.54925   0.15027   0.68119   0.00000  Uiso   1.00
C103   C     0.56957   0.08792   0.72419   0.00000  Uiso   1.00
C104   C     0.62697   0.15631   0.76653   0.00000  Uiso   1.00
C105   C     0.71660   0.22520   0.84493   0.00000  Uiso   1.00
C106   C     0.55385   0.32579   0.62952   0.00000  Uiso   1.00
C107   C     0.47299   0.35372   0.60354   0.00000  Uiso   1.00
C108   C     0.43616   0.48723   0.58109   0.00000  Uiso   1.00
C109   C     0.36223   0.49010   0.55932   0.00000  Uiso   1.00
C110   C     0.55847   0.18805   0.60537   0.00000  Uiso   1.00
C111   C     0.59353   0.18226   0.58447   0.00000  Uiso   1.00
C112   C     0.59158   0.04567   0.56424   0.00000  Uiso   1.00
C113   C     0.58500   0.27643   0.68052   0.00000  Uiso   1.00
C114   C     0.64239   0.34491   0.72280   0.00000  Uiso   1.00
C115   C     0.66278   0.28270   0.76585   0.00000  Uiso   1.00
H116   H     0.46020   0.99530   0.63130   0.00000  Uiso   1.00
H117   H     0.33569   0.13258   0.58300   0.00000  Uiso   1.00
H118   H     0.49305   0.82766   0.58638   0.00000  Uiso   1.00
H119   H     0.54189   0.99030   0.72470   0.00000  Uiso   1.00
H120   H     0.21341   0.34041   0.52914   0.00000  Uiso   1.00
H121   H     0.54522   0.69745   0.53628   0.00000  Uiso   1.00
H122   H     0.64822   0.04039   0.82795   0.00000  Uiso   1.00
H123   H     0.58169   0.42402   0.62899   0.00000  Uiso   1.00
H124   H     0.46384   0.58484   0.58057   0.00000  Uiso   1.00
H125   H     0.62120   0.27991   0.58395   0.00000  Uiso   1.00
H126   H     0.67004   0.44254   0.72226   0.00000  Uiso   1.00
H127   H     0.31742   0.70747   0.52716   0.00000  Uiso   1.00
H128   H     0.64924   0.06451   0.53431   0.00000  Uiso   1.00
H129   H     0.75223   0.40745   0.82597   0.00000  Uiso   1.00
O130   O     0.18570   0.62198   0.49632   0.00000  Uiso   1.00
O131   O     0.62103   0.77844   0.50571   0.00000  Uiso   1.00
O132   O     0.75616   0.22836   0.88836   0.00000  Uiso   1.00
N133   N     0.25406   0.40474   0.53533   0.00000  Uiso   1.00
N134   N     0.56428   0.80362   0.54200   0.00000  Uiso   1.00
N135   N     0.66059   0.12421   0.81468   0.00000  Uiso   1.00
N136   N     0.31003   0.60225   0.53426   0.00000  Uiso   1.00
N137   N     0.62025   0.00113   0.54094   0.00000  Uiso   1.00
N138   N     0.71656   0.32172   0.81362   0.00000  Uiso   1.00
C139   C     0.98803   0.59352   0.63077   0.00000  Uiso   1.00
C140   C     0.93723   0.72757   0.60421   0.00000  Uiso   1.00
C141   C     0.86334   0.73024   0.58247   0.00000  Uiso   1.00
C142   C     0.82641   0.86371   0.55999   0.00000  Uiso   1.00
C143   C     0.74209   0.05263   0.51884   0.00000  Uiso   1.00
C144   C     0.02272   0.56190   0.60605   0.00000  Uiso   1.00
C145   C     0.02071   0.42528   0.58585   0.00000  Uiso   1.00
C146   C     0.05576   0.41928   0.56492   0.00000  Uiso   1.00
C147   C     0.10420   0.35097   0.52664   0.00000  Uiso   1.00
C148   C     0.04925   0.65027   0.68119   0.00000  Uiso   1.00
C149   C     0.06957   0.58792   0.72419   0.00000  Uiso   1.00
C150   C     0.12697   0.65631   0.76653   0.00000  Uiso   1.00
C151   C     0.21660   0.72520   0.84493   0.00000  Uiso   1.00
C152   C     0.05385   0.82579   0.62952   0.00000  Uiso   1.00
C153   C     0.97299   0.85372   0.60354   0.00000  Uiso   1.00
C154   C     0.93616   0.98723   0.58109   0.00000  Uiso   1.00
C155   C     0.86223   0.99010   0.55932   0.00000  Uiso   1.00
C156   C     0.05847   0.68805   0.60537   0.00000  Uiso   1.00
C157   C     0.09353   0.68226   0.58447   0.00000  Uiso   1.00
C158   C     0.09158   0.54567   0.56424   0.00000  Uiso   1.00
C159   C     0.08500   0.77643   0.68052   0.00000  Uiso   1.00
C160   C     0.14239   0.84491   0.72280   0.00000  Uiso   1.00
C161   C     0.16278   0.78270   0.76585   0.00000  Uiso   1.00
H162   H     0.96020   0.49530   0.63130   0.00000  Uiso   1.00
H163   H     0.83569   0.63258   0.58300   0.00000  Uiso   1.00
H164   H     0.99305   0.32766   0.58638   0.00000  Uiso   1.00
H165   H     0.04189   0.49030   0.72470   0.00000  Uiso   1.00
H166   H     0.71341   0.84041   0.52914   0.00000  Uiso   1.00
H167   H     0.04522   0.19745   0.53628   0.00000  Uiso   1.00
H168   H     0.14822   0.54039   0.82795   0.00000  Uiso   1.00
H169   H     0.08169   0.92402   0.62899   0.00000  Uiso   1.00
H170   H     0.96384   0.08484   0.58057   0.00000  Uiso   1.00
H171   H     0.12120   0.77991   0.58395   0.00000  Uiso   1.00
H172   H     0.17004   0.94254   0.72226   0.00000  Uiso   1.00
H173   H     0.81742   0.20747   0.52716   0.00000  Uiso   1.00
H174   H     0.14924   0.56451   0.53431   0.00000  Uiso   1.00
H175   H     0.25223   0.90745   0.82597   0.00000  Uiso   1.00
O176   O     0.68570   0.12198   0.49632   0.00000  Uiso   1.00
O177   O     0.12103   0.27844   0.50571   0.00000  Uiso   1.00
O178   O     0.25616   0.72836   0.88836   0.00000  Uiso   1.00
N179   N     0.75406   0.90474   0.53533   0.00000  Uiso   1.00
N180   N     0.06428   0.30362   0.54200   0.00000  Uiso   1.00
N181   N     0.16059   0.62421   0.81468   0.00000  Uiso   1.00
N182   N     0.81003   0.10225   0.53426   0.00000  Uiso   1.00
N183   N     0.12025   0.50113   0.54094   0.00000  Uiso   1.00
N184   N     0.21656   0.82172   0.81362   0.00000  Uiso   1.00
C185   C     0.48803   0.90648   0.13077   0.00000  Uiso   1.00
C186   C     0.43723   0.77243   0.10421   0.00000  Uiso   1.00
C187   C     0.36334   0.76976   0.08247   0.00000  Uiso   1.00
C188   C     0.32641   0.63629   0.05999   0.00000  Uiso   1.00
C189   C     0.24209   0.44737   0.01884   0.00000  Uiso   1.00
C190   C     0.52272   0.93810   0.10605   0.00000  Uiso   1.00
C191   C     0.52071   0.07472   0.08585   0.00000  Uiso   1.00
C192   C     0.55576   0.08072   0.06492   0.00000  Uiso   1.00
C193   C     0.60420   0.14903   0.02664   0.00000  Uiso   1.00
C194   C     0.54925   0.84973   0.18119   0.00000  Uiso   1.00
C195   C     0.56957   0.91208   0.22419   0.00000  Uiso   1.00
C196   C     0.62697   0.84369   0.26653   0.00000  Uiso   1.00
C197   C     0.71660   0.77480   0.34493   0.00000  Uiso   1.00
C198   C     0.55385   0.67421   0.12952   0.00000  Uiso   1.00
C199   C     0.47299   0.64628   0.10354   0.00000  Uiso   1.00
C200   C     0.43616   0.51277   0.08109   0.00000  Uiso   1.00
C201   C     0.36223   0.50990   0.05932   0.00000  Uiso   1.00
C202   C     0.55847   0.81195   0.10537   0.00000  Uiso   1.00
C203   C     0.59353   0.81774   0.08447   0.00000  Uiso   1.00
C204   C     0.59158   0.95433   0.06424   0.00000  Uiso   1.00
C205   C     0.58500   0.72357   0.18052   0.00000  Uiso   1.00
C206   C     0.64239   0.65509   0.22280   0.00000  Uiso   1.00
C207   C     0.66278   0.71730   0.26585   0.00000  Uiso   1.00
H208   H     0.46020   0.00470   0.13130   0.00000  Uiso   1.00
H209   H     0.33569   0.86742   0.08300   0.00000  Uiso   1.00
H210   H     0.49305   0.17234   0.08638   0.00000  Uiso   1.00
H211   H     0.54189   0.00970   0.22470   0.00000  Uiso   1.00
H212   H     0.21341   0.65959   0.02914   0.00000  Uiso   1.00
H213   H     0.54522   0.30255   0.03628   0.00000  Uiso   1.00
H214   H     0.64822   0.95961   0.32795   0.00000  Uiso   1.00
H215   H     0.58169   0.57598   0.12899   0.00000  Uiso   1.00
H216   H     0.46384   0.41516   0.08057   0.00000  Uiso   1.00
H217   H     0.62120   0.72009   0.08395   0.00000  Uiso   1.00
H218   H     0.67004   0.55746   0.22226   0.00000  Uiso   1.00
H219   H     0.31742   0.29253   0.02716   0.00000  Uiso   1.00
H220   H     0.64924   0.93549   0.03431   0.00000  Uiso   1.00
H221   H     0.75223   0.59255   0.32597   0.00000  Uiso   1.00
O222   O     0.18570   0.37802   0.99632   0.00000  Uiso   1.00
O223   O     0.62103   0.22156   0.00571   0.00000  Uiso   1.00
O224   O     0.75616   0.77164   0.38836   0.00000  Uiso   1.00
N225   N     0.25406   0.59526   0.03533   0.00000  Uiso   1.00
N226   N     0.56428   0.19638   0.04200   0.00000  Uiso   1.00
N227   N     0.66059   0.87579   0.31468   0.00000  Uiso   1.00
N228   N     0.31003   0.39775   0.03426   0.00000  Uiso   1.00
N229   N     0.62025   0.99887   0.04094   0.00000  Uiso   1.00
N230   N     0.71656   0.67828   0.31362   0.00000  Uiso   1.00
C231   C     0.98803   0.40648   0.13077   0.00000  Uiso   1.00
C232   C     0.93723   0.27243   0.10421   0.00000  Uiso   1.00
C233   C     0.86334   0.26976   0.08247   0.00000  Uiso   1.00
C234   C     0.82641   0.13629   0.05999   0.00000  Uiso   1.00
C235   C     0.74209   0.94737   0.01884   0.00000  Uiso   1.00
C236   C     0.02272   0.43810   0.10605   0.00000  Uiso   1.00
C237   C     0.02071   0.57472   0.08585   0.00000  Uiso   1.00
C238   C     0.05576   0.58072   0.06492   0.00000  Uiso   1.00
C239   C     0.10420   0.64903   0.02664   0.00000  Uiso   1.00
C240   C     0.04925   0.34973   0.18119   0.00000  Uiso   1.00
C241   C     0.06957   0.41208   0.22419   0.00000  Uiso   1.00
C242   C     0.12697   0.34369   0.26653   0.00000  Uiso   1.00
C243   C     0.21660   0.27480   0.34493   0.00000  Uiso   1.00
C244   C     0.05385   0.17421   0.12952   0.00000  Uiso   1.00
C245   C     0.97299   0.14628   0.10354   0.00000  Uiso   1.00
C246   C     0.93616   0.01277   0.08109   0.00000  Uiso   1.00
C247   C     0.86223   0.00990   0.05932   0.00000  Uiso   1.00
C248   C     0.05847   0.31195   0.10537   0.00000  Uiso   1.00
C249   C     0.09353   0.31774   0.08447   0.00000  Uiso   1.00
C250   C     0.09158   0.45433   0.06424   0.00000  Uiso   1.00
C251   C     0.08500   0.22357   0.18052   0.00000  Uiso   1.00
C252   C     0.14239   0.15509   0.22280   0.00000  Uiso   1.00
C253   C     0.16278   0.21730   0.26585   0.00000  Uiso   1.00
H254   H     0.96020   0.50470   0.13130   0.00000  Uiso   1.00
H255   H     0.83569   0.36742   0.08300   0.00000  Uiso   1.00
H256   H     0.99305   0.67234   0.08638   0.00000  Uiso   1.00
H257   H     0.04189   0.50970   0.22470   0.00000  Uiso   1.00
H258   H     0.71341   0.15959   0.02914   0.00000  Uiso   1.00
H259   H     0.04522   0.80255   0.03628   0.00000  Uiso   1.00
H260   H     0.14822   0.45961   0.32795   0.00000  Uiso   1.00
H261   H     0.08169   0.07598   0.12899   0.00000  Uiso   1.00
H262   H     0.96384   0.91516   0.08057   0.00000  Uiso   1.00
H263   H     0.12120   0.22009   0.08395   0.00000  Uiso   1.00
H264   H     0.17004   0.05746   0.22226   0.00000  Uiso   1.00
H265   H     0.81742   0.79253   0.02716   0.00000  Uiso   1.00
H266   H     0.14924   0.43549   0.03431   0.00000  Uiso   1.00
H267   H     0.25223   0.09255   0.32597   0.00000  Uiso   1.00
O268   O     0.68570   0.87802   0.99632   0.00000  Uiso   1.00
O269   O     0.12103   0.72156   0.00571   0.00000  Uiso   1.00
O270   O     0.25616   0.27164   0.38836   0.00000  Uiso   1.00
N271   N     0.75406   0.09526   0.03533   0.00000  Uiso   1.00
N272   N     0.06428   0.69638   0.04200   0.00000  Uiso   1.00
N273   N     0.16059   0.37579   0.31468   0.00000  Uiso   1.00
N274   N     0.81003   0.89775   0.03426   0.00000  Uiso   1.00
N275   N     0.12025   0.49887   0.04094   0.00000  Uiso   1.00
N276   N     0.21656   0.17828   0.31362   0.00000  Uiso   1.00
C277   C     0.51197   0.90648   0.36923   0.00000  Uiso   1.00
C278   C     0.56277   0.77243   0.39579   0.00000  Uiso   1.00
C279   C     0.63666   0.76976   0.41753   0.00000  Uiso   1.00
C280   C     0.67359   0.63629   0.44001   0.00000  Uiso   1.00
C281   C     0.75791   0.44737   0.48116   0.00000  Uiso   1.00
C282   C     0.47728   0.93810   0.39395   0.00000  Uiso   1.00
C283   C     0.47929   0.07472   0.41415   0.00000  Uiso   1.00
C284   C     0.44424   0.08072   0.43508   0.00000  Uiso   1.00
C285   C     0.39580   0.14903   0.47336   0.00000  Uiso   1.00
C286   C     0.45075   0.84973   0.31881   0.00000  Uiso   1.00
C287   C     0.43043   0.91208   0.27581   0.00000  Uiso   1.00
C288   C     0.37303   0.84369   0.23347   0.00000  Uiso   1.00
C289   C     0.28340   0.77480   0.15507   0.00000  Uiso   1.00
C290   C     0.44615   0.67421   0.37048   0.00000  Uiso   1.00
C291   C     0.52701   0.64628   0.39646   0.00000  Uiso   1.00
C292   C     0.56384   0.51277   0.41891   0.00000  Uiso   1.00
C293   C     0.63777   0.50990   0.44068   0.00000  Uiso   1.00
C294   C     0.44153   0.81195   0.39463   0.00000  Uiso   1.00
C295   C     0.40647   0.81774   0.41553   0.00000  Uiso   1.00
C296   C     0.40842   0.95433   0.43576   0.00000  Uiso   1.00
C297   C     0.41500   0.72357   0.31948   0.00000  Uiso   1.00
C298   C     0.35761   0.65509   0.27720   0.00000  Uiso   1.00
C299   C     0.33722   0.71730   0.23415   0.00000  Uiso   1.00
H300   H     0.53980   0.00470   0.36870   0.00000  Uiso   1.00
H301   H     0.66431   0.86742   0.41700   0.00000  Uiso   1.00
H302   H     0.50695   0.17234   0.41362   0.00000  Uiso   1.00
H303   H     0.45811   0.00970   0.27530   0.00000  Uiso   1.00
H304   H     0.78659   0.65959   0.47086   0.00000  Uiso   1.00
H305   H     0.45478   0.30255   0.46372   0.00000  Uiso   1.00
H306   H     0.35178   0.95961   0.17205   0.00000  Uiso   1.00
H307   H     0.41831   0.57598   0.37101   0.00000  Uiso   1.00
H308   H     0.53616   0.41516   0.41943   0.00000  Uiso   1.00
H309   H     0.37880   0.72009   0.41605   0.00000  Uiso   1.00
H310   H     0.32996   0.55746   0.27774   0.00000  Uiso   1.00
H311   H     0.68258   0.29253   0.47284   0.00000  Uiso   1.00
H312   H     0.35076   0.93549   0.46569   0.00000  Uiso   1.00
H313   H     0.24777   0.59255   0.17403   0.00000  Uiso   1.00
O314   O     0.81430   0.37802   0.50368   0.00000  Uiso   1.00
O315   O     0.37897   0.22156   0.49429   0.00000  Uiso   1.00
O316   O     0.24384   0.77164   0.11164   0.00000  Uiso   1.00
N317   N     0.74594   0.59526   0.46467   0.00000  Uiso   1.00
N318   N     0.43572   0.19638   0.45800   0.00000  Uiso   1.00
N319   N     0.33941   0.87579   0.18532   0.00000  Uiso   1.00
N320   N     0.68997   0.39775   0.46574   0.00000  Uiso   1.00
N321   N     0.37975   0.99887   0.45906   0.00000  Uiso   1.00
N322   N     0.28344   0.67828   0.18638   0.00000  Uiso   1.00
C323   C     0.01197   0.40648   0.36923   0.00000  Uiso   1.00
C324   C     0.06277   0.27243   0.39579   0.00000  Uiso   1.00
C325   C     0.13666   0.26976   0.41753   0.00000  Uiso   1.00
C326   C     0.17359   0.13629   0.44001   0.00000  Uiso   1.00
C327   C     0.25791   0.94737   0.48116   0.00000  Uiso   1.00
C328   C     0.97728   0.43810   0.39395   0.00000  Uiso   1.00
C329   C     0.97929   0.57472   0.41415   0.00000  Uiso   1.00
C330   C     0.94424   0.58072   0.43508   0.00000  Uiso   1.00
C331   C     0.89580   0.64903   0.47336   0.00000  Uiso   1.00
C332   C     0.95075   0.34973   0.31881   0.00000  Uiso   1.00
C333   C     0.93043   0.41208   0.27581   0.00000  Uiso   1.00
C334   C     0.87303   0.34369   0.23347   0.00000  Uiso   1.00
C335   C     0.78340   0.27480   0.15507   0.00000  Uiso   1.00
C336   C     0.94615   0.17421   0.37048   0.00000  Uiso   1.00
C337   C     0.02701   0.14628   0.39646   0.00000  Uiso   1.00
C338   C     0.06384   0.01277   0.41891   0.00000  Uiso   1.00
C339   C     0.13777   0.00990   0.44068   0.00000  Uiso   1.00
C340   C     0.94153   0.31195   0.39463   0.00000  Uiso   1.00
C341   C     0.90647   0.31774   0.41553   0.00000  Uiso   1.00
C342   C     0.90842   0.45433   0.43576   0.00000  Uiso   1.00
C343   C     0.91500   0.22357   0.31948   0.00000  Uiso   1.00
C344   C     0.85761   0.15509   0.27720   0.00000  Uiso   1.00
C345   C     0.83722   0.21730   0.23415   0.00000  Uiso   1.00
H346   H     0.03980   0.50470   0.36870   0.00000  Uiso   1.00
H347   H     0.16431   0.36742   0.41700   0.00000  Uiso   1.00
H348   H     0.00695   0.67234   0.41362   0.00000  Uiso   1.00
H349   H     0.95811   0.50970   0.27530   0.00000  Uiso   1.00
H350   H     0.28659   0.15959   0.47086   0.00000  Uiso   1.00
H351   H     0.95478   0.80255   0.46372   0.00000  Uiso   1.00
H352   H     0.85178   0.45961   0.17205   0.00000  Uiso   1.00
H353   H     0.91831   0.07598   0.37101   0.00000  Uiso   1.00
H354   H     0.03616   0.91516   0.41943   0.00000  Uiso   1.00
H355   H     0.87880   0.22009   0.41605   0.00000  Uiso   1.00
H356   H     0.82996   0.05746   0.27774   0.00000  Uiso   1.00
H357   H     0.18258   0.79253   0.47284   0.00000  Uiso   1.00
H358   H     0.85076   0.43549   0.46569   0.00000  Uiso   1.00
H359   H     0.74777   0.09255   0.17403   0.00000  Uiso   1.00
O360   O     0.31430   0.87802   0.50368   0.00000  Uiso   1.00
O361   O     0.87897   0.72156   0.49429   0.00000  Uiso   1.00
O362   O     0.74384   0.27164   0.11164   0.00000  Uiso   1.00
N363   N     0.24594   0.09526   0.46467   0.00000  Uiso   1.00
N364   N     0.93572   0.69638   0.45800   0.00000  Uiso   1.00
N365   N     0.83941   0.37579   0.18532   0.00000  Uiso   1.00
N366   N     0.18997   0.89775   0.46574   0.00000  Uiso   1.00
N367   N     0.87975   0.49887   0.45906   0.00000  Uiso   1.00
N368   N     0.78344   0.17828   0.18638   0.00000  Uiso   1.00
