data_job_03264
_audit_creation_date              2018-12-19
_audit_creation_method            'Materials Studio'
_symmetry_space_group_name_H-M    'P1'
_symmetry_Int_Tables_number       1
_symmetry_cell_setting            triclinic
loop_
_symmetry_equiv_pos_as_xyz
  x,y,z
_cell_length_a                    22.6296
_cell_length_b                    37.0647
_cell_length_c                    20.6649
_cell_angle_alpha                 90.0000
_cell_angle_beta                  154.5403
_cell_angle_gamma                 90.0000
loop_
_atom_site_label
_atom_site_type_symbol
_atom_site_fract_x
_atom_site_fract_y
_atom_site_fract_z
_atom_site_U_iso_or_equiv
_atom_site_adp_type
_atom_site_occupancy
C1     C     0.44556   0.57157   0.32117   0.00000  Uiso   1.00
C2     C     0.40277   0.57300   0.34980   0.00000  Uiso   1.00
C3     C     0.31571   0.54878   0.29445   0.00000  Uiso   1.00
C4     C     0.28923   0.55475   0.33342   0.00000  Uiso   1.00
C5     C     0.21382   0.55255   0.36396   0.00000  Uiso   1.00
C6     C     0.40552   0.60794   0.25267   0.00000  Uiso   1.00
C7     C     0.32079   0.61310   0.11566   0.00000  Uiso   1.00
C8     C     0.29665   0.64848   0.07288   0.00000  Uiso   1.00
C9     C     0.22559   0.70051   0.95267   0.00000  Uiso   1.00
C10    C     0.60227   0.57055   0.47591   0.00000  Uiso   1.00
C11    C     0.68297   0.54429   0.52660   0.00000  Uiso   1.00
C12    C     0.82449   0.54820   0.67176   0.00000  Uiso   1.00
C13    C     0.05891   0.54219   0.89817   0.00000  Uiso   1.00
C14    C     0.55337   0.62523   0.48882   0.00000  Uiso   1.00
C15    C     0.46132   0.60215   0.44086   0.00000  Uiso   1.00
C16    C     0.43498   0.60815   0.47993   0.00000  Uiso   1.00
C17    C     0.34790   0.58395   0.42464   0.00000  Uiso   1.00
C18    C     0.46407   0.63708   0.34372   0.00000  Uiso   1.00
C19    C     0.44006   0.67247   0.30114   0.00000  Uiso   1.00
C20    C     0.35530   0.67768   0.16410   0.00000  Uiso   1.00
C21    C     0.66082   0.59970   0.56697   0.00000  Uiso   1.00
C22    C     0.80224   0.60366   0.71208   0.00000  Uiso   1.00
C23    C     0.88314   0.57740   0.76298   0.00000  Uiso   1.00
H24    H     0.39997   0.54888   0.25027   0.00000  Uiso   1.00
H25    H     0.27040   0.52623   0.22397   0.00000  Uiso   1.00
H26    H     0.27550   0.59054   0.04523   0.00000  Uiso   1.00
H27    H     0.63762   0.52174   0.45610   0.00000  Uiso   1.00
H28    H     0.15254   0.51398   0.23493   0.00000  Uiso   1.00
H29    H     0.16331   0.64957   0.85805   0.00000  Uiso   1.00
H30    H     0.92693   0.50449   0.72446   0.00000  Uiso   1.00
H31    H     0.59895   0.64793   0.55971   0.00000  Uiso   1.00
H32    H     0.48030   0.63071   0.55039   0.00000  Uiso   1.00
H33    H     0.48539   0.69501   0.37164   0.00000  Uiso   1.00
H34    H     0.84752   0.62621   0.78251   0.00000  Uiso   1.00
H35    H     0.32289   0.59878   0.49985   0.00000  Uiso   1.00
H36    H     0.33367   0.73437   0.12297   0.00000  Uiso   1.00
H37    H     0.09728   0.58929   0.98939   0.00000  Uiso   1.00
O38    O     0.15603   0.54328   0.35564   0.00000  Uiso   1.00
O39    O     0.17020   0.72116   0.86120   0.00000  Uiso   1.00
O40    O     0.17203   0.53082   0.99791   0.00000  Uiso   1.00
N41    N     0.20893   0.53630   0.29858   0.00000  Uiso   1.00
N42    N     0.21899   0.66306   0.94621   0.00000  Uiso   1.00
N43    N     0.93291   0.52743   0.75622   0.00000  Uiso   1.00
N44    N     0.30060   0.58193   0.44114   0.00000  Uiso   1.00
N45    N     0.31066   0.70869   0.08876   0.00000  Uiso   1.00
N46    N     0.02457   0.57306   0.89878   0.00000  Uiso   1.00
C47    C     0.94556   0.07157   0.32117   0.00000  Uiso   1.00
C48    C     0.90277   0.07300   0.34980   0.00000  Uiso   1.00
C49    C     0.81571   0.04878   0.29445   0.00000  Uiso   1.00
C50    C     0.78923   0.05475   0.33342   0.00000  Uiso   1.00
C51    C     0.71382   0.05255   0.36396   0.00000  Uiso   1.00
C52    C     0.90552   0.10794   0.25267   0.00000  Uiso   1.00
C53    C     0.82079   0.11310   0.11566   0.00000  Uiso   1.00
C54    C     0.79665   0.14848   0.07288   0.00000  Uiso   1.00
C55    C     0.72559   0.20051   0.95267   0.00000  Uiso   1.00
C56    C     0.10227   0.07055   0.47591   0.00000  Uiso   1.00
C57    C     0.18297   0.04429   0.52660   0.00000  Uiso   1.00
C58    C     0.32449   0.04820   0.67176   0.00000  Uiso   1.00
C59    C     0.55891   0.04219   0.89817   0.00000  Uiso   1.00
C60    C     0.05337   0.12523   0.48882   0.00000  Uiso   1.00
C61    C     0.96132   0.10215   0.44086   0.00000  Uiso   1.00
C62    C     0.93498   0.10815   0.47993   0.00000  Uiso   1.00
C63    C     0.84790   0.08395   0.42464   0.00000  Uiso   1.00
C64    C     0.96407   0.13708   0.34372   0.00000  Uiso   1.00
C65    C     0.94006   0.17247   0.30114   0.00000  Uiso   1.00
C66    C     0.85530   0.17768   0.16410   0.00000  Uiso   1.00
C67    C     0.16082   0.09970   0.56697   0.00000  Uiso   1.00
C68    C     0.30224   0.10366   0.71208   0.00000  Uiso   1.00
C69    C     0.38314   0.07740   0.76298   0.00000  Uiso   1.00
H70    H     0.89997   0.04888   0.25027   0.00000  Uiso   1.00
H71    H     0.77040   0.02623   0.22397   0.00000  Uiso   1.00
H72    H     0.77550   0.09054   0.04523   0.00000  Uiso   1.00
H73    H     0.13762   0.02174   0.45610   0.00000  Uiso   1.00
H74    H     0.65254   0.01398   0.23493   0.00000  Uiso   1.00
H75    H     0.66331   0.14957   0.85805   0.00000  Uiso   1.00
H76    H     0.42693   0.00449   0.72446   0.00000  Uiso   1.00
H77    H     0.09895   0.14793   0.55971   0.00000  Uiso   1.00
H78    H     0.98030   0.13071   0.55039   0.00000  Uiso   1.00
H79    H     0.98539   0.19501   0.37164   0.00000  Uiso   1.00
H80    H     0.34752   0.12621   0.78251   0.00000  Uiso   1.00
H81    H     0.82289   0.09878   0.49985   0.00000  Uiso   1.00
H82    H     0.83367   0.23437   0.12297   0.00000  Uiso   1.00
H83    H     0.59728   0.08929   0.98939   0.00000  Uiso   1.00
O84    O     0.65603   0.04328   0.35564   0.00000  Uiso   1.00
O85    O     0.67020   0.22116   0.86120   0.00000  Uiso   1.00
O86    O     0.67203   0.03082   0.99791   0.00000  Uiso   1.00
N87    N     0.70893   0.03630   0.29858   0.00000  Uiso   1.00
N88    N     0.71899   0.16306   0.94621   0.00000  Uiso   1.00
N89    N     0.43291   0.02743   0.75622   0.00000  Uiso   1.00
N90    N     0.80060   0.08193   0.44114   0.00000  Uiso   1.00
N91    N     0.81066   0.20869   0.08876   0.00000  Uiso   1.00
N92    N     0.52457   0.07306   0.89878   0.00000  Uiso   1.00
C93    C     0.55444   0.57157   0.17883   0.00000  Uiso   1.00
C94    C     0.59723   0.57300   0.15020   0.00000  Uiso   1.00
C95    C     0.68429   0.54878   0.20555   0.00000  Uiso   1.00
C96    C     0.71077   0.55475   0.16658   0.00000  Uiso   1.00
C97    C     0.78618   0.55255   0.13604   0.00000  Uiso   1.00
C98    C     0.59448   0.60794   0.24733   0.00000  Uiso   1.00
C99    C     0.67921   0.61310   0.38434   0.00000  Uiso   1.00
C100   C     0.70335   0.64848   0.42712   0.00000  Uiso   1.00
C101   C     0.77441   0.70051   0.54733   0.00000  Uiso   1.00
C102   C     0.39773   0.57055   0.02409   0.00000  Uiso   1.00
C103   C     0.31703   0.54429   0.97340   0.00000  Uiso   1.00
C104   C     0.17551   0.54820   0.82824   0.00000  Uiso   1.00
C105   C     0.94109   0.54219   0.60183   0.00000  Uiso   1.00
C106   C     0.44663   0.62523   0.01118   0.00000  Uiso   1.00
C107   C     0.53868   0.60215   0.05914   0.00000  Uiso   1.00
C108   C     0.56502   0.60815   0.02007   0.00000  Uiso   1.00
C109   C     0.65210   0.58395   0.07536   0.00000  Uiso   1.00
C110   C     0.53593   0.63708   0.15628   0.00000  Uiso   1.00
C111   C     0.55994   0.67247   0.19886   0.00000  Uiso   1.00
C112   C     0.64470   0.67768   0.33590   0.00000  Uiso   1.00
C113   C     0.33918   0.59970   0.93303   0.00000  Uiso   1.00
C114   C     0.19776   0.60366   0.78792   0.00000  Uiso   1.00
C115   C     0.11686   0.57740   0.73702   0.00000  Uiso   1.00
H116   H     0.60003   0.54888   0.24973   0.00000  Uiso   1.00
H117   H     0.72960   0.52623   0.27603   0.00000  Uiso   1.00
H118   H     0.72450   0.59054   0.45477   0.00000  Uiso   1.00
H119   H     0.36238   0.52174   0.04390   0.00000  Uiso   1.00
H120   H     0.84746   0.51398   0.26507   0.00000  Uiso   1.00
H121   H     0.83669   0.64957   0.64195   0.00000  Uiso   1.00
H122   H     0.07307   0.50449   0.77554   0.00000  Uiso   1.00
H123   H     0.40105   0.64793   0.94029   0.00000  Uiso   1.00
H124   H     0.51970   0.63071   0.94961   0.00000  Uiso   1.00
H125   H     0.51461   0.69501   0.12836   0.00000  Uiso   1.00
H126   H     0.15248   0.62621   0.71749   0.00000  Uiso   1.00
H127   H     0.67711   0.59878   0.00015   0.00000  Uiso   1.00
H128   H     0.66633   0.73437   0.37703   0.00000  Uiso   1.00
H129   H     0.90272   0.58929   0.51061   0.00000  Uiso   1.00
O130   O     0.84397   0.54328   0.14436   0.00000  Uiso   1.00
O131   O     0.82980   0.72116   0.63880   0.00000  Uiso   1.00
O132   O     0.82797   0.53082   0.50209   0.00000  Uiso   1.00
N133   N     0.79107   0.53630   0.20142   0.00000  Uiso   1.00
N134   N     0.78101   0.66306   0.55379   0.00000  Uiso   1.00
N135   N     0.06709   0.52743   0.74378   0.00000  Uiso   1.00
N136   N     0.69940   0.58193   0.05886   0.00000  Uiso   1.00
N137   N     0.68934   0.70869   0.41124   0.00000  Uiso   1.00
N138   N     0.97543   0.57306   0.60122   0.00000  Uiso   1.00
C139   C     0.05444   0.07157   0.17883   0.00000  Uiso   1.00
C140   C     0.09723   0.07300   0.15020   0.00000  Uiso   1.00
C141   C     0.18429   0.04878   0.20555   0.00000  Uiso   1.00
C142   C     0.21077   0.05475   0.16658   0.00000  Uiso   1.00
C143   C     0.28618   0.05255   0.13604   0.00000  Uiso   1.00
C144   C     0.09448   0.10794   0.24733   0.00000  Uiso   1.00
C145   C     0.17921   0.11310   0.38434   0.00000  Uiso   1.00
C146   C     0.20335   0.14848   0.42712   0.00000  Uiso   1.00
C147   C     0.27441   0.20051   0.54733   0.00000  Uiso   1.00
C148   C     0.89773   0.07055   0.02409   0.00000  Uiso   1.00
C149   C     0.81703   0.04429   0.97340   0.00000  Uiso   1.00
C150   C     0.67551   0.04820   0.82824   0.00000  Uiso   1.00
C151   C     0.44109   0.04219   0.60183   0.00000  Uiso   1.00
C152   C     0.94663   0.12523   0.01118   0.00000  Uiso   1.00
C153   C     0.03868   0.10215   0.05914   0.00000  Uiso   1.00
C154   C     0.06502   0.10815   0.02007   0.00000  Uiso   1.00
C155   C     0.15210   0.08395   0.07536   0.00000  Uiso   1.00
C156   C     0.03593   0.13708   0.15628   0.00000  Uiso   1.00
C157   C     0.05994   0.17247   0.19886   0.00000  Uiso   1.00
C158   C     0.14470   0.17768   0.33590   0.00000  Uiso   1.00
C159   C     0.83918   0.09970   0.93303   0.00000  Uiso   1.00
C160   C     0.69776   0.10366   0.78792   0.00000  Uiso   1.00
C161   C     0.61686   0.07740   0.73702   0.00000  Uiso   1.00
H162   H     0.10003   0.04888   0.24973   0.00000  Uiso   1.00
H163   H     0.22960   0.02623   0.27603   0.00000  Uiso   1.00
H164   H     0.22450   0.09054   0.45477   0.00000  Uiso   1.00
H165   H     0.86238   0.02174   0.04390   0.00000  Uiso   1.00
H166   H     0.34746   0.01398   0.26507   0.00000  Uiso   1.00
H167   H     0.33669   0.14957   0.64195   0.00000  Uiso   1.00
H168   H     0.57307   0.00449   0.77554   0.00000  Uiso   1.00
H169   H     0.90105   0.14793   0.94029   0.00000  Uiso   1.00
H170   H     0.01970   0.13071   0.94961   0.00000  Uiso   1.00
H171   H     0.01461   0.19501   0.12836   0.00000  Uiso   1.00
H172   H     0.65248   0.12621   0.71749   0.00000  Uiso   1.00
H173   H     0.17711   0.09878   0.00015   0.00000  Uiso   1.00
H174   H     0.16633   0.23437   0.37703   0.00000  Uiso   1.00
H175   H     0.40272   0.08929   0.51061   0.00000  Uiso   1.00
O176   O     0.34397   0.04328   0.14436   0.00000  Uiso   1.00
O177   O     0.32980   0.22116   0.63880   0.00000  Uiso   1.00
O178   O     0.32797   0.03082   0.50209   0.00000  Uiso   1.00
N179   N     0.29107   0.03630   0.20142   0.00000  Uiso   1.00
N180   N     0.28101   0.16306   0.55379   0.00000  Uiso   1.00
N181   N     0.56709   0.02743   0.74378   0.00000  Uiso   1.00
N182   N     0.19940   0.08193   0.05886   0.00000  Uiso   1.00
N183   N     0.18934   0.20869   0.41124   0.00000  Uiso   1.00
N184   N     0.47543   0.07306   0.60122   0.00000  Uiso   1.00
C185   C     0.55444   0.42843   0.67883   0.00000  Uiso   1.00
C186   C     0.59723   0.42700   0.65020   0.00000  Uiso   1.00
C187   C     0.68429   0.45122   0.70555   0.00000  Uiso   1.00
C188   C     0.71077   0.44525   0.66658   0.00000  Uiso   1.00
C189   C     0.78618   0.44745   0.63604   0.00000  Uiso   1.00
C190   C     0.59448   0.39206   0.74733   0.00000  Uiso   1.00
C191   C     0.67921   0.38690   0.88434   0.00000  Uiso   1.00
C192   C     0.70335   0.35152   0.92712   0.00000  Uiso   1.00
C193   C     0.77441   0.29949   0.04733   0.00000  Uiso   1.00
C194   C     0.39773   0.42945   0.52409   0.00000  Uiso   1.00
C195   C     0.31703   0.45571   0.47340   0.00000  Uiso   1.00
C196   C     0.17551   0.45180   0.32824   0.00000  Uiso   1.00
C197   C     0.94109   0.45781   0.10183   0.00000  Uiso   1.00
C198   C     0.44663   0.37477   0.51118   0.00000  Uiso   1.00
C199   C     0.53868   0.39785   0.55914   0.00000  Uiso   1.00
C200   C     0.56502   0.39185   0.52007   0.00000  Uiso   1.00
C201   C     0.65210   0.41605   0.57536   0.00000  Uiso   1.00
C202   C     0.53593   0.36292   0.65628   0.00000  Uiso   1.00
C203   C     0.55994   0.32753   0.69886   0.00000  Uiso   1.00
C204   C     0.64470   0.32232   0.83590   0.00000  Uiso   1.00
C205   C     0.33918   0.40030   0.43303   0.00000  Uiso   1.00
C206   C     0.19776   0.39634   0.28792   0.00000  Uiso   1.00
C207   C     0.11686   0.42260   0.23702   0.00000  Uiso   1.00
H208   H     0.60003   0.45112   0.74973   0.00000  Uiso   1.00
H209   H     0.72960   0.47377   0.77603   0.00000  Uiso   1.00
H210   H     0.72450   0.40946   0.95477   0.00000  Uiso   1.00
H211   H     0.36238   0.47826   0.54390   0.00000  Uiso   1.00
H212   H     0.84746   0.48602   0.76507   0.00000  Uiso   1.00
H213   H     0.83669   0.35043   0.14195   0.00000  Uiso   1.00
H214   H     0.07307   0.49551   0.27554   0.00000  Uiso   1.00
H215   H     0.40105   0.35207   0.44029   0.00000  Uiso   1.00
H216   H     0.51970   0.36929   0.44961   0.00000  Uiso   1.00
H217   H     0.51461   0.30499   0.62836   0.00000  Uiso   1.00
H218   H     0.15248   0.37379   0.21749   0.00000  Uiso   1.00
H219   H     0.67711   0.40122   0.50015   0.00000  Uiso   1.00
H220   H     0.66633   0.26563   0.87703   0.00000  Uiso   1.00
H221   H     0.90272   0.41071   0.01061   0.00000  Uiso   1.00
O222   O     0.84397   0.45672   0.64436   0.00000  Uiso   1.00
O223   O     0.82980   0.27884   0.13880   0.00000  Uiso   1.00
O224   O     0.82797   0.46918   0.00209   0.00000  Uiso   1.00
N225   N     0.79107   0.46370   0.70142   0.00000  Uiso   1.00
N226   N     0.78101   0.33694   0.05379   0.00000  Uiso   1.00
N227   N     0.06709   0.47257   0.24378   0.00000  Uiso   1.00
N228   N     0.69940   0.41807   0.55886   0.00000  Uiso   1.00
N229   N     0.68934   0.29131   0.91124   0.00000  Uiso   1.00
N230   N     0.97543   0.42694   0.10122   0.00000  Uiso   1.00
C231   C     0.05444   0.92843   0.67883   0.00000  Uiso   1.00
C232   C     0.09723   0.92700   0.65020   0.00000  Uiso   1.00
C233   C     0.18429   0.95122   0.70555   0.00000  Uiso   1.00
C234   C     0.21077   0.94525   0.66658   0.00000  Uiso   1.00
C235   C     0.28618   0.94745   0.63604   0.00000  Uiso   1.00
C236   C     0.09448   0.89206   0.74733   0.00000  Uiso   1.00
C237   C     0.17921   0.88690   0.88434   0.00000  Uiso   1.00
C238   C     0.20335   0.85152   0.92712   0.00000  Uiso   1.00
C239   C     0.27441   0.79949   0.04733   0.00000  Uiso   1.00
C240   C     0.89773   0.92945   0.52409   0.00000  Uiso   1.00
C241   C     0.81703   0.95571   0.47340   0.00000  Uiso   1.00
C242   C     0.67551   0.95180   0.32824   0.00000  Uiso   1.00
C243   C     0.44109   0.95781   0.10183   0.00000  Uiso   1.00
C244   C     0.94663   0.87477   0.51118   0.00000  Uiso   1.00
C245   C     0.03868   0.89785   0.55914   0.00000  Uiso   1.00
C246   C     0.06502   0.89185   0.52007   0.00000  Uiso   1.00
C247   C     0.15210   0.91605   0.57536   0.00000  Uiso   1.00
C248   C     0.03593   0.86292   0.65628   0.00000  Uiso   1.00
C249   C     0.05994   0.82753   0.69886   0.00000  Uiso   1.00
C250   C     0.14470   0.82232   0.83590   0.00000  Uiso   1.00
C251   C     0.83918   0.90030   0.43303   0.00000  Uiso   1.00
C252   C     0.69776   0.89634   0.28792   0.00000  Uiso   1.00
C253   C     0.61686   0.92260   0.23702   0.00000  Uiso   1.00
H254   H     0.10003   0.95112   0.74973   0.00000  Uiso   1.00
H255   H     0.22960   0.97377   0.77603   0.00000  Uiso   1.00
H256   H     0.22450   0.90946   0.95477   0.00000  Uiso   1.00
H257   H     0.86238   0.97826   0.54390   0.00000  Uiso   1.00
H258   H     0.34746   0.98602   0.76507   0.00000  Uiso   1.00
H259   H     0.33669   0.85043   0.14195   0.00000  Uiso   1.00
H260   H     0.57307   0.99551   0.27554   0.00000  Uiso   1.00
H261   H     0.90105   0.85207   0.44029   0.00000  Uiso   1.00
H262   H     0.01970   0.86929   0.44961   0.00000  Uiso   1.00
H263   H     0.01461   0.80499   0.62836   0.00000  Uiso   1.00
H264   H     0.65248   0.87379   0.21749   0.00000  Uiso   1.00
H265   H     0.17711   0.90122   0.50015   0.00000  Uiso   1.00
H266   H     0.16633   0.76563   0.87703   0.00000  Uiso   1.00
H267   H     0.40272   0.91071   0.01061   0.00000  Uiso   1.00
O268   O     0.34397   0.95672   0.64436   0.00000  Uiso   1.00
O269   O     0.32980   0.77884   0.13880   0.00000  Uiso   1.00
O270   O     0.32797   0.96918   0.00209   0.00000  Uiso   1.00
N271   N     0.29107   0.96370   0.70142   0.00000  Uiso   1.00
N272   N     0.28101   0.83694   0.05379   0.00000  Uiso   1.00
N273   N     0.56709   0.97257   0.24378   0.00000  Uiso   1.00
N274   N     0.19940   0.91807   0.55886   0.00000  Uiso   1.00
N275   N     0.18934   0.79131   0.91124   0.00000  Uiso   1.00
N276   N     0.47543   0.92694   0.10122   0.00000  Uiso   1.00
C277   C     0.44556   0.42843   0.82117   0.00000  Uiso   1.00
C278   C     0.40277   0.42700   0.84980   0.00000  Uiso   1.00
C279   C     0.31571   0.45122   0.79445   0.00000  Uiso   1.00
C280   C     0.28923   0.44525   0.83342   0.00000  Uiso   1.00
C281   C     0.21382   0.44745   0.86396   0.00000  Uiso   1.00
C282   C     0.40552   0.39206   0.75267   0.00000  Uiso   1.00
C283   C     0.32079   0.38690   0.61566   0.00000  Uiso   1.00
C284   C     0.29665   0.35152   0.57288   0.00000  Uiso   1.00
C285   C     0.22559   0.29949   0.45267   0.00000  Uiso   1.00
C286   C     0.60227   0.42945   0.97591   0.00000  Uiso   1.00
C287   C     0.68297   0.45571   0.02660   0.00000  Uiso   1.00
C288   C     0.82449   0.45180   0.17176   0.00000  Uiso   1.00
C289   C     0.05891   0.45781   0.39817   0.00000  Uiso   1.00
C290   C     0.55337   0.37477   0.98882   0.00000  Uiso   1.00
C291   C     0.46132   0.39785   0.94086   0.00000  Uiso   1.00
C292   C     0.43498   0.39185   0.97993   0.00000  Uiso   1.00
C293   C     0.34790   0.41605   0.92464   0.00000  Uiso   1.00
C294   C     0.46407   0.36292   0.84372   0.00000  Uiso   1.00
C295   C     0.44006   0.32753   0.80114   0.00000  Uiso   1.00
C296   C     0.35530   0.32232   0.66410   0.00000  Uiso   1.00
C297   C     0.66082   0.40030   0.06697   0.00000  Uiso   1.00
C298   C     0.80224   0.39634   0.21208   0.00000  Uiso   1.00
C299   C     0.88314   0.42260   0.26298   0.00000  Uiso   1.00
H300   H     0.39997   0.45112   0.75027   0.00000  Uiso   1.00
H301   H     0.27040   0.47377   0.72397   0.00000  Uiso   1.00
H302   H     0.27550   0.40946   0.54523   0.00000  Uiso   1.00
H303   H     0.63762   0.47826   0.95610   0.00000  Uiso   1.00
H304   H     0.15254   0.48602   0.73493   0.00000  Uiso   1.00
H305   H     0.16331   0.35043   0.35805   0.00000  Uiso   1.00
H306   H     0.92693   0.49551   0.22446   0.00000  Uiso   1.00
H307   H     0.59895   0.35207   0.05971   0.00000  Uiso   1.00
H308   H     0.48030   0.36929   0.05039   0.00000  Uiso   1.00
H309   H     0.48539   0.30499   0.87164   0.00000  Uiso   1.00
H310   H     0.84752   0.37379   0.28251   0.00000  Uiso   1.00
H311   H     0.32289   0.40122   0.99985   0.00000  Uiso   1.00
H312   H     0.33367   0.26563   0.62297   0.00000  Uiso   1.00
H313   H     0.09728   0.41071   0.48939   0.00000  Uiso   1.00
O314   O     0.15603   0.45672   0.85564   0.00000  Uiso   1.00
O315   O     0.17020   0.27884   0.36120   0.00000  Uiso   1.00
O316   O     0.17203   0.46918   0.49791   0.00000  Uiso   1.00
N317   N     0.20893   0.46370   0.79858   0.00000  Uiso   1.00
N318   N     0.21899   0.33694   0.44621   0.00000  Uiso   1.00
N319   N     0.93291   0.47257   0.25622   0.00000  Uiso   1.00
N320   N     0.30060   0.41807   0.94114   0.00000  Uiso   1.00
N321   N     0.31066   0.29131   0.58876   0.00000  Uiso   1.00
N322   N     0.02457   0.42694   0.39878   0.00000  Uiso   1.00
C323   C     0.94556   0.92843   0.82117   0.00000  Uiso   1.00
C324   C     0.90277   0.92700   0.84980   0.00000  Uiso   1.00
C325   C     0.81571   0.95122   0.79445   0.00000  Uiso   1.00
C326   C     0.78923   0.94525   0.83342   0.00000  Uiso   1.00
C327   C     0.71382   0.94745   0.86396   0.00000  Uiso   1.00
C328   C     0.90552   0.89206   0.75267   0.00000  Uiso   1.00
C329   C     0.82079   0.88690   0.61566   0.00000  Uiso   1.00
C330   C     0.79665   0.85152   0.57288   0.00000  Uiso   1.00
C331   C     0.72559   0.79949   0.45267   0.00000  Uiso   1.00
C332   C     0.10227   0.92945   0.97591   0.00000  Uiso   1.00
C333   C     0.18297   0.95571   0.02660   0.00000  Uiso   1.00
C334   C     0.32449   0.95180   0.17176   0.00000  Uiso   1.00
C335   C     0.55891   0.95781   0.39817   0.00000  Uiso   1.00
C336   C     0.05337   0.87477   0.98882   0.00000  Uiso   1.00
C337   C     0.96132   0.89785   0.94086   0.00000  Uiso   1.00
C338   C     0.93498   0.89185   0.97993   0.00000  Uiso   1.00
C339   C     0.84790   0.91605   0.92464   0.00000  Uiso   1.00
C340   C     0.96407   0.86292   0.84372   0.00000  Uiso   1.00
C341   C     0.94006   0.82753   0.80114   0.00000  Uiso   1.00
C342   C     0.85530   0.82232   0.66410   0.00000  Uiso   1.00
C343   C     0.16082   0.90030   0.06697   0.00000  Uiso   1.00
C344   C     0.30224   0.89634   0.21208   0.00000  Uiso   1.00
C345   C     0.38314   0.92260   0.26298   0.00000  Uiso   1.00
H346   H     0.89997   0.95112   0.75027   0.00000  Uiso   1.00
H347   H     0.77040   0.97377   0.72397   0.00000  Uiso   1.00
H348   H     0.77550   0.90946   0.54523   0.00000  Uiso   1.00
H349   H     0.13762   0.97826   0.95610   0.00000  Uiso   1.00
H350   H     0.65254   0.98602   0.73493   0.00000  Uiso   1.00
H351   H     0.66331   0.85043   0.35805   0.00000  Uiso   1.00
H352   H     0.42693   0.99551   0.22446   0.00000  Uiso   1.00
H353   H     0.09895   0.85207   0.05971   0.00000  Uiso   1.00
H354   H     0.98030   0.86929   0.05039   0.00000  Uiso   1.00
H355   H     0.98539   0.80499   0.87164   0.00000  Uiso   1.00
H356   H     0.34752   0.87379   0.28251   0.00000  Uiso   1.00
H357   H     0.82289   0.90122   0.99985   0.00000  Uiso   1.00
H358   H     0.83367   0.76563   0.62297   0.00000  Uiso   1.00
H359   H     0.59728   0.91071   0.48939   0.00000  Uiso   1.00
O360   O     0.65603   0.95672   0.85564   0.00000  Uiso   1.00
O361   O     0.67020   0.77884   0.36120   0.00000  Uiso   1.00
O362   O     0.67203   0.96918   0.49791   0.00000  Uiso   1.00
N363   N     0.70893   0.96370   0.79858   0.00000  Uiso   1.00
N364   N     0.71899   0.83694   0.44621   0.00000  Uiso   1.00
N365   N     0.43291   0.97257   0.25622   0.00000  Uiso   1.00
N366   N     0.80060   0.91807   0.94114   0.00000  Uiso   1.00
N367   N     0.81066   0.79131   0.58876   0.00000  Uiso   1.00
N368   N     0.52457   0.92694   0.39878   0.00000  Uiso   1.00
