data_job_02575
_audit_creation_date              2018-12-19
_audit_creation_method            'Materials Studio'
_symmetry_space_group_name_H-M    'P1'
_symmetry_Int_Tables_number       1
_symmetry_cell_setting            triclinic
loop_
_symmetry_equiv_pos_as_xyz
  x,y,z
_cell_length_a                    11.1770
_cell_length_b                    22.7068
_cell_length_c                    10.8927
_cell_angle_alpha                 90.0000
_cell_angle_beta                  88.3874
_cell_angle_gamma                 90.0000
loop_
_atom_site_label
_atom_site_type_symbol
_atom_site_fract_x
_atom_site_fract_y
_atom_site_fract_z
_atom_site_U_iso_or_equiv
_atom_site_adp_type
_atom_site_occupancy
C1     C     0.50066   0.65658   0.10247   0.00000  Uiso   1.00
C2     C     0.63182   0.67128   0.12236   0.00000  Uiso   1.00
C3     C     0.69717   0.65505   0.22340   0.00000  Uiso   1.00
C4     C     0.81601   0.67280   0.22435   0.00000  Uiso   1.00
C5     C     0.01181   0.69066   0.26998   0.00000  Uiso   1.00
C6     C     0.43779   0.71534   0.08345   0.00000  Uiso   1.00
C7     C     0.33999   0.73615   0.15177   0.00000  Uiso   1.00
C8     C     0.29549   0.79099   0.11995   0.00000  Uiso   1.00
C9     C     0.19000   0.87724   0.10511   0.00000  Uiso   1.00
C10    C     0.49737   0.62450   0.97962   0.00000  Uiso   1.00
C11    C     0.44962   0.56893   0.96062   0.00000  Uiso   1.00
C12    C     0.45525   0.54729   0.84138   0.00000  Uiso   1.00
C13    C     0.44227   0.49249   0.66533   0.00000  Uiso   1.00
C14    C     0.59551   0.71697   0.92448   0.00000  Uiso   1.00
C15    C     0.68334   0.70409   0.02568   0.00000  Uiso   1.00
C16    C     0.80211   0.72186   0.02648   0.00000  Uiso   1.00
C17    C     0.86762   0.70566   0.12750   0.00000  Uiso   1.00
C18    C     0.48931   0.74815   0.98678   0.00000  Uiso   1.00
C19    C     0.44493   0.80296   0.95485   0.00000  Uiso   1.00
C20    C     0.34710   0.82385   0.02310   0.00000  Uiso   1.00
C21    C     0.54889   0.65730   0.88294   0.00000  Uiso   1.00
C22    C     0.55458   0.63574   0.76370   0.00000  Uiso   1.00
C23    C     0.50686   0.58015   0.74453   0.00000  Uiso   1.00
H24    H     0.46054   0.63104   0.17773   0.00000  Uiso   1.00
H25    H     0.65726   0.62966   0.29820   0.00000  Uiso   1.00
H26    H     0.30013   0.71075   0.22657   0.00000  Uiso   1.00
H27    H     0.40976   0.54356   0.03546   0.00000  Uiso   1.00
H28    H     0.89806   0.64262   0.38915   0.00000  Uiso   1.00
H29    H     0.14502   0.81359   0.23809   0.00000  Uiso   1.00
H30    H     0.37618   0.46102   0.83509   0.00000  Uiso   1.00
H31    H     0.63562   0.74251   0.84921   0.00000  Uiso   1.00
H32    H     0.84196   0.74725   0.95165   0.00000  Uiso   1.00
H33    H     0.48482   0.82833   0.88002   0.00000  Uiso   1.00
H34    H     0.59445   0.66114   0.68891   0.00000  Uiso   1.00
H35    H     0.04797   0.73806   0.10788   0.00000  Uiso   1.00
H36    H     0.29491   0.90902   0.95682   0.00000  Uiso   1.00
H37    H     0.52609   0.55646   0.55382   0.00000  Uiso   1.00
O38    O     0.10558   0.69147   0.32186   0.00000  Uiso   1.00
O39    O     0.11759   0.91575   0.12365   0.00000  Uiso   1.00
O40    O     0.42089   0.45320   0.59493   0.00000  Uiso   1.00
N41    N     0.90504   0.66442   0.30889   0.00000  Uiso   1.00
N42    N     0.20099   0.82427   0.16766   0.00000  Uiso   1.00
N43    N     0.41709   0.49466   0.79089   0.00000  Uiso   1.00
N44    N     0.98570   0.71578   0.15754   0.00000  Uiso   1.00
N45    N     0.28165   0.87562   0.01631   0.00000  Uiso   1.00
N46    N     0.49775   0.54601   0.63954   0.00000  Uiso   1.00
C47    C     0.49934   0.15658   0.39753   0.00000  Uiso   1.00
C48    C     0.36818   0.17128   0.37764   0.00000  Uiso   1.00
C49    C     0.30283   0.15505   0.27660   0.00000  Uiso   1.00
C50    C     0.18399   0.17280   0.27565   0.00000  Uiso   1.00
C51    C     0.98819   0.19066   0.23002   0.00000  Uiso   1.00
C52    C     0.56221   0.21534   0.41655   0.00000  Uiso   1.00
C53    C     0.66001   0.23615   0.34823   0.00000  Uiso   1.00
C54    C     0.70451   0.29099   0.38005   0.00000  Uiso   1.00
C55    C     0.81000   0.37724   0.39489   0.00000  Uiso   1.00
C56    C     0.50263   0.12450   0.52038   0.00000  Uiso   1.00
C57    C     0.55038   0.06893   0.53938   0.00000  Uiso   1.00
C58    C     0.54475   0.04729   0.65862   0.00000  Uiso   1.00
C59    C     0.55773   0.99249   0.83467   0.00000  Uiso   1.00
C60    C     0.40449   0.21697   0.57552   0.00000  Uiso   1.00
C61    C     0.31666   0.20409   0.47432   0.00000  Uiso   1.00
C62    C     0.19789   0.22186   0.47352   0.00000  Uiso   1.00
C63    C     0.13238   0.20566   0.37250   0.00000  Uiso   1.00
C64    C     0.51069   0.24815   0.51322   0.00000  Uiso   1.00
C65    C     0.55507   0.30296   0.54515   0.00000  Uiso   1.00
C66    C     0.65290   0.32385   0.47690   0.00000  Uiso   1.00
C67    C     0.45111   0.15730   0.61706   0.00000  Uiso   1.00
C68    C     0.44542   0.13574   0.73630   0.00000  Uiso   1.00
C69    C     0.49314   0.08015   0.75547   0.00000  Uiso   1.00
H70    H     0.53946   0.13104   0.32227   0.00000  Uiso   1.00
H71    H     0.34274   0.12966   0.20180   0.00000  Uiso   1.00
H72    H     0.69987   0.21075   0.27343   0.00000  Uiso   1.00
H73    H     0.59024   0.04356   0.46454   0.00000  Uiso   1.00
H74    H     0.10194   0.14262   0.11085   0.00000  Uiso   1.00
H75    H     0.85498   0.31359   0.26191   0.00000  Uiso   1.00
H76    H     0.62382   0.96102   0.66491   0.00000  Uiso   1.00
H77    H     0.36438   0.24251   0.65079   0.00000  Uiso   1.00
H78    H     0.15804   0.24725   0.54835   0.00000  Uiso   1.00
H79    H     0.51518   0.32833   0.61998   0.00000  Uiso   1.00
H80    H     0.40555   0.16114   0.81109   0.00000  Uiso   1.00
H81    H     0.95203   0.23806   0.39212   0.00000  Uiso   1.00
H82    H     0.70509   0.40902   0.54318   0.00000  Uiso   1.00
H83    H     0.47391   0.05646   0.94618   0.00000  Uiso   1.00
O84    O     0.89442   0.19147   0.17814   0.00000  Uiso   1.00
O85    O     0.88241   0.41575   0.37635   0.00000  Uiso   1.00
O86    O     0.57911   0.95320   0.90507   0.00000  Uiso   1.00
N87    N     0.09496   0.16442   0.19111   0.00000  Uiso   1.00
N88    N     0.79901   0.32427   0.33234   0.00000  Uiso   1.00
N89    N     0.58291   0.99466   0.70911   0.00000  Uiso   1.00
N90    N     0.01430   0.21578   0.34246   0.00000  Uiso   1.00
N91    N     0.71835   0.37562   0.48369   0.00000  Uiso   1.00
N92    N     0.50225   0.04601   0.86046   0.00000  Uiso   1.00
C93    C     0.49934   0.34342   0.89753   0.00000  Uiso   1.00
C94    C     0.36818   0.32872   0.87764   0.00000  Uiso   1.00
C95    C     0.30283   0.34495   0.77660   0.00000  Uiso   1.00
C96    C     0.18399   0.32720   0.77565   0.00000  Uiso   1.00
C97    C     0.98819   0.30934   0.73002   0.00000  Uiso   1.00
C98    C     0.56221   0.28466   0.91655   0.00000  Uiso   1.00
C99    C     0.66001   0.26385   0.84823   0.00000  Uiso   1.00
C100   C     0.70451   0.20901   0.88005   0.00000  Uiso   1.00
C101   C     0.81000   0.12276   0.89489   0.00000  Uiso   1.00
C102   C     0.50263   0.37550   0.02038   0.00000  Uiso   1.00
C103   C     0.55038   0.43107   0.03938   0.00000  Uiso   1.00
C104   C     0.54475   0.45271   0.15862   0.00000  Uiso   1.00
C105   C     0.55773   0.50751   0.33467   0.00000  Uiso   1.00
C106   C     0.40449   0.28303   0.07552   0.00000  Uiso   1.00
C107   C     0.31666   0.29591   0.97432   0.00000  Uiso   1.00
C108   C     0.19789   0.27814   0.97352   0.00000  Uiso   1.00
C109   C     0.13238   0.29434   0.87250   0.00000  Uiso   1.00
C110   C     0.51069   0.25185   0.01322   0.00000  Uiso   1.00
C111   C     0.55507   0.19704   0.04515   0.00000  Uiso   1.00
C112   C     0.65290   0.17615   0.97690   0.00000  Uiso   1.00
C113   C     0.45111   0.34270   0.11706   0.00000  Uiso   1.00
C114   C     0.44542   0.36426   0.23630   0.00000  Uiso   1.00
C115   C     0.49314   0.41985   0.25547   0.00000  Uiso   1.00
H116   H     0.53946   0.36896   0.82227   0.00000  Uiso   1.00
H117   H     0.34274   0.37034   0.70180   0.00000  Uiso   1.00
H118   H     0.69987   0.28925   0.77343   0.00000  Uiso   1.00
H119   H     0.59024   0.45644   0.96454   0.00000  Uiso   1.00
H120   H     0.10194   0.35738   0.61085   0.00000  Uiso   1.00
H121   H     0.85498   0.18641   0.76191   0.00000  Uiso   1.00
H122   H     0.62382   0.53898   0.16491   0.00000  Uiso   1.00
H123   H     0.36438   0.25749   0.15079   0.00000  Uiso   1.00
H124   H     0.15804   0.25275   0.04835   0.00000  Uiso   1.00
H125   H     0.51518   0.17167   0.11998   0.00000  Uiso   1.00
H126   H     0.40555   0.33886   0.31109   0.00000  Uiso   1.00
H127   H     0.95203   0.26194   0.89212   0.00000  Uiso   1.00
H128   H     0.70509   0.09098   0.04318   0.00000  Uiso   1.00
H129   H     0.47391   0.44354   0.44618   0.00000  Uiso   1.00
O130   O     0.89442   0.30853   0.67814   0.00000  Uiso   1.00
O131   O     0.88241   0.08425   0.87635   0.00000  Uiso   1.00
O132   O     0.57911   0.54680   0.40507   0.00000  Uiso   1.00
N133   N     0.09496   0.33558   0.69111   0.00000  Uiso   1.00
N134   N     0.79901   0.17573   0.83234   0.00000  Uiso   1.00
N135   N     0.58291   0.50534   0.20911   0.00000  Uiso   1.00
N136   N     0.01430   0.28422   0.84246   0.00000  Uiso   1.00
N137   N     0.71835   0.12438   0.98369   0.00000  Uiso   1.00
N138   N     0.50225   0.45399   0.36046   0.00000  Uiso   1.00
C139   C     0.50066   0.84342   0.60247   0.00000  Uiso   1.00
C140   C     0.63182   0.82872   0.62236   0.00000  Uiso   1.00
C141   C     0.69717   0.84495   0.72340   0.00000  Uiso   1.00
C142   C     0.81601   0.82720   0.72435   0.00000  Uiso   1.00
C143   C     0.01181   0.80934   0.76998   0.00000  Uiso   1.00
C144   C     0.43779   0.78466   0.58345   0.00000  Uiso   1.00
C145   C     0.33999   0.76385   0.65177   0.00000  Uiso   1.00
C146   C     0.29549   0.70901   0.61995   0.00000  Uiso   1.00
C147   C     0.19000   0.62276   0.60511   0.00000  Uiso   1.00
C148   C     0.49737   0.87550   0.47962   0.00000  Uiso   1.00
C149   C     0.44962   0.93107   0.46062   0.00000  Uiso   1.00
C150   C     0.45525   0.95271   0.34138   0.00000  Uiso   1.00
C151   C     0.44227   0.00751   0.16533   0.00000  Uiso   1.00
C152   C     0.59551   0.78303   0.42448   0.00000  Uiso   1.00
C153   C     0.68334   0.79591   0.52568   0.00000  Uiso   1.00
C154   C     0.80211   0.77814   0.52648   0.00000  Uiso   1.00
C155   C     0.86762   0.79434   0.62750   0.00000  Uiso   1.00
C156   C     0.48931   0.75185   0.48678   0.00000  Uiso   1.00
C157   C     0.44493   0.69704   0.45485   0.00000  Uiso   1.00
C158   C     0.34710   0.67615   0.52310   0.00000  Uiso   1.00
C159   C     0.54889   0.84270   0.38294   0.00000  Uiso   1.00
C160   C     0.55458   0.86426   0.26370   0.00000  Uiso   1.00
C161   C     0.50686   0.91985   0.24453   0.00000  Uiso   1.00
H162   H     0.46054   0.86896   0.67773   0.00000  Uiso   1.00
H163   H     0.65726   0.87034   0.79820   0.00000  Uiso   1.00
H164   H     0.30013   0.78925   0.72657   0.00000  Uiso   1.00
H165   H     0.40976   0.95644   0.53546   0.00000  Uiso   1.00
H166   H     0.89806   0.85738   0.88915   0.00000  Uiso   1.00
H167   H     0.14502   0.68641   0.73809   0.00000  Uiso   1.00
H168   H     0.37618   0.03898   0.33509   0.00000  Uiso   1.00
H169   H     0.63562   0.75749   0.34921   0.00000  Uiso   1.00
H170   H     0.84196   0.75275   0.45165   0.00000  Uiso   1.00
H171   H     0.48482   0.67167   0.38002   0.00000  Uiso   1.00
H172   H     0.59445   0.83886   0.18891   0.00000  Uiso   1.00
H173   H     0.04797   0.76194   0.60788   0.00000  Uiso   1.00
H174   H     0.29491   0.59098   0.45682   0.00000  Uiso   1.00
H175   H     0.52609   0.94354   0.05382   0.00000  Uiso   1.00
O176   O     0.10558   0.80853   0.82186   0.00000  Uiso   1.00
O177   O     0.11759   0.58425   0.62365   0.00000  Uiso   1.00
O178   O     0.42089   0.04680   0.09493   0.00000  Uiso   1.00
N179   N     0.90504   0.83558   0.80889   0.00000  Uiso   1.00
N180   N     0.20099   0.67573   0.66766   0.00000  Uiso   1.00
N181   N     0.41709   0.00534   0.29089   0.00000  Uiso   1.00
N182   N     0.98570   0.78422   0.65754   0.00000  Uiso   1.00
N183   N     0.28165   0.62438   0.51631   0.00000  Uiso   1.00
N184   N     0.49775   0.95399   0.13954   0.00000  Uiso   1.00
