data_job_03844
_audit_creation_date              2018-12-19
_audit_creation_method            'Materials Studio'
_symmetry_space_group_name_H-M    'P1'
_symmetry_Int_Tables_number       1
_symmetry_cell_setting            triclinic
loop_
_symmetry_equiv_pos_as_xyz
  x,y,z
_cell_length_a                    16.8874
_cell_length_b                    14.7901
_cell_length_c                    17.9864
_cell_angle_alpha                 90.0000
_cell_angle_beta                  90.0000
_cell_angle_gamma                 90.0000
loop_
_atom_site_label
_atom_site_type_symbol
_atom_site_fract_x
_atom_site_fract_y
_atom_site_fract_z
_atom_site_U_iso_or_equiv
_atom_site_adp_type
_atom_site_occupancy
C1     C     0.73801   0.57448   0.23232   0.00000  Uiso   1.00
C2     C     0.73117   0.49286   0.18092   0.00000  Uiso   1.00
C3     C     0.72968   0.49562   0.10381   0.00000  Uiso   1.00
C4     C     0.72311   0.41353   0.06688   0.00000  Uiso   1.00
C5     C     0.71319   0.29926   0.98115   0.00000  Uiso   1.00
C6     C     0.66645   0.57023   0.28391   0.00000  Uiso   1.00
C7     C     0.61055   0.63804   0.29340   0.00000  Uiso   1.00
C8     C     0.54950   0.62107   0.34318   0.00000  Uiso   1.00
C9     C     0.43913   0.62694   0.41739   0.00000  Uiso   1.00
C10    C     0.81022   0.55707   0.28117   0.00000  Uiso   1.00
C11    C     0.87520   0.61384   0.28838   0.00000  Uiso   1.00
C12    C     0.93519   0.58581   0.33588   0.00000  Uiso   1.00
C13    C     0.04805   0.57125   0.40584   0.00000  Uiso   1.00
C14    C     0.72898   0.42377   0.30387   0.00000  Uiso   1.00
C15    C     0.72626   0.41100   0.21978   0.00000  Uiso   1.00
C16    C     0.71969   0.32888   0.18296   0.00000  Uiso   1.00
C17    C     0.71820   0.33153   0.10581   0.00000  Uiso   1.00
C18    C     0.66154   0.48837   0.32277   0.00000  Uiso   1.00
C19    C     0.60056   0.47130   0.37256   0.00000  Uiso   1.00
C20    C     0.54458   0.53907   0.38211   0.00000  Uiso   1.00
C21    C     0.80531   0.47521   0.32004   0.00000  Uiso   1.00
C22    C     0.86521   0.44710   0.36754   0.00000  Uiso   1.00
C23    C     0.93027   0.50381   0.37481   0.00000  Uiso   1.00
H24    H     0.74183   0.63821   0.20207   0.00000  Uiso   1.00
H25    H     0.73348   0.55899   0.07375   0.00000  Uiso   1.00
H26    H     0.61437   0.70138   0.26332   0.00000  Uiso   1.00
H27    H     0.87898   0.67718   0.25830   0.00000  Uiso   1.00
H28    H     0.72202   0.43506   0.94863   0.00000  Uiso   1.00
H29    H     0.47089   0.73532   0.34836   0.00000  Uiso   1.00
H30    H     0.02888   0.68429   0.33778   0.00000  Uiso   1.00
H31    H     0.72516   0.36004   0.33413   0.00000  Uiso   1.00
H32    H     0.71589   0.26555   0.21305   0.00000  Uiso   1.00
H33    H     0.59678   0.40795   0.40262   0.00000  Uiso   1.00
H34    H     0.86139   0.38375   0.39760   0.00000  Uiso   1.00
H35    H     0.70775   0.19689   0.06169   0.00000  Uiso   1.00
H36    H     0.45662   0.49716   0.46142   0.00000  Uiso   1.00
H37    H     0.01460   0.44612   0.45084   0.00000  Uiso   1.00
O38    O     0.70906   0.25884   0.92313   0.00000  Uiso   1.00
O39    O     0.37960   0.65278   0.44757   0.00000  Uiso   1.00
O40    O     0.11166   0.58582   0.43369   0.00000  Uiso   1.00
N41    N     0.71995   0.39197   0.99185   0.00000  Uiso   1.00
N42    N     0.48515   0.67270   0.36557   0.00000  Uiso   1.00
N43    N     0.00681   0.62500   0.35569   0.00000  Uiso   1.00
N44    N     0.71227   0.26382   0.05269   0.00000  Uiso   1.00
N45    N     0.47747   0.54454   0.42641   0.00000  Uiso   1.00
N46    N     0.99913   0.49684   0.41653   0.00000  Uiso   1.00
C47    C     0.76199   0.92552   0.73232   0.00000  Uiso   1.00
C48    C     0.76883   0.00714   0.68092   0.00000  Uiso   1.00
C49    C     0.77032   0.00438   0.60381   0.00000  Uiso   1.00
C50    C     0.77689   0.08647   0.56688   0.00000  Uiso   1.00
C51    C     0.78681   0.20074   0.48115   0.00000  Uiso   1.00
C52    C     0.83355   0.92977   0.78391   0.00000  Uiso   1.00
C53    C     0.88945   0.86196   0.79340   0.00000  Uiso   1.00
C54    C     0.95050   0.87893   0.84318   0.00000  Uiso   1.00
C55    C     0.06087   0.87306   0.91739   0.00000  Uiso   1.00
C56    C     0.68978   0.94293   0.78117   0.00000  Uiso   1.00
C57    C     0.62480   0.88616   0.78838   0.00000  Uiso   1.00
C58    C     0.56481   0.91419   0.83588   0.00000  Uiso   1.00
C59    C     0.45195   0.92875   0.90584   0.00000  Uiso   1.00
C60    C     0.77102   0.07623   0.80387   0.00000  Uiso   1.00
C61    C     0.77374   0.08900   0.71978   0.00000  Uiso   1.00
C62    C     0.78031   0.17112   0.68296   0.00000  Uiso   1.00
C63    C     0.78180   0.16847   0.60581   0.00000  Uiso   1.00
C64    C     0.83846   0.01163   0.82277   0.00000  Uiso   1.00
C65    C     0.89944   0.02870   0.87256   0.00000  Uiso   1.00
C66    C     0.95542   0.96093   0.88211   0.00000  Uiso   1.00
C67    C     0.69469   0.02479   0.82004   0.00000  Uiso   1.00
C68    C     0.63479   0.05290   0.86754   0.00000  Uiso   1.00
C69    C     0.56973   0.99619   0.87481   0.00000  Uiso   1.00
H70    H     0.75817   0.86179   0.70207   0.00000  Uiso   1.00
H71    H     0.76652   0.94101   0.57375   0.00000  Uiso   1.00
H72    H     0.88563   0.79862   0.76332   0.00000  Uiso   1.00
H73    H     0.62102   0.82282   0.75830   0.00000  Uiso   1.00
H74    H     0.77798   0.06494   0.44863   0.00000  Uiso   1.00
H75    H     0.02911   0.76468   0.84836   0.00000  Uiso   1.00
H76    H     0.47112   0.81571   0.83778   0.00000  Uiso   1.00
H77    H     0.77484   0.13996   0.83413   0.00000  Uiso   1.00
H78    H     0.78411   0.23445   0.71305   0.00000  Uiso   1.00
H79    H     0.90322   0.09205   0.90262   0.00000  Uiso   1.00
H80    H     0.63861   0.11625   0.89760   0.00000  Uiso   1.00
H81    H     0.79225   0.30311   0.56169   0.00000  Uiso   1.00
H82    H     0.04338   0.00284   0.96142   0.00000  Uiso   1.00
H83    H     0.48540   0.05388   0.95084   0.00000  Uiso   1.00
O84    O     0.79094   0.24116   0.42313   0.00000  Uiso   1.00
O85    O     0.12040   0.84722   0.94757   0.00000  Uiso   1.00
O86    O     0.38834   0.91418   0.93369   0.00000  Uiso   1.00
N87    N     0.78005   0.10803   0.49185   0.00000  Uiso   1.00
N88    N     0.01485   0.82730   0.86557   0.00000  Uiso   1.00
N89    N     0.49319   0.87500   0.85569   0.00000  Uiso   1.00
N90    N     0.78773   0.23618   0.55269   0.00000  Uiso   1.00
N91    N     0.02253   0.95546   0.92641   0.00000  Uiso   1.00
N92    N     0.50087   0.00316   0.91653   0.00000  Uiso   1.00
C93    C     0.26199   0.57448   0.26768   0.00000  Uiso   1.00
C94    C     0.26883   0.49286   0.31908   0.00000  Uiso   1.00
C95    C     0.27032   0.49562   0.39619   0.00000  Uiso   1.00
C96    C     0.27689   0.41353   0.43312   0.00000  Uiso   1.00
C97    C     0.28681   0.29926   0.51885   0.00000  Uiso   1.00
C98    C     0.33355   0.57023   0.21609   0.00000  Uiso   1.00
C99    C     0.38945   0.63804   0.20660   0.00000  Uiso   1.00
C100   C     0.45050   0.62107   0.15682   0.00000  Uiso   1.00
C101   C     0.56087   0.62694   0.08261   0.00000  Uiso   1.00
C102   C     0.18978   0.55707   0.21883   0.00000  Uiso   1.00
C103   C     0.12480   0.61384   0.21162   0.00000  Uiso   1.00
C104   C     0.06481   0.58581   0.16412   0.00000  Uiso   1.00
C105   C     0.95195   0.57125   0.09416   0.00000  Uiso   1.00
C106   C     0.27102   0.42377   0.19613   0.00000  Uiso   1.00
C107   C     0.27374   0.41100   0.28022   0.00000  Uiso   1.00
C108   C     0.28031   0.32888   0.31704   0.00000  Uiso   1.00
C109   C     0.28180   0.33153   0.39419   0.00000  Uiso   1.00
C110   C     0.33846   0.48837   0.17723   0.00000  Uiso   1.00
C111   C     0.39944   0.47130   0.12744   0.00000  Uiso   1.00
C112   C     0.45542   0.53907   0.11789   0.00000  Uiso   1.00
C113   C     0.19469   0.47521   0.17996   0.00000  Uiso   1.00
C114   C     0.13479   0.44710   0.13246   0.00000  Uiso   1.00
C115   C     0.06973   0.50381   0.12519   0.00000  Uiso   1.00
H116   H     0.25817   0.63821   0.29793   0.00000  Uiso   1.00
H117   H     0.26652   0.55899   0.42625   0.00000  Uiso   1.00
H118   H     0.38563   0.70138   0.23668   0.00000  Uiso   1.00
H119   H     0.12102   0.67718   0.24170   0.00000  Uiso   1.00
H120   H     0.27798   0.43506   0.55137   0.00000  Uiso   1.00
H121   H     0.52911   0.73532   0.15164   0.00000  Uiso   1.00
H122   H     0.97112   0.68429   0.16222   0.00000  Uiso   1.00
H123   H     0.27484   0.36004   0.16587   0.00000  Uiso   1.00
H124   H     0.28411   0.26555   0.28695   0.00000  Uiso   1.00
H125   H     0.40322   0.40795   0.09738   0.00000  Uiso   1.00
H126   H     0.13861   0.38375   0.10240   0.00000  Uiso   1.00
H127   H     0.29225   0.19689   0.43831   0.00000  Uiso   1.00
H128   H     0.54338   0.49716   0.03858   0.00000  Uiso   1.00
H129   H     0.98540   0.44612   0.04916   0.00000  Uiso   1.00
O130   O     0.29094   0.25884   0.57687   0.00000  Uiso   1.00
O131   O     0.62040   0.65278   0.05243   0.00000  Uiso   1.00
O132   O     0.88834   0.58582   0.06631   0.00000  Uiso   1.00
N133   N     0.28005   0.39197   0.50815   0.00000  Uiso   1.00
N134   N     0.51485   0.67270   0.13443   0.00000  Uiso   1.00
N135   N     0.99319   0.62500   0.14431   0.00000  Uiso   1.00
N136   N     0.28773   0.26382   0.44731   0.00000  Uiso   1.00
N137   N     0.52253   0.54454   0.07359   0.00000  Uiso   1.00
N138   N     0.00087   0.49684   0.08347   0.00000  Uiso   1.00
C139   C     0.23801   0.92552   0.76768   0.00000  Uiso   1.00
C140   C     0.23117   0.00714   0.81908   0.00000  Uiso   1.00
C141   C     0.22968   0.00438   0.89619   0.00000  Uiso   1.00
C142   C     0.22311   0.08647   0.93312   0.00000  Uiso   1.00
C143   C     0.21319   0.20074   0.01885   0.00000  Uiso   1.00
C144   C     0.16645   0.92977   0.71609   0.00000  Uiso   1.00
C145   C     0.11055   0.86196   0.70660   0.00000  Uiso   1.00
C146   C     0.04950   0.87893   0.65682   0.00000  Uiso   1.00
C147   C     0.93913   0.87306   0.58261   0.00000  Uiso   1.00
C148   C     0.31022   0.94293   0.71883   0.00000  Uiso   1.00
C149   C     0.37520   0.88616   0.71162   0.00000  Uiso   1.00
C150   C     0.43519   0.91419   0.66412   0.00000  Uiso   1.00
C151   C     0.54805   0.92875   0.59416   0.00000  Uiso   1.00
C152   C     0.22898   0.07623   0.69613   0.00000  Uiso   1.00
C153   C     0.22626   0.08900   0.78022   0.00000  Uiso   1.00
C154   C     0.21969   0.17112   0.81704   0.00000  Uiso   1.00
C155   C     0.21820   0.16847   0.89419   0.00000  Uiso   1.00
C156   C     0.16154   0.01163   0.67723   0.00000  Uiso   1.00
C157   C     0.10056   0.02870   0.62744   0.00000  Uiso   1.00
C158   C     0.04458   0.96093   0.61789   0.00000  Uiso   1.00
C159   C     0.30531   0.02479   0.67996   0.00000  Uiso   1.00
C160   C     0.36521   0.05290   0.63246   0.00000  Uiso   1.00
C161   C     0.43027   0.99619   0.62519   0.00000  Uiso   1.00
H162   H     0.24183   0.86179   0.79793   0.00000  Uiso   1.00
H163   H     0.23348   0.94101   0.92625   0.00000  Uiso   1.00
H164   H     0.11437   0.79862   0.73668   0.00000  Uiso   1.00
H165   H     0.37898   0.82282   0.74170   0.00000  Uiso   1.00
H166   H     0.22202   0.06494   0.05137   0.00000  Uiso   1.00
H167   H     0.97089   0.76468   0.65164   0.00000  Uiso   1.00
H168   H     0.52888   0.81571   0.66222   0.00000  Uiso   1.00
H169   H     0.22516   0.13996   0.66587   0.00000  Uiso   1.00
H170   H     0.21589   0.23445   0.78695   0.00000  Uiso   1.00
H171   H     0.09678   0.09205   0.59738   0.00000  Uiso   1.00
H172   H     0.36139   0.11625   0.60240   0.00000  Uiso   1.00
H173   H     0.20775   0.30311   0.93831   0.00000  Uiso   1.00
H174   H     0.95662   0.00284   0.53858   0.00000  Uiso   1.00
H175   H     0.51460   0.05388   0.54916   0.00000  Uiso   1.00
O176   O     0.20906   0.24116   0.07687   0.00000  Uiso   1.00
O177   O     0.87960   0.84722   0.55243   0.00000  Uiso   1.00
O178   O     0.61166   0.91418   0.56631   0.00000  Uiso   1.00
N179   N     0.21995   0.10803   0.00815   0.00000  Uiso   1.00
N180   N     0.98515   0.82730   0.63443   0.00000  Uiso   1.00
N181   N     0.50681   0.87500   0.64431   0.00000  Uiso   1.00
N182   N     0.21227   0.23618   0.94731   0.00000  Uiso   1.00
N183   N     0.97747   0.95546   0.57359   0.00000  Uiso   1.00
N184   N     0.49913   0.00316   0.58347   0.00000  Uiso   1.00
C185   C     0.26199   0.42552   0.76768   0.00000  Uiso   1.00
C186   C     0.26883   0.50714   0.81908   0.00000  Uiso   1.00
C187   C     0.27032   0.50438   0.89619   0.00000  Uiso   1.00
C188   C     0.27689   0.58647   0.93312   0.00000  Uiso   1.00
C189   C     0.28681   0.70074   0.01885   0.00000  Uiso   1.00
C190   C     0.33355   0.42977   0.71609   0.00000  Uiso   1.00
C191   C     0.38945   0.36196   0.70660   0.00000  Uiso   1.00
C192   C     0.45050   0.37893   0.65682   0.00000  Uiso   1.00
C193   C     0.56087   0.37306   0.58261   0.00000  Uiso   1.00
C194   C     0.18978   0.44293   0.71883   0.00000  Uiso   1.00
C195   C     0.12480   0.38616   0.71162   0.00000  Uiso   1.00
C196   C     0.06481   0.41419   0.66412   0.00000  Uiso   1.00
C197   C     0.95195   0.42875   0.59416   0.00000  Uiso   1.00
C198   C     0.27102   0.57623   0.69613   0.00000  Uiso   1.00
C199   C     0.27374   0.58900   0.78022   0.00000  Uiso   1.00
C200   C     0.28031   0.67112   0.81704   0.00000  Uiso   1.00
C201   C     0.28180   0.66847   0.89419   0.00000  Uiso   1.00
C202   C     0.33846   0.51163   0.67723   0.00000  Uiso   1.00
C203   C     0.39944   0.52870   0.62744   0.00000  Uiso   1.00
C204   C     0.45542   0.46093   0.61789   0.00000  Uiso   1.00
C205   C     0.19469   0.52479   0.67996   0.00000  Uiso   1.00
C206   C     0.13479   0.55290   0.63246   0.00000  Uiso   1.00
C207   C     0.06973   0.49619   0.62519   0.00000  Uiso   1.00
H208   H     0.25817   0.36179   0.79793   0.00000  Uiso   1.00
H209   H     0.26652   0.44101   0.92625   0.00000  Uiso   1.00
H210   H     0.38563   0.29862   0.73668   0.00000  Uiso   1.00
H211   H     0.12102   0.32282   0.74170   0.00000  Uiso   1.00
H212   H     0.27798   0.56494   0.05137   0.00000  Uiso   1.00
H213   H     0.52911   0.26468   0.65164   0.00000  Uiso   1.00
H214   H     0.97112   0.31571   0.66222   0.00000  Uiso   1.00
H215   H     0.27484   0.63996   0.66587   0.00000  Uiso   1.00
H216   H     0.28411   0.73445   0.78695   0.00000  Uiso   1.00
H217   H     0.40322   0.59205   0.59738   0.00000  Uiso   1.00
H218   H     0.13861   0.61625   0.60240   0.00000  Uiso   1.00
H219   H     0.29225   0.80311   0.93831   0.00000  Uiso   1.00
H220   H     0.54338   0.50284   0.53858   0.00000  Uiso   1.00
H221   H     0.98540   0.55388   0.54916   0.00000  Uiso   1.00
O222   O     0.29094   0.74116   0.07687   0.00000  Uiso   1.00
O223   O     0.62040   0.34722   0.55243   0.00000  Uiso   1.00
O224   O     0.88834   0.41418   0.56631   0.00000  Uiso   1.00
N225   N     0.28005   0.60803   0.00815   0.00000  Uiso   1.00
N226   N     0.51485   0.32730   0.63443   0.00000  Uiso   1.00
N227   N     0.99319   0.37500   0.64431   0.00000  Uiso   1.00
N228   N     0.28773   0.73618   0.94731   0.00000  Uiso   1.00
N229   N     0.52253   0.45546   0.57359   0.00000  Uiso   1.00
N230   N     0.00087   0.50316   0.58347   0.00000  Uiso   1.00
C231   C     0.23801   0.07448   0.26768   0.00000  Uiso   1.00
C232   C     0.23117   0.99286   0.31908   0.00000  Uiso   1.00
C233   C     0.22968   0.99562   0.39619   0.00000  Uiso   1.00
C234   C     0.22311   0.91353   0.43312   0.00000  Uiso   1.00
C235   C     0.21319   0.79926   0.51885   0.00000  Uiso   1.00
C236   C     0.16645   0.07023   0.21609   0.00000  Uiso   1.00
C237   C     0.11055   0.13804   0.20660   0.00000  Uiso   1.00
C238   C     0.04950   0.12107   0.15682   0.00000  Uiso   1.00
C239   C     0.93913   0.12694   0.08261   0.00000  Uiso   1.00
C240   C     0.31022   0.05707   0.21883   0.00000  Uiso   1.00
C241   C     0.37520   0.11384   0.21162   0.00000  Uiso   1.00
C242   C     0.43519   0.08581   0.16412   0.00000  Uiso   1.00
C243   C     0.54805   0.07125   0.09416   0.00000  Uiso   1.00
C244   C     0.22898   0.92377   0.19613   0.00000  Uiso   1.00
C245   C     0.22626   0.91100   0.28022   0.00000  Uiso   1.00
C246   C     0.21969   0.82888   0.31704   0.00000  Uiso   1.00
C247   C     0.21820   0.83153   0.39419   0.00000  Uiso   1.00
C248   C     0.16154   0.98837   0.17723   0.00000  Uiso   1.00
C249   C     0.10056   0.97130   0.12744   0.00000  Uiso   1.00
C250   C     0.04458   0.03907   0.11789   0.00000  Uiso   1.00
C251   C     0.30531   0.97521   0.17996   0.00000  Uiso   1.00
C252   C     0.36521   0.94710   0.13246   0.00000  Uiso   1.00
C253   C     0.43027   0.00381   0.12519   0.00000  Uiso   1.00
H254   H     0.24183   0.13821   0.29793   0.00000  Uiso   1.00
H255   H     0.23348   0.05899   0.42625   0.00000  Uiso   1.00
H256   H     0.11437   0.20138   0.23668   0.00000  Uiso   1.00
H257   H     0.37898   0.17718   0.24170   0.00000  Uiso   1.00
H258   H     0.22202   0.93506   0.55137   0.00000  Uiso   1.00
H259   H     0.97089   0.23532   0.15164   0.00000  Uiso   1.00
H260   H     0.52888   0.18429   0.16222   0.00000  Uiso   1.00
H261   H     0.22516   0.86004   0.16587   0.00000  Uiso   1.00
H262   H     0.21589   0.76555   0.28695   0.00000  Uiso   1.00
H263   H     0.09678   0.90795   0.09738   0.00000  Uiso   1.00
H264   H     0.36139   0.88375   0.10240   0.00000  Uiso   1.00
H265   H     0.20775   0.69689   0.43831   0.00000  Uiso   1.00
H266   H     0.95662   0.99716   0.03858   0.00000  Uiso   1.00
H267   H     0.51460   0.94612   0.04916   0.00000  Uiso   1.00
O268   O     0.20906   0.75884   0.57687   0.00000  Uiso   1.00
O269   O     0.87960   0.15278   0.05243   0.00000  Uiso   1.00
O270   O     0.61166   0.08582   0.06631   0.00000  Uiso   1.00
N271   N     0.21995   0.89197   0.50815   0.00000  Uiso   1.00
N272   N     0.98515   0.17270   0.13443   0.00000  Uiso   1.00
N273   N     0.50681   0.12500   0.14431   0.00000  Uiso   1.00
N274   N     0.21227   0.76382   0.44731   0.00000  Uiso   1.00
N275   N     0.97747   0.04454   0.07359   0.00000  Uiso   1.00
N276   N     0.49913   0.99684   0.08347   0.00000  Uiso   1.00
C277   C     0.73801   0.42552   0.73232   0.00000  Uiso   1.00
C278   C     0.73117   0.50714   0.68092   0.00000  Uiso   1.00
C279   C     0.72968   0.50438   0.60381   0.00000  Uiso   1.00
C280   C     0.72311   0.58647   0.56688   0.00000  Uiso   1.00
C281   C     0.71319   0.70074   0.48115   0.00000  Uiso   1.00
C282   C     0.66645   0.42977   0.78391   0.00000  Uiso   1.00
C283   C     0.61055   0.36196   0.79340   0.00000  Uiso   1.00
C284   C     0.54950   0.37893   0.84318   0.00000  Uiso   1.00
C285   C     0.43913   0.37306   0.91739   0.00000  Uiso   1.00
C286   C     0.81022   0.44293   0.78117   0.00000  Uiso   1.00
C287   C     0.87520   0.38616   0.78838   0.00000  Uiso   1.00
C288   C     0.93519   0.41419   0.83588   0.00000  Uiso   1.00
C289   C     0.04805   0.42875   0.90584   0.00000  Uiso   1.00
C290   C     0.72898   0.57623   0.80387   0.00000  Uiso   1.00
C291   C     0.72626   0.58900   0.71978   0.00000  Uiso   1.00
C292   C     0.71969   0.67112   0.68296   0.00000  Uiso   1.00
C293   C     0.71820   0.66847   0.60581   0.00000  Uiso   1.00
C294   C     0.66154   0.51163   0.82277   0.00000  Uiso   1.00
C295   C     0.60056   0.52870   0.87256   0.00000  Uiso   1.00
C296   C     0.54458   0.46093   0.88211   0.00000  Uiso   1.00
C297   C     0.80531   0.52479   0.82004   0.00000  Uiso   1.00
C298   C     0.86521   0.55290   0.86754   0.00000  Uiso   1.00
C299   C     0.93027   0.49619   0.87481   0.00000  Uiso   1.00
H300   H     0.74183   0.36179   0.70207   0.00000  Uiso   1.00
H301   H     0.73348   0.44101   0.57375   0.00000  Uiso   1.00
H302   H     0.61437   0.29862   0.76332   0.00000  Uiso   1.00
H303   H     0.87898   0.32282   0.75830   0.00000  Uiso   1.00
H304   H     0.72202   0.56494   0.44863   0.00000  Uiso   1.00
H305   H     0.47089   0.26468   0.84836   0.00000  Uiso   1.00
H306   H     0.02888   0.31571   0.83778   0.00000  Uiso   1.00
H307   H     0.72516   0.63996   0.83413   0.00000  Uiso   1.00
H308   H     0.71589   0.73445   0.71305   0.00000  Uiso   1.00
H309   H     0.59678   0.59205   0.90262   0.00000  Uiso   1.00
H310   H     0.86139   0.61625   0.89760   0.00000  Uiso   1.00
H311   H     0.70775   0.80311   0.56169   0.00000  Uiso   1.00
H312   H     0.45662   0.50284   0.96142   0.00000  Uiso   1.00
H313   H     0.01460   0.55388   0.95084   0.00000  Uiso   1.00
O314   O     0.70906   0.74116   0.42313   0.00000  Uiso   1.00
O315   O     0.37960   0.34722   0.94757   0.00000  Uiso   1.00
O316   O     0.11166   0.41418   0.93369   0.00000  Uiso   1.00
N317   N     0.71995   0.60803   0.49185   0.00000  Uiso   1.00
N318   N     0.48515   0.32730   0.86557   0.00000  Uiso   1.00
N319   N     0.00681   0.37500   0.85569   0.00000  Uiso   1.00
N320   N     0.71227   0.73618   0.55269   0.00000  Uiso   1.00
N321   N     0.47747   0.45546   0.92641   0.00000  Uiso   1.00
N322   N     0.99913   0.50316   0.91653   0.00000  Uiso   1.00
C323   C     0.76199   0.07448   0.23232   0.00000  Uiso   1.00
C324   C     0.76883   0.99286   0.18092   0.00000  Uiso   1.00
C325   C     0.77032   0.99562   0.10381   0.00000  Uiso   1.00
C326   C     0.77689   0.91353   0.06688   0.00000  Uiso   1.00
C327   C     0.78681   0.79926   0.98115   0.00000  Uiso   1.00
C328   C     0.83355   0.07023   0.28391   0.00000  Uiso   1.00
C329   C     0.88945   0.13804   0.29340   0.00000  Uiso   1.00
C330   C     0.95050   0.12107   0.34318   0.00000  Uiso   1.00
C331   C     0.06087   0.12694   0.41739   0.00000  Uiso   1.00
C332   C     0.68978   0.05707   0.28117   0.00000  Uiso   1.00
C333   C     0.62480   0.11384   0.28838   0.00000  Uiso   1.00
C334   C     0.56481   0.08581   0.33588   0.00000  Uiso   1.00
C335   C     0.45195   0.07125   0.40584   0.00000  Uiso   1.00
C336   C     0.77102   0.92377   0.30387   0.00000  Uiso   1.00
C337   C     0.77374   0.91100   0.21978   0.00000  Uiso   1.00
C338   C     0.78031   0.82888   0.18296   0.00000  Uiso   1.00
C339   C     0.78180   0.83153   0.10581   0.00000  Uiso   1.00
C340   C     0.83846   0.98837   0.32277   0.00000  Uiso   1.00
C341   C     0.89944   0.97130   0.37256   0.00000  Uiso   1.00
C342   C     0.95542   0.03907   0.38211   0.00000  Uiso   1.00
C343   C     0.69469   0.97521   0.32004   0.00000  Uiso   1.00
C344   C     0.63479   0.94710   0.36754   0.00000  Uiso   1.00
C345   C     0.56973   0.00381   0.37481   0.00000  Uiso   1.00
H346   H     0.75817   0.13821   0.20207   0.00000  Uiso   1.00
H347   H     0.76652   0.05899   0.07375   0.00000  Uiso   1.00
H348   H     0.88563   0.20138   0.26332   0.00000  Uiso   1.00
H349   H     0.62102   0.17718   0.25830   0.00000  Uiso   1.00
H350   H     0.77798   0.93506   0.94863   0.00000  Uiso   1.00
H351   H     0.02911   0.23532   0.34836   0.00000  Uiso   1.00
H352   H     0.47112   0.18429   0.33778   0.00000  Uiso   1.00
H353   H     0.77484   0.86004   0.33413   0.00000  Uiso   1.00
H354   H     0.78411   0.76555   0.21305   0.00000  Uiso   1.00
H355   H     0.90322   0.90795   0.40262   0.00000  Uiso   1.00
H356   H     0.63861   0.88375   0.39760   0.00000  Uiso   1.00
H357   H     0.79225   0.69689   0.06169   0.00000  Uiso   1.00
H358   H     0.04338   0.99716   0.46142   0.00000  Uiso   1.00
H359   H     0.48540   0.94612   0.45084   0.00000  Uiso   1.00
O360   O     0.79094   0.75884   0.92313   0.00000  Uiso   1.00
O361   O     0.12040   0.15278   0.44757   0.00000  Uiso   1.00
O362   O     0.38834   0.08582   0.43369   0.00000  Uiso   1.00
N363   N     0.78005   0.89197   0.99185   0.00000  Uiso   1.00
N364   N     0.01485   0.17270   0.36557   0.00000  Uiso   1.00
N365   N     0.49319   0.12500   0.35569   0.00000  Uiso   1.00
N366   N     0.78773   0.76382   0.05269   0.00000  Uiso   1.00
N367   N     0.02253   0.04454   0.42641   0.00000  Uiso   1.00
N368   N     0.50087   0.99684   0.41653   0.00000  Uiso   1.00
