data_job_06850
_audit_creation_date              2018-12-19
_audit_creation_method            'Materials Studio'
_symmetry_space_group_name_H-M    'P1'
_symmetry_Int_Tables_number       1
_symmetry_cell_setting            triclinic
loop_
_symmetry_equiv_pos_as_xyz
  x,y,z
_cell_length_a                    21.5338
_cell_length_b                    20.6381
_cell_length_c                    18.8697
_cell_angle_alpha                 83.1595
_cell_angle_beta                  78.9457
_cell_angle_gamma                 88.5423
loop_
_atom_site_label
_atom_site_type_symbol
_atom_site_fract_x
_atom_site_fract_y
_atom_site_fract_z
_atom_site_U_iso_or_equiv
_atom_site_adp_type
_atom_site_occupancy
C1     C     0.65115   0.79117   0.42623   0.00000  Uiso   1.00
C2     C     0.71577   0.82037   0.42487   0.00000  Uiso   1.00
C3     C     0.74588   0.86865   0.37310   0.00000  Uiso   1.00
C4     C     0.80483   0.88877   0.38144   0.00000  Uiso   1.00
C5     C     0.90096   0.93823   0.37047   0.00000  Uiso   1.00
C6     C     0.66159   0.71776   0.42696   0.00000  Uiso   1.00
C7     C     0.64614   0.67977   0.37694   0.00000  Uiso   1.00
C8     C     0.65948   0.61351   0.38704   0.00000  Uiso   1.00
C9     C     0.67146   0.50365   0.37935   0.00000  Uiso   1.00
C10    C     0.61113   0.80104   0.50011   0.00000  Uiso   1.00
C11    C     0.55324   0.83306   0.51160   0.00000  Uiso   1.00
C12    C     0.52409   0.83690   0.58329   0.00000  Uiso   1.00
C13    C     0.45772   0.85634   0.68918   0.00000  Uiso   1.00
C14    C     0.70230   0.74105   0.53311   0.00000  Uiso   1.00
C15    C     0.74355   0.79314   0.48293   0.00000  Uiso   1.00
C16    C     0.80247   0.81320   0.49135   0.00000  Uiso   1.00
C17    C     0.83266   0.86150   0.43959   0.00000  Uiso   1.00
C18    C     0.68937   0.69053   0.48501   0.00000  Uiso   1.00
C19    C     0.70274   0.62431   0.49519   0.00000  Uiso   1.00
C20    C     0.68732   0.58623   0.44520   0.00000  Uiso   1.00
C21    C     0.63891   0.77381   0.55816   0.00000  Uiso   1.00
C22    C     0.60984   0.77760   0.62985   0.00000  Uiso   1.00
C23    C     0.55192   0.80962   0.64145   0.00000  Uiso   1.00
H24    H     0.62952   0.81237   0.38104   0.00000  Uiso   1.00
H25    H     0.72436   0.88971   0.32817   0.00000  Uiso   1.00
H26    H     0.62464   0.70085   0.33203   0.00000  Uiso   1.00
H27    H     0.53176   0.85412   0.46666   0.00000  Uiso   1.00
H28    H     0.84178   0.96343   0.29516   0.00000  Uiso   1.00
H29    H     0.63149   0.56521   0.30329   0.00000  Uiso   1.00
H30    H     0.43563   0.88840   0.58720   0.00000  Uiso   1.00
H31    H     0.72393   0.71985   0.57831   0.00000  Uiso   1.00
H32    H     0.82396   0.79212   0.53628   0.00000  Uiso   1.00
H33    H     0.72423   0.60326   0.54012   0.00000  Uiso   1.00
H34    H     0.63135   0.75653   0.67476   0.00000  Uiso   1.00
H35    H     0.92262   0.88422   0.46406   0.00000  Uiso   1.00
H36    H     0.71232   0.48600   0.47219   0.00000  Uiso   1.00
H37    H     0.51646   0.80920   0.75610   0.00000  Uiso   1.00
O38    O     0.94631   0.97302   0.34838   0.00000  Uiso   1.00
O39    O     0.67040   0.45057   0.35906   0.00000  Uiso   1.00
O40    O     0.41344   0.87460   0.73154   0.00000  Uiso   1.00
N41    N     0.84707   0.93488   0.34068   0.00000  Uiso   1.00
N42    N     0.65047   0.56257   0.34828   0.00000  Uiso   1.00
N43    N     0.46735   0.86471   0.61371   0.00000  Uiso   1.00
N44    N     0.89057   0.89226   0.43157   0.00000  Uiso   1.00
N45    N     0.69397   0.51995   0.43916   0.00000  Uiso   1.00
N46    N     0.51085   0.82209   0.70460   0.00000  Uiso   1.00
C47    C     0.53279   0.65603   0.86503   0.00000  Uiso   1.00
C48    C     0.56953   0.71989   0.85217   0.00000  Uiso   1.00
C49    C     0.54706   0.77845   0.87666   0.00000  Uiso   1.00
C50    C     0.58800   0.83130   0.85920   0.00000  Uiso   1.00
C51    C     0.63574   0.93132   0.84535   0.00000  Uiso   1.00
C52    C     0.53309   0.63553   0.78995   0.00000  Uiso   1.00
C53    C     0.47997   0.62314   0.76215   0.00000  Uiso   1.00
C54    C     0.49023   0.60497   0.69231   0.00000  Uiso   1.00
C55    C     0.48138   0.57396   0.58190   0.00000  Uiso   1.00
C56    C     0.57295   0.60564   0.90187   0.00000  Uiso   1.00
C57    C     0.55334   0.56811   0.96816   0.00000  Uiso   1.00
C58    C     0.59716   0.52476   0.99254   0.00000  Uiso   1.00
C59    C     0.65020   0.44735   0.05590   0.00000  Uiso   1.00
C60    C     0.64546   0.64577   0.79046   0.00000  Uiso   1.00
C61    C     0.63073   0.71431   0.81166   0.00000  Uiso   1.00
C62    C     0.67172   0.76709   0.79416   0.00000  Uiso   1.00
C63    C     0.64931   0.82572   0.81862   0.00000  Uiso   1.00
C64    C     0.59429   0.62995   0.74945   0.00000  Uiso   1.00
C65    C     0.60463   0.61179   0.67964   0.00000  Uiso   1.00
C66    C     0.55154   0.59939   0.65173   0.00000  Uiso   1.00
C67    C     0.63415   0.60006   0.86137   0.00000  Uiso   1.00
C68    C     0.67800   0.55676   0.88565   0.00000  Uiso   1.00
C69    C     0.65847   0.51918   0.95197   0.00000  Uiso   1.00
H70    H     0.48514   0.66036   0.89656   0.00000  Uiso   1.00
H71    H     0.49969   0.78274   0.90800   0.00000  Uiso   1.00
H72    H     0.43261   0.62745   0.79351   0.00000  Uiso   1.00
H73    H     0.50597   0.57244   0.99949   0.00000  Uiso   1.00
H74    H     0.54281   0.91597   0.90279   0.00000  Uiso   1.00
H75    H     0.40137   0.58851   0.66139   0.00000  Uiso   1.00
H76    H     0.55607   0.47249   0.09574   0.00000  Uiso   1.00
H77    H     0.69311   0.64143   0.75892   0.00000  Uiso   1.00
H78    H     0.71908   0.76277   0.76281   0.00000  Uiso   1.00
H79    H     0.65200   0.60748   0.64831   0.00000  Uiso   1.00
H80    H     0.72536   0.55246   0.85429   0.00000  Uiso   1.00
H81    H     0.72087   0.89976   0.78495   0.00000  Uiso   1.00
H82    H     0.57943   0.57230   0.54354   0.00000  Uiso   1.00
H83    H     0.73413   0.45628   0.97789   0.00000  Uiso   1.00
O84    O     0.64516   0.98803   0.84889   0.00000  Uiso   1.00
O85    O     0.45960   0.55841   0.53218   0.00000  Uiso   1.00
O86    O     0.66256   0.40620   0.10204   0.00000  Uiso   1.00
N87    N     0.58115   0.89550   0.87454   0.00000  Uiso   1.00
N88    N     0.44892   0.58935   0.64883   0.00000  Uiso   1.00
N89    N     0.59354   0.48087   0.05490   0.00000  Uiso   1.00
N90    N     0.67697   0.88677   0.81113   0.00000  Uiso   1.00
N91    N     0.54473   0.58063   0.58542   0.00000  Uiso   1.00
N92    N     0.68936   0.47215   0.99149   0.00000  Uiso   1.00
C93    C     0.82192   0.42945   0.56358   0.00000  Uiso   1.00
C94    C     0.85896   0.38465   0.61086   0.00000  Uiso   1.00
C95    C     0.89664   0.33246   0.58873   0.00000  Uiso   1.00
C96    C     0.92658   0.29746   0.64013   0.00000  Uiso   1.00
C97    C     0.98520   0.22535   0.70276   0.00000  Uiso   1.00
C98    C     0.75319   0.42613   0.60335   0.00000  Uiso   1.00
C99    C     0.70195   0.40882   0.57490   0.00000  Uiso   1.00
C100   C     0.64286   0.40874   0.61998   0.00000  Uiso   1.00
C101   C     0.53727   0.40107   0.67093   0.00000  Uiso   1.00
C102   C     0.84413   0.49857   0.56607   0.00000  Uiso   1.00
C103   C     0.86934   0.54218   0.50628   0.00000  Uiso   1.00
C104   C     0.88680   0.60311   0.51998   0.00000  Uiso   1.00
C105   C     0.92241   0.70792   0.51305   0.00000  Uiso   1.00
C106   C     0.80808   0.46010   0.69424   0.00000  Uiso   1.00
C107   C     0.85143   0.40130   0.68183   0.00000  Uiso   1.00
C108   C     0.88132   0.36637   0.73328   0.00000  Uiso   1.00
C109   C     0.91905   0.31414   0.71123   0.00000  Uiso   1.00
C110   C     0.74567   0.44277   0.67432   0.00000  Uiso   1.00
C111   C     0.68664   0.44273   0.71945   0.00000  Uiso   1.00
C112   C     0.63532   0.42542   0.69108   0.00000  Uiso   1.00
C113   C     0.83661   0.51522   0.63704   0.00000  Uiso   1.00
C114   C     0.85403   0.57609   0.65084   0.00000  Uiso   1.00
C115   C     0.87926   0.61979   0.59107   0.00000  Uiso   1.00
H116   H     0.82777   0.41649   0.50833   0.00000  Uiso   1.00
H117   H     0.90244   0.31959   0.53380   0.00000  Uiso   1.00
H118   H     0.70779   0.39594   0.51997   0.00000  Uiso   1.00
H119   H     0.87515   0.52928   0.45137   0.00000  Uiso   1.00
H120   H     0.98189   0.21948   0.59335   0.00000  Uiso   1.00
H121   H     0.57145   0.38050   0.56418   0.00000  Uiso   1.00
H122   H     0.92437   0.66168   0.41950   0.00000  Uiso   1.00
H123   H     0.80222   0.47306   0.74949   0.00000  Uiso   1.00
H124   H     0.87549   0.37927   0.78820   0.00000  Uiso   1.00
H125   H     0.68084   0.45562   0.77437   0.00000  Uiso   1.00
H126   H     0.84820   0.58896   0.70576   0.00000  Uiso   1.00
H127   H     0.96002   0.26792   0.79982   0.00000  Uiso   1.00
H128   H     0.54957   0.42894   0.77066   0.00000  Uiso   1.00
H129   H     0.90249   0.71012   0.62598   0.00000  Uiso   1.00
O130   O     0.01960   0.18096   0.71770   0.00000  Uiso   1.00
O131   O     0.48111   0.39223   0.67943   0.00000  Uiso   1.00
O132   O     0.94413   0.76112   0.48962   0.00000  Uiso   1.00
N133   N     0.96670   0.24376   0.63663   0.00000  Uiso   1.00
N134   N     0.58296   0.39430   0.60936   0.00000  Uiso   1.00
N135   N     0.91289   0.65718   0.47410   0.00000  Uiso   1.00
N136   N     0.95493   0.26983   0.74773   0.00000  Uiso   1.00
N137   N     0.57119   0.42036   0.72046   0.00000  Uiso   1.00
N138   N     0.90112   0.68324   0.58520   0.00000  Uiso   1.00
C139   C     0.08768   0.02078   0.36287   0.00000  Uiso   1.00
C140   C     0.14874   0.02902   0.39051   0.00000  Uiso   1.00
C141   C     0.16743   0.99124   0.44872   0.00000  Uiso   1.00
C142   C     0.22496   0.00655   0.46542   0.00000  Uiso   1.00
C143   C     0.31410   0.01152   0.51441   0.00000  Uiso   1.00
C144   C     0.10763   0.01141   0.28272   0.00000  Uiso   1.00
C145   C     0.09174   0.95883   0.25031   0.00000  Uiso   1.00
C146   C     0.11466   0.95932   0.17628   0.00000  Uiso   1.00
C147   C     0.13992   0.93697   0.05793   0.00000  Uiso   1.00
C148   C     0.05393   0.08658   0.36476   0.00000  Uiso   1.00
C149   C     0.99287   0.09721   0.40131   0.00000  Uiso   1.00
C150   C     0.97057   0.16099   0.39634   0.00000  Uiso   1.00
C151   C     0.91245   0.25536   0.40536   0.00000  Uiso   1.00
C152   C     0.15664   0.11515   0.28902   0.00000  Uiso   1.00
C153   C     0.18620   0.08028   0.35039   0.00000  Uiso   1.00
C154   C     0.24372   0.09565   0.36701   0.00000  Uiso   1.00
C155   C     0.26249   0.05790   0.42524   0.00000  Uiso   1.00
C156   C     0.14508   0.06267   0.24261   0.00000  Uiso   1.00
C157   C     0.16803   0.06324   0.16860   0.00000  Uiso   1.00
C158   C     0.15218   0.01067   0.13609   0.00000  Uiso   1.00
C159   C     0.09138   0.13784   0.32465   0.00000  Uiso   1.00
C160   C     0.06917   0.20162   0.31961   0.00000  Uiso   1.00
C161   C     0.00809   0.21234   0.35615   0.00000  Uiso   1.00
H162   H     0.05852   0.98087   0.39409   0.00000  Uiso   1.00
H163   H     0.13843   0.95157   0.47974   0.00000  Uiso   1.00
H164   H     0.06274   0.91917   0.28137   0.00000  Uiso   1.00
H165   H     0.96390   0.05753   0.43235   0.00000  Uiso   1.00
H166   H     0.24355   0.94167   0.55700   0.00000  Uiso   1.00
H167   H     0.08395   0.87336   0.13870   0.00000  Uiso   1.00
H168   H     0.87551   0.16512   0.45708   0.00000  Uiso   1.00
H169   H     0.18580   0.15506   0.25778   0.00000  Uiso   1.00
H170   H     0.27270   0.13532   0.33596   0.00000  Uiso   1.00
H171   H     0.19701   0.10292   0.13758   0.00000  Uiso   1.00
H172   H     0.09816   0.24128   0.28856   0.00000  Uiso   1.00
H173   H     0.35253   0.09081   0.44029   0.00000  Uiso   1.00
H174   H     0.19292   0.02250   0.02200   0.00000  Uiso   1.00
H175   H     0.98449   0.31426   0.34037   0.00000  Uiso   1.00
O176   O     0.35292   0.00010   0.55251   0.00000  Uiso   1.00
O177   O     0.14351   0.91048   0.00373   0.00000  Uiso   1.00
O178   O     0.87005   0.29326   0.42143   0.00000  Uiso   1.00
N179   N     0.25727   0.97949   0.51881   0.00000  Uiso   1.00
N180   N     0.10806   0.91562   0.12773   0.00000  Uiso   1.00
N181   N     0.91318   0.18839   0.42537   0.00000  Uiso   1.00
N182   N     0.31591   0.05974   0.45601   0.00000  Uiso   1.00
N183   N     0.16670   0.99587   0.06494   0.00000  Uiso   1.00
N184   N     0.97182   0.26864   0.36257   0.00000  Uiso   1.00
C185   C     0.96814   0.32545   0.04682   0.00000  Uiso   1.00
C186   C     0.97113   0.37251   0.10255   0.00000  Uiso   1.00
C187   C     0.93360   0.42757   0.11257   0.00000  Uiso   1.00
C188   C     0.94362   0.46428   0.16640   0.00000  Uiso   1.00
C189   C     0.94126   0.54003   0.24653   0.00000  Uiso   1.00
C190   C     0.95652   0.25808   0.08983   0.00000  Uiso   1.00
C191   C     0.90672   0.21693   0.08915   0.00000  Uiso   1.00
C192   C     0.90444   0.15731   0.13227   0.00000  Uiso   1.00
C193   C     0.87942   0.05539   0.19261   0.00000  Uiso   1.00
C194   C     0.03469   0.32334   0.00139   0.00000  Uiso   1.00
C195   C     0.05061   0.33704   0.92634   0.00000  Uiso   1.00
C196   C     0.11415   0.33234   0.89499   0.00000  Uiso   1.00
C197   C     0.21050   0.33175   0.81801   0.00000  Uiso   1.00
C198   C     0.05267   0.29274   0.12458   0.00000  Uiso   1.00
C199   C     0.01705   0.35474   0.14478   0.00000  Uiso   1.00
C200   C     0.02712   0.39137   0.19861   0.00000  Uiso   1.00
C201   C     0.98962   0.44648   0.20871   0.00000  Uiso   1.00
C202   C     0.00243   0.24031   0.13207   0.00000  Uiso   1.00
C203   C     0.00023   0.18073   0.17519   0.00000  Uiso   1.00
C204   C     0.95043   0.13950   0.17458   0.00000  Uiso   1.00
C205   C     0.08061   0.30557   0.04362   0.00000  Uiso   1.00
C206   C     0.14413   0.30085   0.01238   0.00000  Uiso   1.00
C207   C     0.16014   0.31454   0.93730   0.00000  Uiso   1.00
H208   H     0.93240   0.33928   0.01394   0.00000  Uiso   1.00
H209   H     0.89807   0.44130   0.07988   0.00000  Uiso   1.00
H210   H     0.87120   0.23069   0.05646   0.00000  Uiso   1.00
H211   H     0.01507   0.35079   0.89368   0.00000  Uiso   1.00
H212   H     0.88025   0.54656   0.17163   0.00000  Uiso   1.00
H213   H     0.82359   0.10247   0.12223   0.00000  Uiso   1.00
H214   H     0.12697   0.35571   0.77896   0.00000  Uiso   1.00
H215   H     0.08842   0.27890   0.15747   0.00000  Uiso   1.00
H216   H     0.06266   0.37761   0.23128   0.00000  Uiso   1.00
H217   H     0.03577   0.16700   0.20786   0.00000  Uiso   1.00
H218   H     0.17965   0.28709   0.04508   0.00000  Uiso   1.00
H219   H     0.01383   0.49486   0.29452   0.00000  Uiso   1.00
H220   H     0.95717   0.05077   0.24511   0.00000  Uiso   1.00
H221   H     0.26055   0.30401   0.90185   0.00000  Uiso   1.00
O222   O     0.92727   0.58672   0.27906   0.00000  Uiso   1.00
O223   O     0.85293   0.00408   0.21423   0.00000  Uiso   1.00
O224   O     0.25096   0.33634   0.76388   0.00000  Uiso   1.00
N225   N     0.91523   0.52085   0.19041   0.00000  Uiso   1.00
N226   N     0.86225   0.10566   0.14423   0.00000  Uiso   1.00
N227   N     0.14588   0.34240   0.82331   0.00000  Uiso   1.00
N228   N     0.98711   0.49304   0.25654   0.00000  Uiso   1.00
N229   N     0.93413   0.07784   0.21035   0.00000  Uiso   1.00
N230   N     0.21776   0.31458   0.88943   0.00000  Uiso   1.00
C231   C     0.29410   0.13106   0.83178   0.00000  Uiso   1.00
C232   C     0.33075   0.18390   0.85615   0.00000  Uiso   1.00
C233   C     0.37214   0.22816   0.81072   0.00000  Uiso   1.00
C234   C     0.40099   0.27268   0.84359   0.00000  Uiso   1.00
C235   C     0.45971   0.35472   0.86992   0.00000  Uiso   1.00
C236   C     0.22449   0.14280   0.86267   0.00000  Uiso   1.00
C237   C     0.17655   0.15250   0.82272   0.00000  Uiso   1.00
C238   C     0.11596   0.16241   0.86109   0.00000  Uiso   1.00
C239   C     0.00972   0.18059   0.89755   0.00000  Uiso   1.00
C240   C     0.31174   0.06673   0.87190   0.00000  Uiso   1.00
C241   C     0.33714   0.01246   0.83971   0.00000  Uiso   1.00
C242   C     0.35000   0.95832   0.88584   0.00000  Uiso   1.00
C243   C     0.37922   0.85839   0.93663   0.00000  Uiso   1.00
C244   C     0.27174   0.13141   0.97095   0.00000  Uiso   1.00
C245   C     0.31860   0.18408   0.93174   0.00000  Uiso   1.00
C246   C     0.34740   0.22855   0.96469   0.00000  Uiso   1.00
C247   C     0.38883   0.27287   0.91931   0.00000  Uiso   1.00
C248   C     0.21235   0.14299   0.93826   0.00000  Uiso   1.00
C249   C     0.15181   0.15288   0.97669   0.00000  Uiso   1.00
C250   C     0.10379   0.16260   0.93681   0.00000  Uiso   1.00
C251   C     0.29960   0.06691   0.94749   0.00000  Uiso   1.00
C252   C     0.31241   0.01285   0.99368   0.00000  Uiso   1.00
C253   C     0.33783   0.95851   0.96157   0.00000  Uiso   1.00
H254   H     0.30356   0.13091   0.77293   0.00000  Uiso   1.00
H255   H     0.38152   0.22801   0.75222   0.00000  Uiso   1.00
H256   H     0.18597   0.15234   0.76422   0.00000  Uiso   1.00
H257   H     0.34654   0.01233   0.78121   0.00000  Uiso   1.00
H258   H     0.46259   0.33575   0.76259   0.00000  Uiso   1.00
H259   H     0.05024   0.17619   0.78791   0.00000  Uiso   1.00
H260   H     0.38884   0.88094   0.82372   0.00000  Uiso   1.00
H261   H     0.26228   0.13155   0.02981   0.00000  Uiso   1.00
H262   H     0.33799   0.22868   0.02319   0.00000  Uiso   1.00
H263   H     0.14243   0.15302   0.03519   0.00000  Uiso   1.00
H264   H     0.30300   0.01301   0.05218   0.00000  Uiso   1.00
H265   H     0.42725   0.33630   0.98252   0.00000  Uiso   1.00
H266   H     0.01491   0.17674   0.00783   0.00000  Uiso   1.00
H267   H     0.35350   0.88149   0.04365   0.00000  Uiso   1.00
O268   O     0.49545   0.39992   0.86356   0.00000  Uiso   1.00
O269   O     0.95447   0.19058   0.89678   0.00000  Uiso   1.00
O270   O     0.39870   0.80322   0.94376   0.00000  Uiso   1.00
N271   N     0.44389   0.32254   0.81526   0.00000  Uiso   1.00
N272   N     0.05838   0.17338   0.83893   0.00000  Uiso   1.00
N273   N     0.37492   0.89733   0.87241   0.00000  Uiso   1.00
N274   N     0.42488   0.32284   0.93360   0.00000  Uiso   1.00
N275   N     0.03936   0.17367   0.95727   0.00000  Uiso   1.00
N276   N     0.35590   0.89763   0.99075   0.00000  Uiso   1.00
C277   C     0.34885   0.20883   0.57377   0.00000  Uiso   1.00
C278   C     0.28423   0.17963   0.57513   0.00000  Uiso   1.00
C279   C     0.25412   0.13135   0.62690   0.00000  Uiso   1.00
C280   C     0.19517   0.11123   0.61856   0.00000  Uiso   1.00
C281   C     0.09904   0.06177   0.62953   0.00000  Uiso   1.00
C282   C     0.33841   0.28224   0.57304   0.00000  Uiso   1.00
C283   C     0.35386   0.32023   0.62306   0.00000  Uiso   1.00
C284   C     0.34052   0.38649   0.61296   0.00000  Uiso   1.00
C285   C     0.32854   0.49635   0.62065   0.00000  Uiso   1.00
C286   C     0.38887   0.19896   0.49989   0.00000  Uiso   1.00
C287   C     0.44676   0.16694   0.48840   0.00000  Uiso   1.00
C288   C     0.47591   0.16310   0.41671   0.00000  Uiso   1.00
C289   C     0.54228   0.14366   0.31082   0.00000  Uiso   1.00
C290   C     0.29770   0.25895   0.46689   0.00000  Uiso   1.00
C291   C     0.25645   0.20686   0.51707   0.00000  Uiso   1.00
C292   C     0.19753   0.18680   0.50865   0.00000  Uiso   1.00
C293   C     0.16734   0.13850   0.56041   0.00000  Uiso   1.00
C294   C     0.31063   0.30947   0.51499   0.00000  Uiso   1.00
C295   C     0.29726   0.37569   0.50481   0.00000  Uiso   1.00
C296   C     0.31268   0.41377   0.55480   0.00000  Uiso   1.00
C297   C     0.36109   0.22619   0.44184   0.00000  Uiso   1.00
C298   C     0.39016   0.22240   0.37015   0.00000  Uiso   1.00
C299   C     0.44808   0.19038   0.35855   0.00000  Uiso   1.00
H300   H     0.37048   0.18763   0.61896   0.00000  Uiso   1.00
H301   H     0.27564   0.11029   0.67183   0.00000  Uiso   1.00
H302   H     0.37536   0.29915   0.66797   0.00000  Uiso   1.00
H303   H     0.46824   0.14588   0.53334   0.00000  Uiso   1.00
H304   H     0.15822   0.03657   0.70484   0.00000  Uiso   1.00
H305   H     0.36851   0.43479   0.69671   0.00000  Uiso   1.00
H306   H     0.56437   0.11160   0.41280   0.00000  Uiso   1.00
H307   H     0.27607   0.28015   0.42169   0.00000  Uiso   1.00
H308   H     0.17604   0.20788   0.46372   0.00000  Uiso   1.00
H309   H     0.27577   0.39674   0.45988   0.00000  Uiso   1.00
H310   H     0.36865   0.24347   0.32524   0.00000  Uiso   1.00
H311   H     0.07738   0.11578   0.53594   0.00000  Uiso   1.00
H312   H     0.28768   0.51400   0.52781   0.00000  Uiso   1.00
H313   H     0.48354   0.19080   0.24390   0.00000  Uiso   1.00
O314   O     0.05369   0.02698   0.65162   0.00000  Uiso   1.00
O315   O     0.32960   0.54943   0.64094   0.00000  Uiso   1.00
O316   O     0.58656   0.12540   0.26846   0.00000  Uiso   1.00
N317   N     0.15293   0.06512   0.65932   0.00000  Uiso   1.00
N318   N     0.34953   0.43743   0.65172   0.00000  Uiso   1.00
N319   N     0.53265   0.13529   0.38629   0.00000  Uiso   1.00
N320   N     0.10943   0.10774   0.56843   0.00000  Uiso   1.00
N321   N     0.30603   0.48005   0.56084   0.00000  Uiso   1.00
N322   N     0.48915   0.17791   0.29540   0.00000  Uiso   1.00
C323   C     0.46721   0.34397   0.13497   0.00000  Uiso   1.00
C324   C     0.43047   0.28011   0.14783   0.00000  Uiso   1.00
C325   C     0.45294   0.22155   0.12334   0.00000  Uiso   1.00
C326   C     0.41200   0.16870   0.14080   0.00000  Uiso   1.00
C327   C     0.36426   0.06868   0.15465   0.00000  Uiso   1.00
C328   C     0.46691   0.36447   0.21005   0.00000  Uiso   1.00
C329   C     0.52003   0.37686   0.23785   0.00000  Uiso   1.00
C330   C     0.50977   0.39503   0.30769   0.00000  Uiso   1.00
C331   C     0.51862   0.42604   0.41810   0.00000  Uiso   1.00
C332   C     0.42705   0.39436   0.09813   0.00000  Uiso   1.00
C333   C     0.44666   0.43189   0.03184   0.00000  Uiso   1.00
C334   C     0.40284   0.47524   0.00746   0.00000  Uiso   1.00
C335   C     0.34980   0.55265   0.94410   0.00000  Uiso   1.00
C336   C     0.35454   0.35423   0.20954   0.00000  Uiso   1.00
C337   C     0.36927   0.28569   0.18834   0.00000  Uiso   1.00
C338   C     0.32828   0.23291   0.20584   0.00000  Uiso   1.00
C339   C     0.35069   0.17428   0.18138   0.00000  Uiso   1.00
C340   C     0.40571   0.37005   0.25055   0.00000  Uiso   1.00
C341   C     0.39537   0.38821   0.32036   0.00000  Uiso   1.00
C342   C     0.44846   0.40061   0.34827   0.00000  Uiso   1.00
C343   C     0.36585   0.39994   0.13863   0.00000  Uiso   1.00
C344   C     0.32200   0.44324   0.11435   0.00000  Uiso   1.00
C345   C     0.34153   0.48082   0.04803   0.00000  Uiso   1.00
H346   H     0.51486   0.33964   0.10344   0.00000  Uiso   1.00
H347   H     0.50031   0.21726   0.09200   0.00000  Uiso   1.00
H348   H     0.56739   0.37255   0.20649   0.00000  Uiso   1.00
H349   H     0.49403   0.42756   0.00051   0.00000  Uiso   1.00
H350   H     0.45719   0.08403   0.09721   0.00000  Uiso   1.00
H351   H     0.59863   0.41149   0.33861   0.00000  Uiso   1.00
H352   H     0.44393   0.52751   0.90426   0.00000  Uiso   1.00
H353   H     0.30689   0.35857   0.24108   0.00000  Uiso   1.00
H354   H     0.28092   0.23723   0.23719   0.00000  Uiso   1.00
H355   H     0.34800   0.39252   0.35169   0.00000  Uiso   1.00
H356   H     0.27464   0.44754   0.14571   0.00000  Uiso   1.00
H357   H     0.27913   0.10024   0.21505   0.00000  Uiso   1.00
H358   H     0.42057   0.42770   0.45646   0.00000  Uiso   1.00
H359   H     0.26587   0.54372   0.02211   0.00000  Uiso   1.00
O360   O     0.35484   0.01197   0.15111   0.00000  Uiso   1.00
O361   O     0.54040   0.44159   0.46782   0.00000  Uiso   1.00
O362   O     0.33744   0.59380   0.89796   0.00000  Uiso   1.00
N363   N     0.41885   0.10450   0.12546   0.00000  Uiso   1.00
N364   N     0.55108   0.41065   0.35117   0.00000  Uiso   1.00
N365   N     0.40646   0.51913   0.94510   0.00000  Uiso   1.00
N366   N     0.32303   0.11323   0.18887   0.00000  Uiso   1.00
N367   N     0.45527   0.41937   0.41458   0.00000  Uiso   1.00
N368   N     0.31064   0.52785   0.00851   0.00000  Uiso   1.00
C369   C     0.17808   0.57055   0.43642   0.00000  Uiso   1.00
C370   C     0.14104   0.61535   0.38914   0.00000  Uiso   1.00
C371   C     0.10336   0.66754   0.41127   0.00000  Uiso   1.00
C372   C     0.07342   0.70254   0.35987   0.00000  Uiso   1.00
C373   C     0.01480   0.77465   0.29724   0.00000  Uiso   1.00
C374   C     0.24681   0.57387   0.39665   0.00000  Uiso   1.00
C375   C     0.29805   0.59118   0.42510   0.00000  Uiso   1.00
C376   C     0.35714   0.59126   0.38002   0.00000  Uiso   1.00
C377   C     0.46273   0.59893   0.32907   0.00000  Uiso   1.00
C378   C     0.15587   0.50143   0.43393   0.00000  Uiso   1.00
C379   C     0.13066   0.45782   0.49372   0.00000  Uiso   1.00
C380   C     0.11320   0.39689   0.48002   0.00000  Uiso   1.00
C381   C     0.07759   0.29208   0.48695   0.00000  Uiso   1.00
C382   C     0.19192   0.53990   0.30576   0.00000  Uiso   1.00
C383   C     0.14857   0.59870   0.31817   0.00000  Uiso   1.00
C384   C     0.11868   0.63363   0.26672   0.00000  Uiso   1.00
C385   C     0.08095   0.68586   0.28877   0.00000  Uiso   1.00
C386   C     0.25433   0.55723   0.32568   0.00000  Uiso   1.00
C387   C     0.31336   0.55727   0.28055   0.00000  Uiso   1.00
C388   C     0.36468   0.57458   0.30892   0.00000  Uiso   1.00
C389   C     0.16339   0.48478   0.36296   0.00000  Uiso   1.00
C390   C     0.14597   0.42391   0.34916   0.00000  Uiso   1.00
C391   C     0.12074   0.38021   0.40893   0.00000  Uiso   1.00
H392   H     0.17223   0.58351   0.49167   0.00000  Uiso   1.00
H393   H     0.09756   0.68041   0.46620   0.00000  Uiso   1.00
H394   H     0.29221   0.60406   0.48003   0.00000  Uiso   1.00
H395   H     0.12485   0.47072   0.54863   0.00000  Uiso   1.00
H396   H     0.01811   0.78052   0.40665   0.00000  Uiso   1.00
H397   H     0.42855   0.61950   0.43582   0.00000  Uiso   1.00
H398   H     0.07563   0.33832   0.58050   0.00000  Uiso   1.00
H399   H     0.19778   0.52694   0.25051   0.00000  Uiso   1.00
H400   H     0.12451   0.62073   0.21180   0.00000  Uiso   1.00
H401   H     0.31916   0.54438   0.22563   0.00000  Uiso   1.00
H402   H     0.15180   0.41104   0.29424   0.00000  Uiso   1.00
H403   H     0.03998   0.73208   0.20018   0.00000  Uiso   1.00
H404   H     0.45043   0.57106   0.22934   0.00000  Uiso   1.00
H405   H     0.09751   0.28988   0.37402   0.00000  Uiso   1.00
O406   O     0.98040   0.81904   0.28230   0.00000  Uiso   1.00
O407   O     0.51889   0.60777   0.32057   0.00000  Uiso   1.00
O408   O     0.05587   0.23888   0.51038   0.00000  Uiso   1.00
N409   N     0.03330   0.75624   0.36337   0.00000  Uiso   1.00
N410   N     0.41704   0.60570   0.39064   0.00000  Uiso   1.00
N411   N     0.08711   0.34282   0.52590   0.00000  Uiso   1.00
N412   N     0.04507   0.73017   0.25227   0.00000  Uiso   1.00
N413   N     0.42881   0.57964   0.27954   0.00000  Uiso   1.00
N414   N     0.09888   0.31676   0.41480   0.00000  Uiso   1.00
C415   C     0.91232   0.97922   0.63713   0.00000  Uiso   1.00
C416   C     0.85126   0.97098   0.60949   0.00000  Uiso   1.00
C417   C     0.83257   0.00876   0.55128   0.00000  Uiso   1.00
C418   C     0.77504   0.99345   0.53458   0.00000  Uiso   1.00
C419   C     0.68590   0.98848   0.48559   0.00000  Uiso   1.00
C420   C     0.89237   0.98859   0.71728   0.00000  Uiso   1.00
C421   C     0.90826   0.04117   0.74969   0.00000  Uiso   1.00
C422   C     0.88534   0.04068   0.82372   0.00000  Uiso   1.00
C423   C     0.86008   0.06303   0.94207   0.00000  Uiso   1.00
C424   C     0.94607   0.91342   0.63524   0.00000  Uiso   1.00
C425   C     0.00713   0.90279   0.59869   0.00000  Uiso   1.00
C426   C     0.02943   0.83901   0.60366   0.00000  Uiso   1.00
C427   C     0.08755   0.74464   0.59464   0.00000  Uiso   1.00
C428   C     0.84336   0.88485   0.71098   0.00000  Uiso   1.00
C429   C     0.81380   0.91972   0.64961   0.00000  Uiso   1.00
C430   C     0.75628   0.90435   0.63299   0.00000  Uiso   1.00
C431   C     0.73751   0.94210   0.57476   0.00000  Uiso   1.00
C432   C     0.85492   0.93733   0.75739   0.00000  Uiso   1.00
C433   C     0.83197   0.93676   0.83140   0.00000  Uiso   1.00
C434   C     0.84782   0.98933   0.86391   0.00000  Uiso   1.00
C435   C     0.90862   0.86216   0.67535   0.00000  Uiso   1.00
C436   C     0.93083   0.79838   0.68039   0.00000  Uiso   1.00
C437   C     0.99191   0.78766   0.64385   0.00000  Uiso   1.00
H438   H     0.94148   0.01913   0.60591   0.00000  Uiso   1.00
H439   H     0.86157   0.04843   0.52026   0.00000  Uiso   1.00
H440   H     0.93726   0.08083   0.71863   0.00000  Uiso   1.00
H441   H     0.03610   0.94247   0.56765   0.00000  Uiso   1.00
H442   H     0.75645   0.05833   0.44300   0.00000  Uiso   1.00
H443   H     0.91605   0.12664   0.86130   0.00000  Uiso   1.00
H444   H     0.12449   0.83488   0.54292   0.00000  Uiso   1.00
H445   H     0.81420   0.84494   0.74222   0.00000  Uiso   1.00
H446   H     0.72730   0.86468   0.66404   0.00000  Uiso   1.00
H447   H     0.80299   0.89708   0.86242   0.00000  Uiso   1.00
H448   H     0.90184   0.75872   0.71144   0.00000  Uiso   1.00
H449   H     0.64747   0.90919   0.55971   0.00000  Uiso   1.00
H450   H     0.80708   0.97750   0.97800   0.00000  Uiso   1.00
H451   H     0.01551   0.68574   0.65963   0.00000  Uiso   1.00
O452   O     0.64708   0.99990   0.44749   0.00000  Uiso   1.00
O453   O     0.85649   0.08952   0.99627   0.00000  Uiso   1.00
O454   O     0.12995   0.70674   0.57857   0.00000  Uiso   1.00
N455   N     0.74273   0.02051   0.48119   0.00000  Uiso   1.00
N456   N     0.89194   0.08438   0.87227   0.00000  Uiso   1.00
N457   N     0.08682   0.81161   0.57463   0.00000  Uiso   1.00
N458   N     0.68409   0.94026   0.54399   0.00000  Uiso   1.00
N459   N     0.83330   0.00413   0.93506   0.00000  Uiso   1.00
N460   N     0.02818   0.73136   0.63743   0.00000  Uiso   1.00
C461   C     0.03186   0.67455   0.95318   0.00000  Uiso   1.00
C462   C     0.02887   0.62749   0.89745   0.00000  Uiso   1.00
C463   C     0.06640   0.57243   0.88743   0.00000  Uiso   1.00
C464   C     0.05638   0.53572   0.83360   0.00000  Uiso   1.00
C465   C     0.05874   0.45997   0.75347   0.00000  Uiso   1.00
C466   C     0.04348   0.74192   0.91017   0.00000  Uiso   1.00
C467   C     0.09328   0.78307   0.91085   0.00000  Uiso   1.00
C468   C     0.09556   0.84269   0.86773   0.00000  Uiso   1.00
C469   C     0.12058   0.94461   0.80739   0.00000  Uiso   1.00
C470   C     0.96531   0.67666   0.99861   0.00000  Uiso   1.00
C471   C     0.94939   0.66296   0.07366   0.00000  Uiso   1.00
C472   C     0.88585   0.66766   0.10501   0.00000  Uiso   1.00
C473   C     0.78950   0.66825   0.18199   0.00000  Uiso   1.00
C474   C     0.94733   0.70726   0.87542   0.00000  Uiso   1.00
C475   C     0.98295   0.64526   0.85522   0.00000  Uiso   1.00
C476   C     0.97288   0.60863   0.80139   0.00000  Uiso   1.00
C477   C     0.01038   0.55352   0.79129   0.00000  Uiso   1.00
C478   C     0.99757   0.75969   0.86793   0.00000  Uiso   1.00
C479   C     0.99977   0.81927   0.82481   0.00000  Uiso   1.00
C480   C     0.04957   0.86050   0.82542   0.00000  Uiso   1.00
C481   C     0.91939   0.69443   0.95638   0.00000  Uiso   1.00
C482   C     0.85587   0.69915   0.98762   0.00000  Uiso   1.00
C483   C     0.83986   0.68546   0.06270   0.00000  Uiso   1.00
H484   H     0.06760   0.66072   0.98606   0.00000  Uiso   1.00
H485   H     0.10193   0.55870   0.92012   0.00000  Uiso   1.00
H486   H     0.12880   0.76931   0.94354   0.00000  Uiso   1.00
H487   H     0.98493   0.64921   0.10632   0.00000  Uiso   1.00
H488   H     0.11975   0.45344   0.82837   0.00000  Uiso   1.00
H489   H     0.17641   0.89753   0.87777   0.00000  Uiso   1.00
H490   H     0.87303   0.64429   0.22104   0.00000  Uiso   1.00
H491   H     0.91158   0.72110   0.84253   0.00000  Uiso   1.00
H492   H     0.93734   0.62239   0.76872   0.00000  Uiso   1.00
H493   H     0.96423   0.83300   0.79214   0.00000  Uiso   1.00
H494   H     0.82035   0.71291   0.95492   0.00000  Uiso   1.00
H495   H     0.98617   0.50514   0.70548   0.00000  Uiso   1.00
H496   H     0.04283   0.94923   0.75489   0.00000  Uiso   1.00
H497   H     0.73945   0.69599   0.09815   0.00000  Uiso   1.00
O498   O     0.07273   0.41328   0.72094   0.00000  Uiso   1.00
O499   O     0.14707   0.99592   0.78577   0.00000  Uiso   1.00
O500   O     0.74904   0.66366   0.23612   0.00000  Uiso   1.00
N501   N     0.08477   0.47915   0.80959   0.00000  Uiso   1.00
N502   N     0.13775   0.89434   0.85577   0.00000  Uiso   1.00
N503   N     0.85412   0.65760   0.17669   0.00000  Uiso   1.00
N504   N     0.01289   0.50696   0.74346   0.00000  Uiso   1.00
N505   N     0.06587   0.92216   0.78965   0.00000  Uiso   1.00
N506   N     0.78224   0.68542   0.11057   0.00000  Uiso   1.00
C507   C     0.70590   0.86894   0.16822   0.00000  Uiso   1.00
C508   C     0.66925   0.81610   0.14385   0.00000  Uiso   1.00
C509   C     0.62786   0.77184   0.18928   0.00000  Uiso   1.00
C510   C     0.59901   0.72732   0.15641   0.00000  Uiso   1.00
C511   C     0.54029   0.64528   0.13008   0.00000  Uiso   1.00
C512   C     0.77551   0.85720   0.13733   0.00000  Uiso   1.00
C513   C     0.82345   0.84750   0.17728   0.00000  Uiso   1.00
C514   C     0.88404   0.83759   0.13891   0.00000  Uiso   1.00
C515   C     0.99028   0.81941   0.10245   0.00000  Uiso   1.00
C516   C     0.68826   0.93327   0.12810   0.00000  Uiso   1.00
C517   C     0.66286   0.98754   0.16029   0.00000  Uiso   1.00
C518   C     0.65000   0.04168   0.11416   0.00000  Uiso   1.00
C519   C     0.62078   0.14161   0.06337   0.00000  Uiso   1.00
C520   C     0.72826   0.86859   0.02905   0.00000  Uiso   1.00
C521   C     0.68140   0.81592   0.06826   0.00000  Uiso   1.00
C522   C     0.65260   0.77145   0.03531   0.00000  Uiso   1.00
C523   C     0.61117   0.72713   0.08069   0.00000  Uiso   1.00
C524   C     0.78765   0.85701   0.06174   0.00000  Uiso   1.00
C525   C     0.84819   0.84712   0.02331   0.00000  Uiso   1.00
C526   C     0.89621   0.83740   0.06319   0.00000  Uiso   1.00
C527   C     0.70040   0.93309   0.05251   0.00000  Uiso   1.00
C528   C     0.68759   0.98715   0.00632   0.00000  Uiso   1.00
C529   C     0.66217   0.04149   0.03843   0.00000  Uiso   1.00
H530   H     0.69644   0.86909   0.22707   0.00000  Uiso   1.00
H531   H     0.61848   0.77199   0.24778   0.00000  Uiso   1.00
H532   H     0.81403   0.84766   0.23578   0.00000  Uiso   1.00
H533   H     0.65346   0.98767   0.21879   0.00000  Uiso   1.00
H534   H     0.53741   0.66425   0.23741   0.00000  Uiso   1.00
H535   H     0.94976   0.82381   0.21209   0.00000  Uiso   1.00
H536   H     0.61116   0.11906   0.17628   0.00000  Uiso   1.00
H537   H     0.73772   0.86845   0.97019   0.00000  Uiso   1.00
H538   H     0.66201   0.77132   0.97681   0.00000  Uiso   1.00
H539   H     0.85757   0.84698   0.96481   0.00000  Uiso   1.00
H540   H     0.69700   0.98699   0.94782   0.00000  Uiso   1.00
H541   H     0.57275   0.66370   0.01748   0.00000  Uiso   1.00
H542   H     0.98509   0.82326   0.99217   0.00000  Uiso   1.00
H543   H     0.64650   0.11851   0.95635   0.00000  Uiso   1.00
O544   O     0.50455   0.60008   0.13644   0.00000  Uiso   1.00
O545   O     0.04553   0.80942   0.10322   0.00000  Uiso   1.00
O546   O     0.60130   0.19678   0.05624   0.00000  Uiso   1.00
N547   N     0.55611   0.67746   0.18474   0.00000  Uiso   1.00
N548   N     0.94162   0.82662   0.16107   0.00000  Uiso   1.00
N549   N     0.62508   0.10267   0.12759   0.00000  Uiso   1.00
N550   N     0.57512   0.67716   0.06640   0.00000  Uiso   1.00
N551   N     0.96064   0.82633   0.04273   0.00000  Uiso   1.00
N552   N     0.64410   0.10237   0.00925   0.00000  Uiso   1.00
