data_job_03216
_audit_creation_date              2018-12-19
_audit_creation_method            'Materials Studio'
_symmetry_space_group_name_H-M    'P1'
_symmetry_Int_Tables_number       1
_symmetry_cell_setting            triclinic
loop_
_symmetry_equiv_pos_as_xyz
  x,y,z
_cell_length_a                    13.1012
_cell_length_b                    44.1169
_cell_length_c                    10.3987
_cell_angle_alpha                 90.0000
_cell_angle_beta                  90.0000
_cell_angle_gamma                 90.0000
loop_
_atom_site_label
_atom_site_type_symbol
_atom_site_fract_x
_atom_site_fract_y
_atom_site_fract_z
_atom_site_U_iso_or_equiv
_atom_site_adp_type
_atom_site_occupancy
C1     C     0.31385   0.90411   0.47129   0.00000  Uiso   1.00
C2     C     0.29525   0.87327   0.53328   0.00000  Uiso   1.00
C3     C     0.20421   0.85721   0.53046   0.00000  Uiso   1.00
C4     C     0.20268   0.82940   0.59296   0.00000  Uiso   1.00
C5     C     0.16063   0.78325   0.67968   0.00000  Uiso   1.00
C6     C     0.35079   0.92487   0.57892   0.00000  Uiso   1.00
C7     C     0.30645   0.95218   0.61446   0.00000  Uiso   1.00
C8     C     0.35168   0.96781   0.71538   0.00000  Uiso   1.00
C9     C     0.39590   0.00176   0.87290   0.00000  Uiso   1.00
C10    C     0.40459   0.89993   0.38120   0.00000  Uiso   1.00
C11    C     0.40551   0.90628   0.25049   0.00000  Uiso   1.00
C12    C     0.49605   0.90091   0.18494   0.00000  Uiso   1.00
C13    C     0.62381   0.89615   0.03545   0.00000  Uiso   1.00
C14    C     0.47303   0.88330   0.58731   0.00000  Uiso   1.00
C15    C     0.38171   0.86197   0.59630   0.00000  Uiso   1.00
C16    C     0.38032   0.83418   0.65881   0.00000  Uiso   1.00
C17    C     0.28929   0.81808   0.65608   0.00000  Uiso   1.00
C18    C     0.43724   0.91356   0.64194   0.00000  Uiso   1.00
C19    C     0.48256   0.92915   0.74282   0.00000  Uiso   1.00
C20    C     0.43830   0.95648   0.77851   0.00000  Uiso   1.00
C21    C     0.49105   0.88862   0.44421   0.00000  Uiso   1.00
C22    C     0.58162   0.88325   0.37885   0.00000  Uiso   1.00
C23    C     0.58267   0.88959   0.24806   0.00000  Uiso   1.00
H24    H     0.24654   0.91291   0.42224   0.00000  Uiso   1.00
H25    H     0.13731   0.86597   0.48169   0.00000  Uiso   1.00
H26    H     0.23954   0.96092   0.56567   0.00000  Uiso   1.00
H27    H     0.33858   0.91503   0.20176   0.00000  Uiso   1.00
H28    H     0.05433   0.80894   0.57543   0.00000  Uiso   1.00
H29    H     0.26991   0.00917   0.75249   0.00000  Uiso   1.00
H30    H     0.47876   0.91238   0.98509   0.00000  Uiso   1.00
H31    H     0.54035   0.87450   0.63637   0.00000  Uiso   1.00
H32    H     0.44724   0.82544   0.70757   0.00000  Uiso   1.00
H33    H     0.54947   0.92040   0.79156   0.00000  Uiso   1.00
H34    H     0.64851   0.87450   0.42764   0.00000  Uiso   1.00
H35    H     0.30588   0.77604   0.75877   0.00000  Uiso   1.00
H36    H     0.52147   0.97628   0.93583   0.00000  Uiso   1.00
H37    H     0.73031   0.87949   0.16843   0.00000  Uiso   1.00
O38    O     0.11355   0.76092   0.71012   0.00000  Uiso   1.00
O39    O     0.39639   0.02362   0.94238   0.00000  Uiso   1.00
O40    O     0.67039   0.89664   0.93559   0.00000  Uiso   1.00
N41    N     0.12632   0.80792   0.60879   0.00000  Uiso   1.00
N42    N     0.32786   0.99513   0.77434   0.00000  Uiso   1.00
N43    N     0.52313   0.90465   0.05690   0.00000  Uiso   1.00
N44    N     0.26167   0.79023   0.70744   0.00000  Uiso   1.00
N45    N     0.46322   0.97743   0.87299   0.00000  Uiso   1.00
N46    N     0.65848   0.88695   0.15555   0.00000  Uiso   1.00
C47    C     0.18615   0.59589   0.47129   0.00000  Uiso   1.00
C48    C     0.20475   0.62673   0.53328   0.00000  Uiso   1.00
C49    C     0.29579   0.64279   0.53046   0.00000  Uiso   1.00
C50    C     0.29732   0.67060   0.59296   0.00000  Uiso   1.00
C51    C     0.33937   0.71675   0.67968   0.00000  Uiso   1.00
C52    C     0.14921   0.57513   0.57892   0.00000  Uiso   1.00
C53    C     0.19355   0.54782   0.61446   0.00000  Uiso   1.00
C54    C     0.14832   0.53219   0.71538   0.00000  Uiso   1.00
C55    C     0.10410   0.49824   0.87290   0.00000  Uiso   1.00
C56    C     0.09541   0.60007   0.38120   0.00000  Uiso   1.00
C57    C     0.09449   0.59372   0.25049   0.00000  Uiso   1.00
C58    C     0.00395   0.59909   0.18494   0.00000  Uiso   1.00
C59    C     0.87619   0.60385   0.03545   0.00000  Uiso   1.00
C60    C     0.02697   0.61670   0.58731   0.00000  Uiso   1.00
C61    C     0.11829   0.63803   0.59630   0.00000  Uiso   1.00
C62    C     0.11968   0.66582   0.65881   0.00000  Uiso   1.00
C63    C     0.21071   0.68192   0.65608   0.00000  Uiso   1.00
C64    C     0.06276   0.58644   0.64194   0.00000  Uiso   1.00
C65    C     0.01744   0.57085   0.74282   0.00000  Uiso   1.00
C66    C     0.06170   0.54352   0.77851   0.00000  Uiso   1.00
C67    C     0.00895   0.61138   0.44421   0.00000  Uiso   1.00
C68    C     0.91838   0.61675   0.37885   0.00000  Uiso   1.00
C69    C     0.91733   0.61041   0.24806   0.00000  Uiso   1.00
H70    H     0.25346   0.58709   0.42224   0.00000  Uiso   1.00
H71    H     0.36269   0.63403   0.48169   0.00000  Uiso   1.00
H72    H     0.26046   0.53908   0.56567   0.00000  Uiso   1.00
H73    H     0.16142   0.58497   0.20176   0.00000  Uiso   1.00
H74    H     0.44567   0.69106   0.57543   0.00000  Uiso   1.00
H75    H     0.23009   0.49083   0.75249   0.00000  Uiso   1.00
H76    H     0.02124   0.58762   0.98509   0.00000  Uiso   1.00
H77    H     0.95965   0.62550   0.63637   0.00000  Uiso   1.00
H78    H     0.05276   0.67456   0.70757   0.00000  Uiso   1.00
H79    H     0.95053   0.57960   0.79156   0.00000  Uiso   1.00
H80    H     0.85149   0.62550   0.42764   0.00000  Uiso   1.00
H81    H     0.19412   0.72396   0.75877   0.00000  Uiso   1.00
H82    H     0.97853   0.52372   0.93583   0.00000  Uiso   1.00
H83    H     0.76969   0.62051   0.16843   0.00000  Uiso   1.00
O84    O     0.38645   0.73908   0.71012   0.00000  Uiso   1.00
O85    O     0.10361   0.47638   0.94238   0.00000  Uiso   1.00
O86    O     0.82961   0.60336   0.93559   0.00000  Uiso   1.00
N87    N     0.37368   0.69208   0.60879   0.00000  Uiso   1.00
N88    N     0.17214   0.50487   0.77434   0.00000  Uiso   1.00
N89    N     0.97687   0.59535   0.05690   0.00000  Uiso   1.00
N90    N     0.23833   0.70977   0.70744   0.00000  Uiso   1.00
N91    N     0.03678   0.52257   0.87299   0.00000  Uiso   1.00
N92    N     0.84152   0.61305   0.15555   0.00000  Uiso   1.00
C93    C     0.68615   0.40411   0.02871   0.00000  Uiso   1.00
C94    C     0.70475   0.37327   0.96672   0.00000  Uiso   1.00
C95    C     0.79579   0.35721   0.96954   0.00000  Uiso   1.00
C96    C     0.79732   0.32940   0.90704   0.00000  Uiso   1.00
C97    C     0.83937   0.28325   0.82032   0.00000  Uiso   1.00
C98    C     0.64921   0.42487   0.92108   0.00000  Uiso   1.00
C99    C     0.69355   0.45218   0.88554   0.00000  Uiso   1.00
C100   C     0.64832   0.46781   0.78462   0.00000  Uiso   1.00
C101   C     0.60410   0.50176   0.62710   0.00000  Uiso   1.00
C102   C     0.59541   0.39993   0.11880   0.00000  Uiso   1.00
C103   C     0.59449   0.40628   0.24951   0.00000  Uiso   1.00
C104   C     0.50395   0.40091   0.31506   0.00000  Uiso   1.00
C105   C     0.37619   0.39615   0.46455   0.00000  Uiso   1.00
C106   C     0.52697   0.38330   0.91269   0.00000  Uiso   1.00
C107   C     0.61829   0.36197   0.90370   0.00000  Uiso   1.00
C108   C     0.61968   0.33418   0.84119   0.00000  Uiso   1.00
C109   C     0.71071   0.31808   0.84392   0.00000  Uiso   1.00
C110   C     0.56276   0.41356   0.85806   0.00000  Uiso   1.00
C111   C     0.51744   0.42915   0.75718   0.00000  Uiso   1.00
C112   C     0.56170   0.45648   0.72149   0.00000  Uiso   1.00
C113   C     0.50895   0.38862   0.05579   0.00000  Uiso   1.00
C114   C     0.41838   0.38325   0.12115   0.00000  Uiso   1.00
C115   C     0.41733   0.38959   0.25194   0.00000  Uiso   1.00
H116   H     0.75346   0.41291   0.07776   0.00000  Uiso   1.00
H117   H     0.86269   0.36597   0.01831   0.00000  Uiso   1.00
H118   H     0.76046   0.46092   0.93433   0.00000  Uiso   1.00
H119   H     0.66142   0.41503   0.29824   0.00000  Uiso   1.00
H120   H     0.94567   0.30894   0.92457   0.00000  Uiso   1.00
H121   H     0.73009   0.50917   0.74751   0.00000  Uiso   1.00
H122   H     0.52124   0.41238   0.51491   0.00000  Uiso   1.00
H123   H     0.45965   0.37450   0.86363   0.00000  Uiso   1.00
H124   H     0.55276   0.32544   0.79243   0.00000  Uiso   1.00
H125   H     0.45053   0.42040   0.70844   0.00000  Uiso   1.00
H126   H     0.35149   0.37450   0.07236   0.00000  Uiso   1.00
H127   H     0.69412   0.27604   0.74123   0.00000  Uiso   1.00
H128   H     0.47853   0.47628   0.56417   0.00000  Uiso   1.00
H129   H     0.26969   0.37949   0.33157   0.00000  Uiso   1.00
O130   O     0.88645   0.26092   0.78988   0.00000  Uiso   1.00
O131   O     0.60361   0.52362   0.55762   0.00000  Uiso   1.00
O132   O     0.32961   0.39664   0.56441   0.00000  Uiso   1.00
N133   N     0.87368   0.30792   0.89121   0.00000  Uiso   1.00
N134   N     0.67214   0.49513   0.72566   0.00000  Uiso   1.00
N135   N     0.47687   0.40465   0.44310   0.00000  Uiso   1.00
N136   N     0.73833   0.29023   0.79256   0.00000  Uiso   1.00
N137   N     0.53678   0.47743   0.62701   0.00000  Uiso   1.00
N138   N     0.34152   0.38695   0.34445   0.00000  Uiso   1.00
C139   C     0.81385   0.09589   0.02871   0.00000  Uiso   1.00
C140   C     0.79525   0.12673   0.96672   0.00000  Uiso   1.00
C141   C     0.70421   0.14279   0.96954   0.00000  Uiso   1.00
C142   C     0.70268   0.17060   0.90704   0.00000  Uiso   1.00
C143   C     0.66063   0.21675   0.82032   0.00000  Uiso   1.00
C144   C     0.85079   0.07513   0.92108   0.00000  Uiso   1.00
C145   C     0.80645   0.04782   0.88554   0.00000  Uiso   1.00
C146   C     0.85168   0.03219   0.78462   0.00000  Uiso   1.00
C147   C     0.89590   0.99824   0.62710   0.00000  Uiso   1.00
C148   C     0.90459   0.10007   0.11880   0.00000  Uiso   1.00
C149   C     0.90551   0.09372   0.24951   0.00000  Uiso   1.00
C150   C     0.99605   0.09909   0.31506   0.00000  Uiso   1.00
C151   C     0.12381   0.10385   0.46455   0.00000  Uiso   1.00
C152   C     0.97303   0.11670   0.91269   0.00000  Uiso   1.00
C153   C     0.88171   0.13803   0.90370   0.00000  Uiso   1.00
C154   C     0.88032   0.16582   0.84119   0.00000  Uiso   1.00
C155   C     0.78929   0.18192   0.84392   0.00000  Uiso   1.00
C156   C     0.93724   0.08644   0.85806   0.00000  Uiso   1.00
C157   C     0.98256   0.07085   0.75718   0.00000  Uiso   1.00
C158   C     0.93830   0.04352   0.72149   0.00000  Uiso   1.00
C159   C     0.99105   0.11138   0.05579   0.00000  Uiso   1.00
C160   C     0.08162   0.11675   0.12115   0.00000  Uiso   1.00
C161   C     0.08267   0.11041   0.25194   0.00000  Uiso   1.00
H162   H     0.74654   0.08709   0.07776   0.00000  Uiso   1.00
H163   H     0.63731   0.13403   0.01831   0.00000  Uiso   1.00
H164   H     0.73954   0.03908   0.93433   0.00000  Uiso   1.00
H165   H     0.83858   0.08497   0.29824   0.00000  Uiso   1.00
H166   H     0.55433   0.19106   0.92457   0.00000  Uiso   1.00
H167   H     0.76991   0.99083   0.74751   0.00000  Uiso   1.00
H168   H     0.97876   0.08762   0.51491   0.00000  Uiso   1.00
H169   H     0.04035   0.12550   0.86363   0.00000  Uiso   1.00
H170   H     0.94724   0.17456   0.79243   0.00000  Uiso   1.00
H171   H     0.04947   0.07960   0.70844   0.00000  Uiso   1.00
H172   H     0.14851   0.12550   0.07236   0.00000  Uiso   1.00
H173   H     0.80588   0.22396   0.74123   0.00000  Uiso   1.00
H174   H     0.02147   0.02372   0.56417   0.00000  Uiso   1.00
H175   H     0.23031   0.12051   0.33157   0.00000  Uiso   1.00
O176   O     0.61355   0.23908   0.78988   0.00000  Uiso   1.00
O177   O     0.89639   0.97638   0.55762   0.00000  Uiso   1.00
O178   O     0.17039   0.10336   0.56441   0.00000  Uiso   1.00
N179   N     0.62632   0.19208   0.89121   0.00000  Uiso   1.00
N180   N     0.82786   0.00487   0.72566   0.00000  Uiso   1.00
N181   N     0.02313   0.09535   0.44310   0.00000  Uiso   1.00
N182   N     0.76167   0.20977   0.79256   0.00000  Uiso   1.00
N183   N     0.96322   0.02257   0.62701   0.00000  Uiso   1.00
N184   N     0.15848   0.11305   0.34445   0.00000  Uiso   1.00
C185   C     0.68615   0.09589   0.52871   0.00000  Uiso   1.00
C186   C     0.70475   0.12673   0.46672   0.00000  Uiso   1.00
C187   C     0.79579   0.14279   0.46954   0.00000  Uiso   1.00
C188   C     0.79732   0.17060   0.40704   0.00000  Uiso   1.00
C189   C     0.83937   0.21675   0.32032   0.00000  Uiso   1.00
C190   C     0.64921   0.07513   0.42108   0.00000  Uiso   1.00
C191   C     0.69355   0.04782   0.38554   0.00000  Uiso   1.00
C192   C     0.64832   0.03219   0.28462   0.00000  Uiso   1.00
C193   C     0.60410   0.99824   0.12710   0.00000  Uiso   1.00
C194   C     0.59541   0.10007   0.61880   0.00000  Uiso   1.00
C195   C     0.59449   0.09372   0.74951   0.00000  Uiso   1.00
C196   C     0.50395   0.09909   0.81506   0.00000  Uiso   1.00
C197   C     0.37619   0.10385   0.96455   0.00000  Uiso   1.00
C198   C     0.52697   0.11670   0.41269   0.00000  Uiso   1.00
C199   C     0.61829   0.13803   0.40370   0.00000  Uiso   1.00
C200   C     0.61968   0.16582   0.34119   0.00000  Uiso   1.00
C201   C     0.71071   0.18192   0.34392   0.00000  Uiso   1.00
C202   C     0.56276   0.08644   0.35806   0.00000  Uiso   1.00
C203   C     0.51744   0.07085   0.25718   0.00000  Uiso   1.00
C204   C     0.56170   0.04352   0.22149   0.00000  Uiso   1.00
C205   C     0.50895   0.11138   0.55579   0.00000  Uiso   1.00
C206   C     0.41838   0.11675   0.62115   0.00000  Uiso   1.00
C207   C     0.41733   0.11041   0.75194   0.00000  Uiso   1.00
H208   H     0.75346   0.08709   0.57776   0.00000  Uiso   1.00
H209   H     0.86269   0.13403   0.51831   0.00000  Uiso   1.00
H210   H     0.76046   0.03908   0.43433   0.00000  Uiso   1.00
H211   H     0.66142   0.08497   0.79824   0.00000  Uiso   1.00
H212   H     0.94567   0.19106   0.42457   0.00000  Uiso   1.00
H213   H     0.73009   0.99083   0.24751   0.00000  Uiso   1.00
H214   H     0.52124   0.08762   0.01491   0.00000  Uiso   1.00
H215   H     0.45965   0.12550   0.36363   0.00000  Uiso   1.00
H216   H     0.55276   0.17456   0.29243   0.00000  Uiso   1.00
H217   H     0.45053   0.07960   0.20844   0.00000  Uiso   1.00
H218   H     0.35149   0.12550   0.57236   0.00000  Uiso   1.00
H219   H     0.69412   0.22396   0.24123   0.00000  Uiso   1.00
H220   H     0.47853   0.02372   0.06417   0.00000  Uiso   1.00
H221   H     0.26969   0.12051   0.83157   0.00000  Uiso   1.00
O222   O     0.88645   0.23908   0.28988   0.00000  Uiso   1.00
O223   O     0.60361   0.97638   0.05762   0.00000  Uiso   1.00
O224   O     0.32961   0.10336   0.06441   0.00000  Uiso   1.00
N225   N     0.87368   0.19208   0.39121   0.00000  Uiso   1.00
N226   N     0.67214   0.00487   0.22566   0.00000  Uiso   1.00
N227   N     0.47687   0.09535   0.94310   0.00000  Uiso   1.00
N228   N     0.73833   0.20977   0.29256   0.00000  Uiso   1.00
N229   N     0.53678   0.02257   0.12701   0.00000  Uiso   1.00
N230   N     0.34152   0.11305   0.84445   0.00000  Uiso   1.00
C231   C     0.81385   0.40411   0.52871   0.00000  Uiso   1.00
C232   C     0.79525   0.37327   0.46672   0.00000  Uiso   1.00
C233   C     0.70421   0.35721   0.46954   0.00000  Uiso   1.00
C234   C     0.70268   0.32940   0.40704   0.00000  Uiso   1.00
C235   C     0.66063   0.28325   0.32032   0.00000  Uiso   1.00
C236   C     0.85079   0.42487   0.42108   0.00000  Uiso   1.00
C237   C     0.80645   0.45218   0.38554   0.00000  Uiso   1.00
C238   C     0.85168   0.46781   0.28462   0.00000  Uiso   1.00
C239   C     0.89590   0.50176   0.12710   0.00000  Uiso   1.00
C240   C     0.90459   0.39993   0.61880   0.00000  Uiso   1.00
C241   C     0.90551   0.40628   0.74951   0.00000  Uiso   1.00
C242   C     0.99605   0.40091   0.81506   0.00000  Uiso   1.00
C243   C     0.12381   0.39615   0.96455   0.00000  Uiso   1.00
C244   C     0.97303   0.38330   0.41269   0.00000  Uiso   1.00
C245   C     0.88171   0.36197   0.40370   0.00000  Uiso   1.00
C246   C     0.88032   0.33418   0.34119   0.00000  Uiso   1.00
C247   C     0.78929   0.31808   0.34392   0.00000  Uiso   1.00
C248   C     0.93724   0.41356   0.35806   0.00000  Uiso   1.00
C249   C     0.98256   0.42915   0.25718   0.00000  Uiso   1.00
C250   C     0.93830   0.45648   0.22149   0.00000  Uiso   1.00
C251   C     0.99105   0.38862   0.55579   0.00000  Uiso   1.00
C252   C     0.08162   0.38325   0.62115   0.00000  Uiso   1.00
C253   C     0.08267   0.38959   0.75194   0.00000  Uiso   1.00
H254   H     0.74654   0.41291   0.57776   0.00000  Uiso   1.00
H255   H     0.63731   0.36597   0.51831   0.00000  Uiso   1.00
H256   H     0.73954   0.46092   0.43433   0.00000  Uiso   1.00
H257   H     0.83858   0.41503   0.79824   0.00000  Uiso   1.00
H258   H     0.55433   0.30894   0.42457   0.00000  Uiso   1.00
H259   H     0.76991   0.50917   0.24751   0.00000  Uiso   1.00
H260   H     0.97876   0.41238   0.01491   0.00000  Uiso   1.00
H261   H     0.04035   0.37450   0.36363   0.00000  Uiso   1.00
H262   H     0.94724   0.32544   0.29243   0.00000  Uiso   1.00
H263   H     0.04947   0.42040   0.20844   0.00000  Uiso   1.00
H264   H     0.14851   0.37450   0.57236   0.00000  Uiso   1.00
H265   H     0.80588   0.27604   0.24123   0.00000  Uiso   1.00
H266   H     0.02147   0.47628   0.06417   0.00000  Uiso   1.00
H267   H     0.23031   0.37949   0.83157   0.00000  Uiso   1.00
O268   O     0.61355   0.26092   0.28988   0.00000  Uiso   1.00
O269   O     0.89639   0.52362   0.05762   0.00000  Uiso   1.00
O270   O     0.17039   0.39664   0.06441   0.00000  Uiso   1.00
N271   N     0.62632   0.30792   0.39121   0.00000  Uiso   1.00
N272   N     0.82786   0.49513   0.22566   0.00000  Uiso   1.00
N273   N     0.02313   0.40465   0.94310   0.00000  Uiso   1.00
N274   N     0.76167   0.29023   0.29256   0.00000  Uiso   1.00
N275   N     0.96322   0.47743   0.12701   0.00000  Uiso   1.00
N276   N     0.15848   0.38695   0.84445   0.00000  Uiso   1.00
C277   C     0.31385   0.59589   0.97129   0.00000  Uiso   1.00
C278   C     0.29525   0.62673   0.03328   0.00000  Uiso   1.00
C279   C     0.20421   0.64279   0.03046   0.00000  Uiso   1.00
C280   C     0.20268   0.67060   0.09296   0.00000  Uiso   1.00
C281   C     0.16063   0.71675   0.17968   0.00000  Uiso   1.00
C282   C     0.35079   0.57513   0.07892   0.00000  Uiso   1.00
C283   C     0.30645   0.54782   0.11446   0.00000  Uiso   1.00
C284   C     0.35168   0.53219   0.21538   0.00000  Uiso   1.00
C285   C     0.39590   0.49824   0.37290   0.00000  Uiso   1.00
C286   C     0.40459   0.60007   0.88120   0.00000  Uiso   1.00
C287   C     0.40551   0.59372   0.75049   0.00000  Uiso   1.00
C288   C     0.49605   0.59909   0.68494   0.00000  Uiso   1.00
C289   C     0.62381   0.60385   0.53545   0.00000  Uiso   1.00
C290   C     0.47303   0.61670   0.08731   0.00000  Uiso   1.00
C291   C     0.38171   0.63803   0.09630   0.00000  Uiso   1.00
C292   C     0.38032   0.66582   0.15881   0.00000  Uiso   1.00
C293   C     0.28929   0.68192   0.15608   0.00000  Uiso   1.00
C294   C     0.43724   0.58644   0.14194   0.00000  Uiso   1.00
C295   C     0.48256   0.57085   0.24282   0.00000  Uiso   1.00
C296   C     0.43830   0.54352   0.27851   0.00000  Uiso   1.00
C297   C     0.49105   0.61138   0.94421   0.00000  Uiso   1.00
C298   C     0.58162   0.61675   0.87885   0.00000  Uiso   1.00
C299   C     0.58267   0.61041   0.74806   0.00000  Uiso   1.00
H300   H     0.24654   0.58709   0.92224   0.00000  Uiso   1.00
H301   H     0.13731   0.63403   0.98169   0.00000  Uiso   1.00
H302   H     0.23954   0.53908   0.06567   0.00000  Uiso   1.00
H303   H     0.33858   0.58497   0.70176   0.00000  Uiso   1.00
H304   H     0.05433   0.69106   0.07543   0.00000  Uiso   1.00
H305   H     0.26991   0.49083   0.25249   0.00000  Uiso   1.00
H306   H     0.47876   0.58762   0.48509   0.00000  Uiso   1.00
H307   H     0.54035   0.62550   0.13637   0.00000  Uiso   1.00
H308   H     0.44724   0.67456   0.20757   0.00000  Uiso   1.00
H309   H     0.54947   0.57960   0.29156   0.00000  Uiso   1.00
H310   H     0.64851   0.62550   0.92764   0.00000  Uiso   1.00
H311   H     0.30588   0.72396   0.25877   0.00000  Uiso   1.00
H312   H     0.52147   0.52372   0.43583   0.00000  Uiso   1.00
H313   H     0.73031   0.62051   0.66843   0.00000  Uiso   1.00
O314   O     0.11355   0.73908   0.21012   0.00000  Uiso   1.00
O315   O     0.39639   0.47638   0.44238   0.00000  Uiso   1.00
O316   O     0.67039   0.60336   0.43559   0.00000  Uiso   1.00
N317   N     0.12632   0.69208   0.10879   0.00000  Uiso   1.00
N318   N     0.32786   0.50487   0.27434   0.00000  Uiso   1.00
N319   N     0.52313   0.59535   0.55690   0.00000  Uiso   1.00
N320   N     0.26167   0.70977   0.20744   0.00000  Uiso   1.00
N321   N     0.46322   0.52257   0.37299   0.00000  Uiso   1.00
N322   N     0.65848   0.61305   0.65555   0.00000  Uiso   1.00
C323   C     0.18615   0.90411   0.97129   0.00000  Uiso   1.00
C324   C     0.20475   0.87327   0.03328   0.00000  Uiso   1.00
C325   C     0.29579   0.85721   0.03046   0.00000  Uiso   1.00
C326   C     0.29732   0.82940   0.09296   0.00000  Uiso   1.00
C327   C     0.33937   0.78325   0.17968   0.00000  Uiso   1.00
C328   C     0.14921   0.92487   0.07892   0.00000  Uiso   1.00
C329   C     0.19355   0.95218   0.11446   0.00000  Uiso   1.00
C330   C     0.14832   0.96781   0.21538   0.00000  Uiso   1.00
C331   C     0.10410   0.00176   0.37290   0.00000  Uiso   1.00
C332   C     0.09541   0.89993   0.88120   0.00000  Uiso   1.00
C333   C     0.09449   0.90628   0.75049   0.00000  Uiso   1.00
C334   C     0.00395   0.90091   0.68494   0.00000  Uiso   1.00
C335   C     0.87619   0.89615   0.53545   0.00000  Uiso   1.00
C336   C     0.02697   0.88330   0.08731   0.00000  Uiso   1.00
C337   C     0.11829   0.86197   0.09630   0.00000  Uiso   1.00
C338   C     0.11968   0.83418   0.15881   0.00000  Uiso   1.00
C339   C     0.21071   0.81808   0.15608   0.00000  Uiso   1.00
C340   C     0.06276   0.91356   0.14194   0.00000  Uiso   1.00
C341   C     0.01744   0.92915   0.24282   0.00000  Uiso   1.00
C342   C     0.06170   0.95648   0.27851   0.00000  Uiso   1.00
C343   C     0.00895   0.88862   0.94421   0.00000  Uiso   1.00
C344   C     0.91838   0.88325   0.87885   0.00000  Uiso   1.00
C345   C     0.91733   0.88959   0.74806   0.00000  Uiso   1.00
H346   H     0.25346   0.91291   0.92224   0.00000  Uiso   1.00
H347   H     0.36269   0.86597   0.98169   0.00000  Uiso   1.00
H348   H     0.26046   0.96092   0.06567   0.00000  Uiso   1.00
H349   H     0.16142   0.91503   0.70176   0.00000  Uiso   1.00
H350   H     0.44567   0.80894   0.07543   0.00000  Uiso   1.00
H351   H     0.23009   0.00917   0.25249   0.00000  Uiso   1.00
H352   H     0.02124   0.91238   0.48509   0.00000  Uiso   1.00
H353   H     0.95965   0.87450   0.13637   0.00000  Uiso   1.00
H354   H     0.05276   0.82544   0.20757   0.00000  Uiso   1.00
H355   H     0.95053   0.92040   0.29156   0.00000  Uiso   1.00
H356   H     0.85149   0.87450   0.92764   0.00000  Uiso   1.00
H357   H     0.19412   0.77604   0.25877   0.00000  Uiso   1.00
H358   H     0.97853   0.97628   0.43583   0.00000  Uiso   1.00
H359   H     0.76969   0.87949   0.66843   0.00000  Uiso   1.00
O360   O     0.38645   0.76092   0.21012   0.00000  Uiso   1.00
O361   O     0.10361   0.02362   0.44238   0.00000  Uiso   1.00
O362   O     0.82961   0.89664   0.43559   0.00000  Uiso   1.00
N363   N     0.37368   0.80792   0.10879   0.00000  Uiso   1.00
N364   N     0.17214   0.99513   0.27434   0.00000  Uiso   1.00
N365   N     0.97687   0.90465   0.55690   0.00000  Uiso   1.00
N366   N     0.23833   0.79023   0.20744   0.00000  Uiso   1.00
N367   N     0.03678   0.97743   0.37299   0.00000  Uiso   1.00
N368   N     0.84152   0.88695   0.65555   0.00000  Uiso   1.00
