data_job_03435
_audit_creation_date              2018-12-19
_audit_creation_method            'Materials Studio'
_symmetry_space_group_name_H-M    'P1'
_symmetry_Int_Tables_number       1
_symmetry_cell_setting            triclinic
loop_
_symmetry_equiv_pos_as_xyz
  x,y,z
_cell_length_a                    12.1960
_cell_length_b                    12.1960
_cell_length_c                    36.3227
_cell_angle_alpha                 90.0000
_cell_angle_beta                  90.0000
_cell_angle_gamma                 120.0000
loop_
_atom_site_label
_atom_site_type_symbol
_atom_site_fract_x
_atom_site_fract_y
_atom_site_fract_z
_atom_site_U_iso_or_equiv
_atom_site_adp_type
_atom_site_occupancy
C1     C     0.30582   0.03401   0.04294   0.00000  Uiso   1.00
C2     C     0.38454   0.16505   0.06000   0.00000  Uiso   1.00
C3     C     0.39267   0.27591   0.04703   0.00000  Uiso   1.00
C4     C     0.46984   0.38611   0.06650   0.00000  Uiso   1.00
C5     C     0.58199   0.58971   0.08821   0.00000  Uiso   1.00
C6     C     0.39802   0.98691   0.03490   0.00000  Uiso   1.00
C7     C     0.41747   0.94799   0.00082   0.00000  Uiso   1.00
C8     C     0.50598   0.90821   0.99917   0.00000  Uiso   1.00
C9     C     0.63899   0.83517   0.98192   0.00000  Uiso   1.00
C10    C     0.21893   0.94907   0.07343   0.00000  Uiso   1.00
C11    C     0.08779   0.87830   0.07176   0.00000  Uiso   1.00
C12    C     0.02552   0.80664   0.10255   0.00000  Uiso   1.00
C13    C     0.88046   0.67484   0.14513   0.00000  Uiso   1.00
C14    C     0.42841   0.03256   0.10060   0.00000  Uiso   1.00
C15    C     0.45112   0.16426   0.09131   0.00000  Uiso   1.00
C16    C     0.52830   0.27432   0.11082   0.00000  Uiso   1.00
C17    C     0.53654   0.38533   0.09788   0.00000  Uiso   1.00
C18    C     0.46460   0.98613   0.06621   0.00000  Uiso   1.00
C19    C     0.55310   0.94639   0.06461   0.00000  Uiso   1.00
C20    C     0.57268   0.90742   0.03054   0.00000  Uiso   1.00
C21    C     0.28551   0.94829   0.10475   0.00000  Uiso   1.00
C22    C     0.22342   0.87671   0.13555   0.00000  Uiso   1.00
C23    C     0.09222   0.80585   0.13392   0.00000  Uiso   1.00
H24    H     0.25399   0.03461   0.01856   0.00000  Uiso   1.00
H25    H     0.34114   0.27648   0.02279   0.00000  Uiso   1.00
H26    H     0.36592   0.94859   0.97659   0.00000  Uiso   1.00
H27    H     0.03630   0.87893   0.04752   0.00000  Uiso   1.00
H28    H     0.46716   0.54430   0.04128   0.00000  Uiso   1.00
H29    H     0.51939   0.85289   0.94388   0.00000  Uiso   1.00
H30    H     0.82431   0.70598   0.09344   0.00000  Uiso   1.00
H31    H     0.48025   0.03195   0.12498   0.00000  Uiso   1.00
H32    H     0.57981   0.27368   0.13505   0.00000  Uiso   1.00
H33    H     0.60460   0.94579   0.08885   0.00000  Uiso   1.00
H34    H     0.27498   0.87613   0.15978   0.00000  Uiso   1.00
H35    H     0.66088   0.54203   0.13240   0.00000  Uiso   1.00
H36    H     0.71310   0.85061   0.03499   0.00000  Uiso   1.00
H37    H     0.01803   0.70371   0.18456   0.00000  Uiso   1.00
O38    O     0.62547   0.70224   0.09153   0.00000  Uiso   1.00
O39    O     0.69397   0.79511   0.96375   0.00000  Uiso   1.00
O40    O     0.78205   0.60237   0.15997   0.00000  Uiso   1.00
N41    N     0.49907   0.51059   0.06135   0.00000  Uiso   1.00
N42    N     0.54791   0.86418   0.97028   0.00000  Uiso   1.00
N43    N     0.89808   0.72680   0.11011   0.00000  Uiso   1.00
N44    N     0.60331   0.50936   0.11037   0.00000  Uiso   1.00
N45    N     0.65215   0.86296   0.01931   0.00000  Uiso   1.00
N46    N     0.00232   0.72558   0.15913   0.00000  Uiso   1.00
C47    C     0.96599   0.27182   0.70961   0.00000  Uiso   1.00
C48    C     0.83495   0.21949   0.72666   0.00000  Uiso   1.00
C49    C     0.72409   0.11676   0.71369   0.00000  Uiso   1.00
C50    C     0.61389   0.08373   0.73317   0.00000  Uiso   1.00
C51    C     0.41029   0.99228   0.75488   0.00000  Uiso   1.00
C52    C     0.01309   0.41111   0.70156   0.00000  Uiso   1.00
C53    C     0.05201   0.46949   0.66749   0.00000  Uiso   1.00
C54    C     0.09179   0.59777   0.66584   0.00000  Uiso   1.00
C55    C     0.16483   0.80382   0.64859   0.00000  Uiso   1.00
C56    C     0.05093   0.26986   0.74010   0.00000  Uiso   1.00
C57    C     0.12170   0.20950   0.73843   0.00000  Uiso   1.00
C58    C     0.19336   0.21888   0.76922   0.00000  Uiso   1.00
C59    C     0.32516   0.20562   0.81180   0.00000  Uiso   1.00
C60    C     0.96744   0.39584   0.76726   0.00000  Uiso   1.00
C61    C     0.83574   0.28686   0.75798   0.00000  Uiso   1.00
C62    C     0.72568   0.25398   0.77748   0.00000  Uiso   1.00
C63    C     0.61467   0.15122   0.76454   0.00000  Uiso   1.00
C64    C     0.01387   0.47848   0.73288   0.00000  Uiso   1.00
C65    C     0.05361   0.60671   0.73128   0.00000  Uiso   1.00
C66    C     0.09258   0.66526   0.69721   0.00000  Uiso   1.00
C67    C     0.05171   0.33722   0.77142   0.00000  Uiso   1.00
C68    C     0.12329   0.34671   0.80222   0.00000  Uiso   1.00
C69    C     0.19415   0.28637   0.80059   0.00000  Uiso   1.00
H70    H     0.96539   0.21938   0.68522   0.00000  Uiso   1.00
H71    H     0.72352   0.06466   0.68945   0.00000  Uiso   1.00
H72    H     0.05141   0.41733   0.64326   0.00000  Uiso   1.00
H73    H     0.12107   0.15738   0.71419   0.00000  Uiso   1.00
H74    H     0.45570   0.92286   0.70795   0.00000  Uiso   1.00
H75    H     0.14711   0.66650   0.61055   0.00000  Uiso   1.00
H76    H     0.29402   0.11834   0.76011   0.00000  Uiso   1.00
H77    H     0.96805   0.44830   0.79165   0.00000  Uiso   1.00
H78    H     0.72632   0.30613   0.80172   0.00000  Uiso   1.00
H79    H     0.05421   0.65881   0.75552   0.00000  Uiso   1.00
H80    H     0.12387   0.39885   0.82645   0.00000  Uiso   1.00
H81    H     0.45797   0.11885   0.79906   0.00000  Uiso   1.00
H82    H     0.14939   0.86249   0.70166   0.00000  Uiso   1.00
H83    H     0.29629   0.31433   0.85122   0.00000  Uiso   1.00
O84    O     0.29776   0.92323   0.75820   0.00000  Uiso   1.00
O85    O     0.20489   0.89886   0.63042   0.00000  Uiso   1.00
O86    O     0.39763   0.17968   0.82664   0.00000  Uiso   1.00
N87    N     0.48941   0.98848   0.72801   0.00000  Uiso   1.00
N88    N     0.13582   0.68373   0.63695   0.00000  Uiso   1.00
N89    N     0.27320   0.17128   0.77677   0.00000  Uiso   1.00
N90    N     0.49064   0.09394   0.77704   0.00000  Uiso   1.00
N91    N     0.13704   0.78920   0.68598   0.00000  Uiso   1.00
N92    N     0.27442   0.27674   0.82580   0.00000  Uiso   1.00
C93    C     0.72818   0.69418   0.37627   0.00000  Uiso   1.00
C94    C     0.78051   0.61546   0.39333   0.00000  Uiso   1.00
C95    C     0.88324   0.60733   0.38036   0.00000  Uiso   1.00
C96    C     0.91627   0.53016   0.39984   0.00000  Uiso   1.00
C97    C     0.00772   0.41801   0.42155   0.00000  Uiso   1.00
C98    C     0.58889   0.60198   0.36823   0.00000  Uiso   1.00
C99    C     0.53051   0.58253   0.33416   0.00000  Uiso   1.00
C100   C     0.40223   0.49402   0.33251   0.00000  Uiso   1.00
C101   C     0.19618   0.36101   0.31525   0.00000  Uiso   1.00
C102   C     0.73014   0.78107   0.40677   0.00000  Uiso   1.00
C103   C     0.79050   0.91221   0.40509   0.00000  Uiso   1.00
C104   C     0.78112   0.97448   0.43589   0.00000  Uiso   1.00
C105   C     0.79438   0.11954   0.47847   0.00000  Uiso   1.00
C106   C     0.60416   0.57159   0.43393   0.00000  Uiso   1.00
C107   C     0.71314   0.54888   0.42465   0.00000  Uiso   1.00
C108   C     0.74602   0.47170   0.44415   0.00000  Uiso   1.00
C109   C     0.84878   0.46346   0.43121   0.00000  Uiso   1.00
C110   C     0.52152   0.53540   0.39955   0.00000  Uiso   1.00
C111   C     0.39329   0.44690   0.39795   0.00000  Uiso   1.00
C112   C     0.33474   0.42732   0.36388   0.00000  Uiso   1.00
C113   C     0.66278   0.71449   0.43809   0.00000  Uiso   1.00
C114   C     0.65329   0.77658   0.46888   0.00000  Uiso   1.00
C115   C     0.71363   0.90778   0.46726   0.00000  Uiso   1.00
H116   H     0.78062   0.74601   0.35189   0.00000  Uiso   1.00
H117   H     0.93534   0.65886   0.35612   0.00000  Uiso   1.00
H118   H     0.58267   0.63408   0.30993   0.00000  Uiso   1.00
H119   H     0.84262   0.96370   0.38085   0.00000  Uiso   1.00
H120   H     0.07714   0.53284   0.37461   0.00000  Uiso   1.00
H121   H     0.33350   0.48061   0.27721   0.00000  Uiso   1.00
H122   H     0.88166   0.17569   0.42677   0.00000  Uiso   1.00
H123   H     0.55170   0.51975   0.45831   0.00000  Uiso   1.00
H124   H     0.69387   0.42019   0.46838   0.00000  Uiso   1.00
H125   H     0.34119   0.39540   0.42219   0.00000  Uiso   1.00
H126   H     0.60115   0.72502   0.49311   0.00000  Uiso   1.00
H127   H     0.88115   0.33912   0.46573   0.00000  Uiso   1.00
H128   H     0.13751   0.28690   0.36833   0.00000  Uiso   1.00
H129   H     0.68567   0.98197   0.51789   0.00000  Uiso   1.00
O130   O     0.07677   0.37453   0.42487   0.00000  Uiso   1.00
O131   O     0.10114   0.30603   0.29708   0.00000  Uiso   1.00
O132   O     0.82032   0.21795   0.49331   0.00000  Uiso   1.00
N133   N     0.01152   0.50093   0.39468   0.00000  Uiso   1.00
N134   N     0.31627   0.45209   0.30361   0.00000  Uiso   1.00
N135   N     0.82872   0.10192   0.44344   0.00000  Uiso   1.00
N136   N     0.90606   0.39669   0.44371   0.00000  Uiso   1.00
N137   N     0.21080   0.34785   0.35264   0.00000  Uiso   1.00
N138   N     0.72326   0.99768   0.49247   0.00000  Uiso   1.00
C139   C     0.03401   0.30582   0.95706   0.00000  Uiso   1.00
C140   C     0.16505   0.38454   0.94000   0.00000  Uiso   1.00
C141   C     0.27591   0.39267   0.95297   0.00000  Uiso   1.00
C142   C     0.38611   0.46984   0.93350   0.00000  Uiso   1.00
C143   C     0.58971   0.58199   0.91179   0.00000  Uiso   1.00
C144   C     0.98691   0.39802   0.96510   0.00000  Uiso   1.00
C145   C     0.94799   0.41747   0.99918   0.00000  Uiso   1.00
C146   C     0.90821   0.50598   0.00083   0.00000  Uiso   1.00
C147   C     0.83517   0.63899   0.01808   0.00000  Uiso   1.00
C148   C     0.94907   0.21893   0.92657   0.00000  Uiso   1.00
C149   C     0.87830   0.08779   0.92824   0.00000  Uiso   1.00
C150   C     0.80664   0.02552   0.89745   0.00000  Uiso   1.00
C151   C     0.67484   0.88046   0.85487   0.00000  Uiso   1.00
C152   C     0.03256   0.42841   0.89940   0.00000  Uiso   1.00
C153   C     0.16426   0.45112   0.90869   0.00000  Uiso   1.00
C154   C     0.27432   0.52830   0.88918   0.00000  Uiso   1.00
C155   C     0.38533   0.53654   0.90212   0.00000  Uiso   1.00
C156   C     0.98613   0.46460   0.93379   0.00000  Uiso   1.00
C157   C     0.94639   0.55310   0.93539   0.00000  Uiso   1.00
C158   C     0.90742   0.57268   0.96946   0.00000  Uiso   1.00
C159   C     0.94829   0.28551   0.89525   0.00000  Uiso   1.00
C160   C     0.87671   0.22342   0.86445   0.00000  Uiso   1.00
C161   C     0.80585   0.09222   0.86608   0.00000  Uiso   1.00
H162   H     0.03461   0.25399   0.98144   0.00000  Uiso   1.00
H163   H     0.27648   0.34114   0.97721   0.00000  Uiso   1.00
H164   H     0.94859   0.36592   0.02341   0.00000  Uiso   1.00
H165   H     0.87893   0.03630   0.95248   0.00000  Uiso   1.00
H166   H     0.54430   0.46716   0.95872   0.00000  Uiso   1.00
H167   H     0.85289   0.51939   0.05612   0.00000  Uiso   1.00
H168   H     0.70598   0.82431   0.90656   0.00000  Uiso   1.00
H169   H     0.03195   0.48025   0.87502   0.00000  Uiso   1.00
H170   H     0.27368   0.57981   0.86495   0.00000  Uiso   1.00
H171   H     0.94579   0.60460   0.91115   0.00000  Uiso   1.00
H172   H     0.87613   0.27498   0.84022   0.00000  Uiso   1.00
H173   H     0.54203   0.66088   0.86760   0.00000  Uiso   1.00
H174   H     0.85061   0.71310   0.96501   0.00000  Uiso   1.00
H175   H     0.70371   0.01803   0.81544   0.00000  Uiso   1.00
O176   O     0.70224   0.62547   0.90847   0.00000  Uiso   1.00
O177   O     0.79511   0.69397   0.03625   0.00000  Uiso   1.00
O178   O     0.60237   0.78205   0.84003   0.00000  Uiso   1.00
N179   N     0.51059   0.49907   0.93865   0.00000  Uiso   1.00
N180   N     0.86418   0.54791   0.02972   0.00000  Uiso   1.00
N181   N     0.72680   0.89808   0.88989   0.00000  Uiso   1.00
N182   N     0.50936   0.60331   0.88963   0.00000  Uiso   1.00
N183   N     0.86296   0.65215   0.98069   0.00000  Uiso   1.00
N184   N     0.72558   0.00232   0.84087   0.00000  Uiso   1.00
C185   C     0.27182   0.96599   0.29039   0.00000  Uiso   1.00
C186   C     0.21949   0.83495   0.27334   0.00000  Uiso   1.00
C187   C     0.11676   0.72409   0.28631   0.00000  Uiso   1.00
C188   C     0.08373   0.61389   0.26683   0.00000  Uiso   1.00
C189   C     0.99228   0.41029   0.24512   0.00000  Uiso   1.00
C190   C     0.41111   0.01309   0.29844   0.00000  Uiso   1.00
C191   C     0.46949   0.05201   0.33251   0.00000  Uiso   1.00
C192   C     0.59777   0.09179   0.33416   0.00000  Uiso   1.00
C193   C     0.80382   0.16483   0.35141   0.00000  Uiso   1.00
C194   C     0.26986   0.05093   0.25990   0.00000  Uiso   1.00
C195   C     0.20950   0.12170   0.26157   0.00000  Uiso   1.00
C196   C     0.21888   0.19336   0.23078   0.00000  Uiso   1.00
C197   C     0.20562   0.32516   0.18820   0.00000  Uiso   1.00
C198   C     0.39584   0.96744   0.23274   0.00000  Uiso   1.00
C199   C     0.28686   0.83574   0.24202   0.00000  Uiso   1.00
C200   C     0.25398   0.72568   0.22252   0.00000  Uiso   1.00
C201   C     0.15122   0.61467   0.23546   0.00000  Uiso   1.00
C202   C     0.47848   0.01387   0.26712   0.00000  Uiso   1.00
C203   C     0.60671   0.05361   0.26872   0.00000  Uiso   1.00
C204   C     0.66526   0.09258   0.30279   0.00000  Uiso   1.00
C205   C     0.33722   0.05171   0.22858   0.00000  Uiso   1.00
C206   C     0.34671   0.12329   0.19778   0.00000  Uiso   1.00
C207   C     0.28637   0.19415   0.19941   0.00000  Uiso   1.00
H208   H     0.21938   0.96539   0.31478   0.00000  Uiso   1.00
H209   H     0.06466   0.72352   0.31055   0.00000  Uiso   1.00
H210   H     0.41733   0.05141   0.35674   0.00000  Uiso   1.00
H211   H     0.15738   0.12107   0.28581   0.00000  Uiso   1.00
H212   H     0.92286   0.45570   0.29205   0.00000  Uiso   1.00
H213   H     0.66650   0.14711   0.38945   0.00000  Uiso   1.00
H214   H     0.11834   0.29402   0.23989   0.00000  Uiso   1.00
H215   H     0.44830   0.96805   0.20835   0.00000  Uiso   1.00
H216   H     0.30613   0.72632   0.19828   0.00000  Uiso   1.00
H217   H     0.65881   0.05421   0.24448   0.00000  Uiso   1.00
H218   H     0.39885   0.12387   0.17355   0.00000  Uiso   1.00
H219   H     0.11885   0.45797   0.20094   0.00000  Uiso   1.00
H220   H     0.86249   0.14939   0.29834   0.00000  Uiso   1.00
H221   H     0.31433   0.29629   0.14878   0.00000  Uiso   1.00
O222   O     0.92323   0.29776   0.24180   0.00000  Uiso   1.00
O223   O     0.89886   0.20489   0.36958   0.00000  Uiso   1.00
O224   O     0.17968   0.39763   0.17336   0.00000  Uiso   1.00
N225   N     0.98848   0.48941   0.27199   0.00000  Uiso   1.00
N226   N     0.68373   0.13582   0.36305   0.00000  Uiso   1.00
N227   N     0.17128   0.27320   0.22323   0.00000  Uiso   1.00
N228   N     0.09394   0.49064   0.22296   0.00000  Uiso   1.00
N229   N     0.78920   0.13704   0.31402   0.00000  Uiso   1.00
N230   N     0.27674   0.27442   0.17420   0.00000  Uiso   1.00
C231   C     0.69418   0.72818   0.62373   0.00000  Uiso   1.00
C232   C     0.61546   0.78051   0.60667   0.00000  Uiso   1.00
C233   C     0.60733   0.88324   0.61964   0.00000  Uiso   1.00
C234   C     0.53016   0.91627   0.60016   0.00000  Uiso   1.00
C235   C     0.41801   0.00772   0.57845   0.00000  Uiso   1.00
C236   C     0.60198   0.58889   0.63177   0.00000  Uiso   1.00
C237   C     0.58253   0.53051   0.66584   0.00000  Uiso   1.00
C238   C     0.49402   0.40223   0.66749   0.00000  Uiso   1.00
C239   C     0.36101   0.19618   0.68475   0.00000  Uiso   1.00
C240   C     0.78107   0.73014   0.59323   0.00000  Uiso   1.00
C241   C     0.91221   0.79050   0.59491   0.00000  Uiso   1.00
C242   C     0.97448   0.78112   0.56411   0.00000  Uiso   1.00
C243   C     0.11954   0.79438   0.52153   0.00000  Uiso   1.00
C244   C     0.57159   0.60416   0.56607   0.00000  Uiso   1.00
C245   C     0.54888   0.71314   0.57535   0.00000  Uiso   1.00
C246   C     0.47170   0.74602   0.55585   0.00000  Uiso   1.00
C247   C     0.46346   0.84878   0.56879   0.00000  Uiso   1.00
C248   C     0.53540   0.52152   0.60045   0.00000  Uiso   1.00
C249   C     0.44690   0.39329   0.60205   0.00000  Uiso   1.00
C250   C     0.42732   0.33474   0.63612   0.00000  Uiso   1.00
C251   C     0.71449   0.66278   0.56191   0.00000  Uiso   1.00
C252   C     0.77658   0.65329   0.53112   0.00000  Uiso   1.00
C253   C     0.90778   0.71363   0.53274   0.00000  Uiso   1.00
H254   H     0.74601   0.78062   0.64811   0.00000  Uiso   1.00
H255   H     0.65886   0.93534   0.64388   0.00000  Uiso   1.00
H256   H     0.63408   0.58267   0.69007   0.00000  Uiso   1.00
H257   H     0.96370   0.84262   0.61915   0.00000  Uiso   1.00
H258   H     0.53284   0.07714   0.62539   0.00000  Uiso   1.00
H259   H     0.48061   0.33350   0.72279   0.00000  Uiso   1.00
H260   H     0.17569   0.88166   0.57323   0.00000  Uiso   1.00
H261   H     0.51975   0.55170   0.54169   0.00000  Uiso   1.00
H262   H     0.42019   0.69387   0.53162   0.00000  Uiso   1.00
H263   H     0.39540   0.34119   0.57781   0.00000  Uiso   1.00
H264   H     0.72502   0.60115   0.50689   0.00000  Uiso   1.00
H265   H     0.33912   0.88115   0.53427   0.00000  Uiso   1.00
H266   H     0.28690   0.13751   0.63167   0.00000  Uiso   1.00
H267   H     0.98197   0.68567   0.48211   0.00000  Uiso   1.00
O268   O     0.37453   0.07677   0.57513   0.00000  Uiso   1.00
O269   O     0.30603   0.10114   0.70292   0.00000  Uiso   1.00
O270   O     0.21795   0.82032   0.50669   0.00000  Uiso   1.00
N271   N     0.50093   0.01152   0.60532   0.00000  Uiso   1.00
N272   N     0.45209   0.31627   0.69639   0.00000  Uiso   1.00
N273   N     0.10192   0.82872   0.55656   0.00000  Uiso   1.00
N274   N     0.39669   0.90606   0.55629   0.00000  Uiso   1.00
N275   N     0.34785   0.21080   0.64736   0.00000  Uiso   1.00
N276   N     0.99768   0.72326   0.50753   0.00000  Uiso   1.00
