data_job_03614
_audit_creation_date              2018-12-19
_audit_creation_method            'Materials Studio'
_symmetry_space_group_name_H-M    'P1'
_symmetry_Int_Tables_number       1
_symmetry_cell_setting            triclinic
loop_
_symmetry_equiv_pos_as_xyz
  x,y,z
_cell_length_a                    9.7438
_cell_length_b                    13.5073
_cell_length_c                    20.5363
_cell_angle_alpha                 96.0526
_cell_angle_beta                  95.3134
_cell_angle_gamma                 82.0580
loop_
_atom_site_label
_atom_site_type_symbol
_atom_site_fract_x
_atom_site_fract_y
_atom_site_fract_z
_atom_site_U_iso_or_equiv
_atom_site_adp_type
_atom_site_occupancy
C1     C     0.32417   0.13616   0.29458   0.00000  Uiso   1.00
C2     C     0.23686   0.17406   0.35222   0.00000  Uiso   1.00
C3     C     0.19891   0.27399   0.37410   0.00000  Uiso   1.00
C4     C     0.11878   0.29314   0.42762   0.00000  Uiso   1.00
C5     C     0.98945   0.36386   0.51250   0.00000  Uiso   1.00
C6     C     0.44747   0.06627   0.32202   0.00000  Uiso   1.00
C7     C     0.58660   0.07557   0.31850   0.00000  Uiso   1.00
C8     C     0.68376   0.00397   0.34659   0.00000  Uiso   1.00
C9     C     0.88140   0.90731   0.38454   0.00000  Uiso   1.00
C10    C     0.23691   0.06966   0.24796   0.00000  Uiso   1.00
C11    C     0.19903   0.08179   0.18217   0.00000  Uiso   1.00
C12    C     0.11893   0.01303   0.14791   0.00000  Uiso   1.00
C13    C     0.98965   0.92163   0.07088   0.00000  Uiso   1.00
C14    C     0.24932   0.99243   0.35070   0.00000  Uiso   1.00
C15    C     0.19620   0.09599   0.38270   0.00000  Uiso   1.00
C16    C     0.11610   0.11499   0.43620   0.00000  Uiso   1.00
C17    C     0.07804   0.21494   0.45816   0.00000  Uiso   1.00
C18    C     0.40682   0.98820   0.35250   0.00000  Uiso   1.00
C19    C     0.50379   0.91656   0.38059   0.00000  Uiso   1.00
C20    C     0.64303   0.92576   0.37712   0.00000  Uiso   1.00
C21    C     0.19625   0.99159   0.27844   0.00000  Uiso   1.00
C22    C     0.11621   0.92279   0.24427   0.00000  Uiso   1.00
C23    C     0.07820   0.93482   0.17845   0.00000  Uiso   1.00
H24    H     0.35583   0.19693   0.27084   0.00000  Uiso   1.00
H25    H     0.23041   0.33439   0.35050   0.00000  Uiso   1.00
H26    H     0.61803   0.13599   0.29490   0.00000  Uiso   1.00
H27    H     0.23051   0.14221   0.15860   0.00000  Uiso   1.00
H28    H     0.07347   0.45236   0.45227   0.00000  Uiso   1.00
H29    H     0.89080   0.03400   0.33502   0.00000  Uiso   1.00
H30    H     0.07363   0.04712   0.04760   0.00000  Uiso   1.00
H31    H     0.21767   0.93165   0.37443   0.00000  Uiso   1.00
H32    H     0.08465   0.05456   0.45978   0.00000  Uiso   1.00
H33    H     0.47229   0.85616   0.40418   0.00000  Uiso   1.00
H34    H     0.08476   0.86239   0.26788   0.00000  Uiso   1.00
H35    H     0.95517   0.22524   0.54097   0.00000  Uiso   1.00
H36    H     0.77251   0.80688   0.42371   0.00000  Uiso   1.00
H37    H     0.95534   0.82001   0.13629   0.00000  Uiso   1.00
O38    O     0.92936   0.42443   0.55091   0.00000  Uiso   1.00
O39    O     0.00166   0.87556   0.39706   0.00000  Uiso   1.00
O40    O     0.92955   0.89278   0.01998   0.00000  Uiso   1.00
N41    N     0.06386   0.38204   0.46143   0.00000  Uiso   1.00
N42    N     0.82801   0.99091   0.35181   0.00000  Uiso   1.00
N43    N     0.06406   0.00316   0.08309   0.00000  Uiso   1.00
N44    N     0.00020   0.25983   0.50915   0.00000  Uiso   1.00
N45    N     0.76436   0.86870   0.39953   0.00000  Uiso   1.00
N46    N     0.00041   0.88096   0.13082   0.00000  Uiso   1.00
C47    C     0.67583   0.86384   0.70542   0.00000  Uiso   1.00
C48    C     0.76314   0.82594   0.64778   0.00000  Uiso   1.00
C49    C     0.80109   0.72601   0.62590   0.00000  Uiso   1.00
C50    C     0.88122   0.70686   0.57238   0.00000  Uiso   1.00
C51    C     0.01055   0.63614   0.48750   0.00000  Uiso   1.00
C52    C     0.55253   0.93373   0.67798   0.00000  Uiso   1.00
C53    C     0.41340   0.92443   0.68150   0.00000  Uiso   1.00
C54    C     0.31624   0.99603   0.65341   0.00000  Uiso   1.00
C55    C     0.11860   0.09269   0.61546   0.00000  Uiso   1.00
C56    C     0.76309   0.93034   0.75204   0.00000  Uiso   1.00
C57    C     0.80097   0.91821   0.81783   0.00000  Uiso   1.00
C58    C     0.88107   0.98697   0.85209   0.00000  Uiso   1.00
C59    C     0.01035   0.07837   0.92912   0.00000  Uiso   1.00
C60    C     0.75068   0.00757   0.64930   0.00000  Uiso   1.00
C61    C     0.80380   0.90401   0.61730   0.00000  Uiso   1.00
C62    C     0.88390   0.88501   0.56380   0.00000  Uiso   1.00
C63    C     0.92196   0.78506   0.54184   0.00000  Uiso   1.00
C64    C     0.59318   0.01180   0.64750   0.00000  Uiso   1.00
C65    C     0.49621   0.08344   0.61941   0.00000  Uiso   1.00
C66    C     0.35697   0.07424   0.62288   0.00000  Uiso   1.00
C67    C     0.80375   0.00841   0.72156   0.00000  Uiso   1.00
C68    C     0.88379   0.07721   0.75573   0.00000  Uiso   1.00
C69    C     0.92180   0.06518   0.82155   0.00000  Uiso   1.00
H70    H     0.64417   0.80307   0.72916   0.00000  Uiso   1.00
H71    H     0.76959   0.66561   0.64950   0.00000  Uiso   1.00
H72    H     0.38197   0.86401   0.70510   0.00000  Uiso   1.00
H73    H     0.76949   0.85779   0.84140   0.00000  Uiso   1.00
H74    H     0.92653   0.54764   0.54773   0.00000  Uiso   1.00
H75    H     0.10920   0.96600   0.66498   0.00000  Uiso   1.00
H76    H     0.92637   0.95288   0.95240   0.00000  Uiso   1.00
H77    H     0.78233   0.06835   0.62557   0.00000  Uiso   1.00
H78    H     0.91535   0.94544   0.54022   0.00000  Uiso   1.00
H79    H     0.52771   0.14384   0.59582   0.00000  Uiso   1.00
H80    H     0.91524   0.13761   0.73212   0.00000  Uiso   1.00
H81    H     0.04483   0.77476   0.45903   0.00000  Uiso   1.00
H82    H     0.22749   0.19312   0.57629   0.00000  Uiso   1.00
H83    H     0.04466   0.17999   0.86371   0.00000  Uiso   1.00
O84    O     0.07064   0.57557   0.44909   0.00000  Uiso   1.00
O85    O     0.99834   0.12444   0.60294   0.00000  Uiso   1.00
O86    O     0.07045   0.10722   0.98002   0.00000  Uiso   1.00
N87    N     0.93614   0.61796   0.53857   0.00000  Uiso   1.00
N88    N     0.17199   0.00909   0.64819   0.00000  Uiso   1.00
N89    N     0.93594   0.99684   0.91691   0.00000  Uiso   1.00
N90    N     0.99980   0.74017   0.49085   0.00000  Uiso   1.00
N91    N     0.23564   0.13130   0.60047   0.00000  Uiso   1.00
N92    N     0.99959   0.11904   0.86918   0.00000  Uiso   1.00
