data_job_04783
_audit_creation_date              2018-12-19
_audit_creation_method            'Materials Studio'
_symmetry_space_group_name_H-M    'P1'
_symmetry_Int_Tables_number       1
_symmetry_cell_setting            triclinic
loop_
_symmetry_equiv_pos_as_xyz
  x,y,z
_cell_length_a                    12.1875
_cell_length_b                    13.8126
_cell_length_c                    41.5978
_cell_angle_alpha                 90.0000
_cell_angle_beta                  88.4055
_cell_angle_gamma                 90.0000
loop_
_atom_site_label
_atom_site_type_symbol
_atom_site_fract_x
_atom_site_fract_y
_atom_site_fract_z
_atom_site_U_iso_or_equiv
_atom_site_adp_type
_atom_site_occupancy
C1     C     0.89034   0.62870   0.09228   0.00000  Uiso   1.00
C2     C     0.80534   0.56634   0.07579   0.00000  Uiso   1.00
C3     C     0.70347   0.59744   0.06584   0.00000  Uiso   1.00
C4     C     0.63760   0.52928   0.05122   0.00000  Uiso   1.00
C5     C     0.50029   0.44702   0.02630   0.00000  Uiso   1.00
C6     C     0.91445   0.57774   0.12383   0.00000  Uiso   1.00
C7     C     0.90433   0.61843   0.15428   0.00000  Uiso   1.00
C8     C     0.93033   0.55988   0.18010   0.00000  Uiso   1.00
C9     C     0.96250   0.49534   0.22977   0.00000  Uiso   1.00
C10    C     0.99520   0.62116   0.07157   0.00000  Uiso   1.00
C11    C     0.05300   0.69835   0.05808   0.00000  Uiso   1.00
C12    C     0.14700   0.67635   0.03991   0.00000  Uiso   1.00
C13    C     0.30455   0.67922   0.00844   0.00000  Uiso   1.00
C14    C     0.95452   0.45236   0.08402   0.00000  Uiso   1.00
C15    C     0.84020   0.47056   0.07130   0.00000  Uiso   1.00
C16    C     0.77447   0.40234   0.05669   0.00000  Uiso   1.00
C17    C     0.67252   0.43333   0.04672   0.00000  Uiso   1.00
C18    C     0.94931   0.48197   0.11934   0.00000  Uiso   1.00
C19    C     0.97534   0.42334   0.14513   0.00000  Uiso   1.00
C20    C     0.96525   0.46392   0.17561   0.00000  Uiso   1.00
C21    C     0.03006   0.52538   0.06708   0.00000  Uiso   1.00
C22    C     0.12400   0.50325   0.04893   0.00000  Uiso   1.00
C23    C     0.18193   0.58040   0.03542   0.00000  Uiso   1.00
H24    H     0.86320   0.70327   0.09578   0.00000  Uiso   1.00
H25    H     0.67652   0.67157   0.06932   0.00000  Uiso   1.00
H26    H     0.87736   0.69256   0.15774   0.00000  Uiso   1.00
H27    H     0.02600   0.77246   0.06156   0.00000  Uiso   1.00
H28    H     0.48490   0.59417   0.03801   0.00000  Uiso   1.00
H29    H     0.90843   0.63845   0.22446   0.00000  Uiso   1.00
H30    H     0.22187   0.80695   0.02164   0.00000  Uiso   1.00
H31    H     0.98166   0.37779   0.08052   0.00000  Uiso   1.00
H32    H     0.80147   0.32822   0.05322   0.00000  Uiso   1.00
H33    H     0.00232   0.34922   0.14165   0.00000  Uiso   1.00
H34    H     0.15095   0.42912   0.04547   0.00000  Uiso   1.00
H35    H     0.58632   0.31550   0.02494   0.00000  Uiso   1.00
H36    H     0.00985   0.35978   0.21140   0.00000  Uiso   1.00
H37    H     0.32328   0.52828   0.00858   0.00000  Uiso   1.00
O38    O     0.41492   0.42810   0.01380   0.00000  Uiso   1.00
O39    O     0.97060   0.48620   0.25841   0.00000  Uiso   1.00
O40    O     0.38181   0.70726   0.99232   0.00000  Uiso   1.00
N41    N     0.53351   0.53539   0.03867   0.00000  Uiso   1.00
N42    N     0.92946   0.57679   0.21299   0.00000  Uiso   1.00
N43    N     0.22252   0.73432   0.02338   0.00000  Uiso   1.00
N44    N     0.58808   0.38544   0.03164   0.00000  Uiso   1.00
N45    N     0.98403   0.42684   0.20596   0.00000  Uiso   1.00
N46    N     0.27709   0.58437   0.01635   0.00000  Uiso   1.00
C47    C     0.88621   0.38062   0.59266   0.00000  Uiso   1.00
C48    C     0.80143   0.31927   0.57567   0.00000  Uiso   1.00
C49    C     0.69973   0.35100   0.56579   0.00000  Uiso   1.00
C50    C     0.63405   0.28373   0.55067   0.00000  Uiso   1.00
C51    C     0.49709   0.20298   0.52508   0.00000  Uiso   1.00
C52    C     0.90984   0.32790   0.62392   0.00000  Uiso   1.00
C53    C     0.89931   0.36690   0.65460   0.00000  Uiso   1.00
C54    C     0.92490   0.30689   0.68010   0.00000  Uiso   1.00
C55    C     0.95632   0.23958   0.72941   0.00000  Uiso   1.00
C56    C     0.99136   0.37415   0.57203   0.00000  Uiso   1.00
C57    C     0.04938   0.45203   0.55908   0.00000  Uiso   1.00
C58    C     0.14362   0.43096   0.54090   0.00000  Uiso   1.00
C59    C     0.30160   0.43544   0.50964   0.00000  Uiso   1.00
C60    C     0.95042   0.20472   0.58339   0.00000  Uiso   1.00
C61    C     0.83631   0.22373   0.57064   0.00000  Uiso   1.00
C62    C     0.77077   0.15638   0.55554   0.00000  Uiso   1.00
C63    C     0.66899   0.18801   0.54563   0.00000  Uiso   1.00
C64    C     0.94472   0.23236   0.61889   0.00000  Uiso   1.00
C65    C     0.97035   0.17228   0.64435   0.00000  Uiso   1.00
C66    C     0.95984   0.21118   0.67506   0.00000  Uiso   1.00
C67    C     0.02624   0.27860   0.56700   0.00000  Uiso   1.00
C68    C     0.12041   0.25741   0.54883   0.00000  Uiso   1.00
C69    C     0.17856   0.33524   0.53586   0.00000  Uiso   1.00
H70    H     0.85906   0.45501   0.59658   0.00000  Uiso   1.00
H71    H     0.67277   0.42495   0.56969   0.00000  Uiso   1.00
H72    H     0.87232   0.44085   0.65849   0.00000  Uiso   1.00
H73    H     0.02236   0.52596   0.56298   0.00000  Uiso   1.00
H74    H     0.48159   0.34947   0.53767   0.00000  Uiso   1.00
H75    H     0.90240   0.38301   0.72490   0.00000  Uiso   1.00
H76    H     0.21879   0.56249   0.52352   0.00000  Uiso   1.00
H77    H     0.97758   0.13033   0.57947   0.00000  Uiso   1.00
H78    H     0.79779   0.08245   0.55164   0.00000  Uiso   1.00
H79    H     0.99734   0.09835   0.64044   0.00000  Uiso   1.00
H80    H     0.14738   0.18346   0.54494   0.00000  Uiso   1.00
H81    H     0.58306   0.07149   0.52303   0.00000  Uiso   1.00
H82    H     0.00387   0.10503   0.71026   0.00000  Uiso   1.00
H83    H     0.32026   0.28450   0.50887   0.00000  Uiso   1.00
O84    O     0.41190   0.18483   0.51236   0.00000  Uiso   1.00
O85    O     0.96400   0.22884   0.75800   0.00000  Uiso   1.00
O86    O     0.37910   0.46431   0.49379   0.00000  Uiso   1.00
N87    N     0.53015   0.29063   0.53804   0.00000  Uiso   1.00
N88    N     0.92357   0.32197   0.71309   0.00000  Uiso   1.00
N89    N     0.21939   0.48977   0.52482   0.00000  Uiso   1.00
N90    N     0.58475   0.14105   0.53016   0.00000  Uiso   1.00
N91    N     0.97817   0.17239   0.70521   0.00000  Uiso   1.00
N92    N     0.27399   0.34019   0.51694   0.00000  Uiso   1.00
C93    C     0.40358   0.37473   0.40717   0.00000  Uiso   1.00
C94    C     0.31520   0.31540   0.42479   0.00000  Uiso   1.00
C95    C     0.21176   0.34844   0.43429   0.00000  Uiso   1.00
C96    C     0.14280   0.28294   0.45011   0.00000  Uiso   1.00
C97    C     0.00046   0.20527   0.47654   0.00000  Uiso   1.00
C98    C     0.43299   0.31881   0.37652   0.00000  Uiso   1.00
C99    C     0.42859   0.35473   0.34542   0.00000  Uiso   1.00
C100   C     0.45880   0.29210   0.32061   0.00000  Uiso   1.00
C101   C     0.49941   0.21975   0.27208   0.00000  Uiso   1.00
C102   C     0.50470   0.36999   0.42789   0.00000  Uiso   1.00
C103   C     0.56063   0.44894   0.43999   0.00000  Uiso   1.00
C104   C     0.65123   0.42940   0.45843   0.00000  Uiso   1.00
C105   C     0.80318   0.43652   0.48967   0.00000  Uiso   1.00
C106   C     0.46507   0.19965   0.41840   0.00000  Uiso   1.00
C107   C     0.34860   0.22030   0.43089   0.00000  Uiso   1.00
C108   C     0.27978   0.15473   0.44671   0.00000  Uiso   1.00
C109   C     0.17625   0.18767   0.45623   0.00000  Uiso   1.00
C110   C     0.46638   0.22372   0.38262   0.00000  Uiso   1.00
C111   C     0.49662   0.16102   0.35785   0.00000  Uiso   1.00
C112   C     0.49226   0.19683   0.32672   0.00000  Uiso   1.00
C113   C     0.53810   0.27489   0.43399   0.00000  Uiso   1.00
C114   C     0.62864   0.25523   0.45242   0.00000  Uiso   1.00
C115   C     0.68469   0.33414   0.46454   0.00000  Uiso   1.00
H116   H     0.37759   0.44876   0.40242   0.00000  Uiso   1.00
H117   H     0.18594   0.42204   0.42956   0.00000  Uiso   1.00
H118   H     0.40275   0.42833   0.34071   0.00000  Uiso   1.00
H119   H     0.53476   0.52252   0.43526   0.00000  Uiso   1.00
H120   H     0.98817   0.35046   0.46233   0.00000  Uiso   1.00
H121   H     0.44537   0.36373   0.27498   0.00000  Uiso   1.00
H122   H     0.72374   0.56236   0.47437   0.00000  Uiso   1.00
H123   H     0.49107   0.12560   0.42315   0.00000  Uiso   1.00
H124   H     0.30565   0.08114   0.45143   0.00000  Uiso   1.00
H125   H     0.52246   0.08744   0.36258   0.00000  Uiso   1.00
H126   H     0.65446   0.18163   0.45713   0.00000  Uiso   1.00
H127   H     0.08533   0.07378   0.48008   0.00000  Uiso   1.00
H128   H     0.54254   0.08705   0.29273   0.00000  Uiso   1.00
H129   H     0.82089   0.28568   0.49212   0.00000  Uiso   1.00
O130   O     0.91271   0.18869   0.48942   0.00000  Uiso   1.00
O131   O     0.51256   0.20612   0.24363   0.00000  Uiso   1.00
O132   O     0.87776   0.46671   0.50523   0.00000  Uiso   1.00
N133   N     0.03649   0.29145   0.46263   0.00000  Uiso   1.00
N134   N     0.46393   0.30386   0.28747   0.00000  Uiso   1.00
N135   N     0.72420   0.48956   0.47388   0.00000  Uiso   1.00
N136   N     0.08877   0.14257   0.47218   0.00000  Uiso   1.00
N137   N     0.51621   0.15498   0.29702   0.00000  Uiso   1.00
N138   N     0.77648   0.34068   0.48343   0.00000  Uiso   1.00
C139   C     0.40513   0.61605   0.90709   0.00000  Uiso   1.00
C140   C     0.31681   0.55731   0.92497   0.00000  Uiso   1.00
C141   C     0.21355   0.59077   0.93448   0.00000  Uiso   1.00
C142   C     0.14462   0.52579   0.95056   0.00000  Uiso   1.00
C143   C     0.00240   0.44903   0.97734   0.00000  Uiso   1.00
C144   C     0.43402   0.55932   0.87657   0.00000  Uiso   1.00
C145   C     0.42934   0.59447   0.84538   0.00000  Uiso   1.00
C146   C     0.45909   0.53117   0.82072   0.00000  Uiso   1.00
C147   C     0.49893   0.45754   0.77236   0.00000  Uiso   1.00
C148   C     0.50650   0.61165   0.92772   0.00000  Uiso   1.00
C149   C     0.56277   0.69081   0.93954   0.00000  Uiso   1.00
C150   C     0.65356   0.67157   0.95794   0.00000  Uiso   1.00
C151   C     0.80593   0.67920   0.98900   0.00000  Uiso   1.00
C152   C     0.46633   0.44115   0.91875   0.00000  Uiso   1.00
C153   C     0.35005   0.46231   0.93130   0.00000  Uiso   1.00
C154   C     0.28126   0.39726   0.94737   0.00000  Uiso   1.00
C155   C     0.17792   0.43062   0.95690   0.00000  Uiso   1.00
C156   C     0.46726   0.46432   0.88290   0.00000  Uiso   1.00
C157   C     0.49704   0.40096   0.85827   0.00000  Uiso   1.00
C158   C     0.49239   0.43600   0.82706   0.00000  Uiso   1.00
C159   C     0.53974   0.51665   0.93405   0.00000  Uiso   1.00
C160   C     0.63047   0.49729   0.95243   0.00000  Uiso   1.00
C161   C     0.68686   0.57640   0.96428   0.00000  Uiso   1.00
H162   H     0.37926   0.69001   0.90216   0.00000  Uiso   1.00
H163   H     0.18786   0.66430   0.92957   0.00000  Uiso   1.00
H164   H     0.40362   0.66799   0.84049   0.00000  Uiso   1.00
H165   H     0.53702   0.76431   0.93464   0.00000  Uiso   1.00
H166   H     0.99030   0.59388   0.96274   0.00000  Uiso   1.00
H167   H     0.44528   0.60168   0.77491   0.00000  Uiso   1.00
H168   H     0.72660   0.80480   0.97343   0.00000  Uiso   1.00
H169   H     0.49221   0.36718   0.92367   0.00000  Uiso   1.00
H170   H     0.30700   0.32375   0.95227   0.00000  Uiso   1.00
H171   H     0.52277   0.32745   0.86318   0.00000  Uiso   1.00
H172   H     0.65617   0.42377   0.95732   0.00000  Uiso   1.00
H173   H     0.08700   0.31748   0.98116   0.00000  Uiso   1.00
H174   H     0.54199   0.32529   0.79332   0.00000  Uiso   1.00
H175   H     0.82330   0.52840   0.99184   0.00000  Uiso   1.00
O176   O     0.91476   0.43293   0.99036   0.00000  Uiso   1.00
O177   O     0.51171   0.44317   0.74393   0.00000  Uiso   1.00
O178   O     0.88078   0.70965   0.00439   0.00000  Uiso   1.00
N179   N     0.03848   0.53479   0.96316   0.00000  Uiso   1.00
N180   N     0.46385   0.54209   0.78754   0.00000  Uiso   1.00
N181   N     0.72687   0.73198   0.97314   0.00000  Uiso   1.00
N182   N     0.09052   0.38607   0.97307   0.00000  Uiso   1.00
N183   N     0.51588   0.39336   0.79745   0.00000  Uiso   1.00
N184   N     0.77890   0.58326   0.98305   0.00000  Uiso   1.00
C185   C     0.10966   0.12870   0.90772   0.00000  Uiso   1.00
C186   C     0.19466   0.06634   0.92421   0.00000  Uiso   1.00
C187   C     0.29653   0.09744   0.93416   0.00000  Uiso   1.00
C188   C     0.36240   0.02928   0.94878   0.00000  Uiso   1.00
C189   C     0.49971   0.94702   0.97370   0.00000  Uiso   1.00
C190   C     0.08555   0.07774   0.87617   0.00000  Uiso   1.00
C191   C     0.09567   0.11843   0.84572   0.00000  Uiso   1.00
C192   C     0.06967   0.05988   0.81990   0.00000  Uiso   1.00
C193   C     0.03750   0.99534   0.77023   0.00000  Uiso   1.00
C194   C     0.00480   0.12116   0.92843   0.00000  Uiso   1.00
C195   C     0.94700   0.19835   0.94192   0.00000  Uiso   1.00
C196   C     0.85300   0.17635   0.96009   0.00000  Uiso   1.00
C197   C     0.69545   0.17922   0.99156   0.00000  Uiso   1.00
C198   C     0.04548   0.95236   0.91598   0.00000  Uiso   1.00
C199   C     0.15980   0.97056   0.92870   0.00000  Uiso   1.00
C200   C     0.22553   0.90234   0.94331   0.00000  Uiso   1.00
C201   C     0.32748   0.93333   0.95328   0.00000  Uiso   1.00
C202   C     0.05069   0.98197   0.88066   0.00000  Uiso   1.00
C203   C     0.02466   0.92334   0.85487   0.00000  Uiso   1.00
C204   C     0.03475   0.96392   0.82439   0.00000  Uiso   1.00
C205   C     0.96994   0.02538   0.93292   0.00000  Uiso   1.00
C206   C     0.87600   0.00325   0.95107   0.00000  Uiso   1.00
C207   C     0.81807   0.08040   0.96458   0.00000  Uiso   1.00
H208   H     0.13680   0.20327   0.90422   0.00000  Uiso   1.00
H209   H     0.32348   0.17157   0.93068   0.00000  Uiso   1.00
H210   H     0.12264   0.19256   0.84226   0.00000  Uiso   1.00
H211   H     0.97400   0.27246   0.93844   0.00000  Uiso   1.00
H212   H     0.51510   0.09417   0.96199   0.00000  Uiso   1.00
H213   H     0.09157   0.13845   0.77554   0.00000  Uiso   1.00
H214   H     0.77813   0.30695   0.97836   0.00000  Uiso   1.00
H215   H     0.01834   0.87779   0.91948   0.00000  Uiso   1.00
H216   H     0.19853   0.82822   0.94678   0.00000  Uiso   1.00
H217   H     0.99768   0.84922   0.85835   0.00000  Uiso   1.00
H218   H     0.84905   0.92912   0.95453   0.00000  Uiso   1.00
H219   H     0.41368   0.81550   0.97506   0.00000  Uiso   1.00
H220   H     0.99015   0.85978   0.78860   0.00000  Uiso   1.00
H221   H     0.67672   0.02828   0.99142   0.00000  Uiso   1.00
O222   O     0.58508   0.92810   0.98620   0.00000  Uiso   1.00
O223   O     0.02940   0.98620   0.74159   0.00000  Uiso   1.00
O224   O     0.61819   0.20726   0.00768   0.00000  Uiso   1.00
N225   N     0.46649   0.03539   0.96133   0.00000  Uiso   1.00
N226   N     0.07054   0.07679   0.78701   0.00000  Uiso   1.00
N227   N     0.77748   0.23432   0.97662   0.00000  Uiso   1.00
N228   N     0.41192   0.88544   0.96836   0.00000  Uiso   1.00
N229   N     0.01597   0.92684   0.79404   0.00000  Uiso   1.00
N230   N     0.72291   0.08437   0.98365   0.00000  Uiso   1.00
C231   C     0.11379   0.88062   0.40734   0.00000  Uiso   1.00
C232   C     0.19857   0.81927   0.42433   0.00000  Uiso   1.00
C233   C     0.30027   0.85100   0.43421   0.00000  Uiso   1.00
C234   C     0.36595   0.78373   0.44933   0.00000  Uiso   1.00
C235   C     0.50291   0.70298   0.47492   0.00000  Uiso   1.00
C236   C     0.09016   0.82790   0.37608   0.00000  Uiso   1.00
C237   C     0.10069   0.86690   0.34540   0.00000  Uiso   1.00
C238   C     0.07510   0.80689   0.31990   0.00000  Uiso   1.00
C239   C     0.04368   0.73958   0.27059   0.00000  Uiso   1.00
C240   C     0.00864   0.87415   0.42797   0.00000  Uiso   1.00
C241   C     0.95062   0.95203   0.44092   0.00000  Uiso   1.00
C242   C     0.85638   0.93096   0.45910   0.00000  Uiso   1.00
C243   C     0.69840   0.93544   0.49036   0.00000  Uiso   1.00
C244   C     0.04958   0.70472   0.41661   0.00000  Uiso   1.00
C245   C     0.16369   0.72373   0.42936   0.00000  Uiso   1.00
C246   C     0.22923   0.65638   0.44446   0.00000  Uiso   1.00
C247   C     0.33101   0.68801   0.45437   0.00000  Uiso   1.00
C248   C     0.05528   0.73236   0.38111   0.00000  Uiso   1.00
C249   C     0.02965   0.67228   0.35565   0.00000  Uiso   1.00
C250   C     0.04016   0.71118   0.32494   0.00000  Uiso   1.00
C251   C     0.97376   0.77860   0.43300   0.00000  Uiso   1.00
C252   C     0.87959   0.75741   0.45117   0.00000  Uiso   1.00
C253   C     0.82144   0.83524   0.46414   0.00000  Uiso   1.00
H254   H     0.14094   0.95501   0.40342   0.00000  Uiso   1.00
H255   H     0.32723   0.92495   0.43031   0.00000  Uiso   1.00
H256   H     0.12768   0.94085   0.34151   0.00000  Uiso   1.00
H257   H     0.97764   0.02596   0.43702   0.00000  Uiso   1.00
H258   H     0.51841   0.84947   0.46233   0.00000  Uiso   1.00
H259   H     0.09760   0.88301   0.27510   0.00000  Uiso   1.00
H260   H     0.78121   0.06249   0.47648   0.00000  Uiso   1.00
H261   H     0.02242   0.63033   0.42053   0.00000  Uiso   1.00
H262   H     0.20221   0.58245   0.44836   0.00000  Uiso   1.00
H263   H     0.00266   0.59835   0.35956   0.00000  Uiso   1.00
H264   H     0.85262   0.68346   0.45506   0.00000  Uiso   1.00
H265   H     0.41694   0.57149   0.47697   0.00000  Uiso   1.00
H266   H     0.99613   0.60503   0.28974   0.00000  Uiso   1.00
H267   H     0.67974   0.78450   0.49113   0.00000  Uiso   1.00
O268   O     0.58810   0.68483   0.48764   0.00000  Uiso   1.00
O269   O     0.03600   0.72884   0.24200   0.00000  Uiso   1.00
O270   O     0.62090   0.96431   0.50621   0.00000  Uiso   1.00
N271   N     0.46985   0.79063   0.46196   0.00000  Uiso   1.00
N272   N     0.07643   0.82197   0.28691   0.00000  Uiso   1.00
N273   N     0.78061   0.98977   0.47518   0.00000  Uiso   1.00
N274   N     0.41525   0.64105   0.46984   0.00000  Uiso   1.00
N275   N     0.02183   0.67239   0.29479   0.00000  Uiso   1.00
N276   N     0.72601   0.84019   0.48306   0.00000  Uiso   1.00
C277   C     0.59642   0.87473   0.59283   0.00000  Uiso   1.00
C278   C     0.68480   0.81540   0.57521   0.00000  Uiso   1.00
C279   C     0.78824   0.84844   0.56571   0.00000  Uiso   1.00
C280   C     0.85720   0.78294   0.54989   0.00000  Uiso   1.00
C281   C     0.99954   0.70527   0.52346   0.00000  Uiso   1.00
C282   C     0.56701   0.81881   0.62348   0.00000  Uiso   1.00
C283   C     0.57141   0.85473   0.65458   0.00000  Uiso   1.00
C284   C     0.54120   0.79210   0.67939   0.00000  Uiso   1.00
C285   C     0.50059   0.71975   0.72792   0.00000  Uiso   1.00
C286   C     0.49530   0.86999   0.57211   0.00000  Uiso   1.00
C287   C     0.43937   0.94894   0.56001   0.00000  Uiso   1.00
C288   C     0.34877   0.92940   0.54157   0.00000  Uiso   1.00
C289   C     0.19682   0.93652   0.51033   0.00000  Uiso   1.00
C290   C     0.53493   0.69965   0.58160   0.00000  Uiso   1.00
C291   C     0.65140   0.72030   0.56911   0.00000  Uiso   1.00
C292   C     0.72022   0.65473   0.55329   0.00000  Uiso   1.00
C293   C     0.82375   0.68767   0.54377   0.00000  Uiso   1.00
C294   C     0.53362   0.72372   0.61738   0.00000  Uiso   1.00
C295   C     0.50338   0.66102   0.64215   0.00000  Uiso   1.00
C296   C     0.50774   0.69683   0.67328   0.00000  Uiso   1.00
C297   C     0.46190   0.77489   0.56601   0.00000  Uiso   1.00
C298   C     0.37136   0.75523   0.54758   0.00000  Uiso   1.00
C299   C     0.31531   0.83414   0.53546   0.00000  Uiso   1.00
H300   H     0.62241   0.94876   0.59758   0.00000  Uiso   1.00
H301   H     0.81406   0.92204   0.57044   0.00000  Uiso   1.00
H302   H     0.59725   0.92833   0.65929   0.00000  Uiso   1.00
H303   H     0.46524   0.02252   0.56474   0.00000  Uiso   1.00
H304   H     0.01183   0.85046   0.53767   0.00000  Uiso   1.00
H305   H     0.55463   0.86373   0.72502   0.00000  Uiso   1.00
H306   H     0.27626   0.06236   0.52563   0.00000  Uiso   1.00
H307   H     0.50893   0.62560   0.57685   0.00000  Uiso   1.00
H308   H     0.69435   0.58114   0.54857   0.00000  Uiso   1.00
H309   H     0.47754   0.58744   0.63742   0.00000  Uiso   1.00
H310   H     0.34554   0.68163   0.54287   0.00000  Uiso   1.00
H311   H     0.91467   0.57378   0.51992   0.00000  Uiso   1.00
H312   H     0.45746   0.58705   0.70727   0.00000  Uiso   1.00
H313   H     0.17911   0.78568   0.50788   0.00000  Uiso   1.00
O314   O     0.08729   0.68869   0.51058   0.00000  Uiso   1.00
O315   O     0.48744   0.70612   0.75637   0.00000  Uiso   1.00
O316   O     0.12224   0.96671   0.49477   0.00000  Uiso   1.00
N317   N     0.96351   0.79145   0.53737   0.00000  Uiso   1.00
N318   N     0.53607   0.80386   0.71253   0.00000  Uiso   1.00
N319   N     0.27580   0.98956   0.52612   0.00000  Uiso   1.00
N320   N     0.91123   0.64257   0.52782   0.00000  Uiso   1.00
N321   N     0.48379   0.65498   0.70298   0.00000  Uiso   1.00
N322   N     0.22352   0.84068   0.51657   0.00000  Uiso   1.00
C323   C     0.59487   0.11605   0.09291   0.00000  Uiso   1.00
C324   C     0.68319   0.05731   0.07503   0.00000  Uiso   1.00
C325   C     0.78645   0.09077   0.06552   0.00000  Uiso   1.00
C326   C     0.85538   0.02579   0.04944   0.00000  Uiso   1.00
C327   C     0.99760   0.94903   0.02266   0.00000  Uiso   1.00
C328   C     0.56598   0.05932   0.12343   0.00000  Uiso   1.00
C329   C     0.57066   0.09447   0.15462   0.00000  Uiso   1.00
C330   C     0.54091   0.03117   0.17928   0.00000  Uiso   1.00
C331   C     0.50107   0.95754   0.22764   0.00000  Uiso   1.00
C332   C     0.49350   0.11165   0.07228   0.00000  Uiso   1.00
C333   C     0.43723   0.19081   0.06046   0.00000  Uiso   1.00
C334   C     0.34644   0.17157   0.04206   0.00000  Uiso   1.00
C335   C     0.19407   0.17920   0.01100   0.00000  Uiso   1.00
C336   C     0.53367   0.94115   0.08125   0.00000  Uiso   1.00
C337   C     0.64995   0.96231   0.06870   0.00000  Uiso   1.00
C338   C     0.71874   0.89726   0.05263   0.00000  Uiso   1.00
C339   C     0.82208   0.93062   0.04310   0.00000  Uiso   1.00
C340   C     0.53274   0.96432   0.11710   0.00000  Uiso   1.00
C341   C     0.50296   0.90096   0.14173   0.00000  Uiso   1.00
C342   C     0.50761   0.93600   0.17294   0.00000  Uiso   1.00
C343   C     0.46026   0.01665   0.06595   0.00000  Uiso   1.00
C344   C     0.36953   0.99729   0.04757   0.00000  Uiso   1.00
C345   C     0.31314   0.07640   0.03572   0.00000  Uiso   1.00
H346   H     0.62074   0.19001   0.09784   0.00000  Uiso   1.00
H347   H     0.81214   0.16430   0.07043   0.00000  Uiso   1.00
H348   H     0.59638   0.16799   0.15951   0.00000  Uiso   1.00
H349   H     0.46298   0.26431   0.06536   0.00000  Uiso   1.00
H350   H     0.00970   0.09388   0.03726   0.00000  Uiso   1.00
H351   H     0.55472   0.10168   0.22509   0.00000  Uiso   1.00
H352   H     0.27340   0.30480   0.02657   0.00000  Uiso   1.00
H353   H     0.50779   0.86718   0.07633   0.00000  Uiso   1.00
H354   H     0.69300   0.82375   0.04773   0.00000  Uiso   1.00
H355   H     0.47723   0.82745   0.13682   0.00000  Uiso   1.00
H356   H     0.34383   0.92377   0.04268   0.00000  Uiso   1.00
H357   H     0.91300   0.81748   0.01884   0.00000  Uiso   1.00
H358   H     0.45801   0.82529   0.20668   0.00000  Uiso   1.00
H359   H     0.17670   0.02840   0.00816   0.00000  Uiso   1.00
O360   O     0.08524   0.93293   0.00964   0.00000  Uiso   1.00
O361   O     0.48829   0.94317   0.25607   0.00000  Uiso   1.00
O362   O     0.11922   0.20965   0.99561   0.00000  Uiso   1.00
N363   N     0.96152   0.03479   0.03684   0.00000  Uiso   1.00
N364   N     0.53615   0.04209   0.21246   0.00000  Uiso   1.00
N365   N     0.27313   0.23198   0.02686   0.00000  Uiso   1.00
N366   N     0.90948   0.88607   0.02693   0.00000  Uiso   1.00
N367   N     0.48412   0.89336   0.20255   0.00000  Uiso   1.00
N368   N     0.22110   0.08326   0.01695   0.00000  Uiso   1.00
