data_job_02326
_audit_creation_date              2018-12-19
_audit_creation_method            'Materials Studio'
_symmetry_space_group_name_H-M    'P1'
_symmetry_Int_Tables_number       1
_symmetry_cell_setting            triclinic
loop_
_symmetry_equiv_pos_as_xyz
  x,y,z
_cell_length_a                    21.9636
_cell_length_b                    9.4970
_cell_length_c                    15.0522
_cell_angle_alpha                 90.0000
_cell_angle_beta                  76.1600
_cell_angle_gamma                 90.0000
loop_
_atom_site_label
_atom_site_type_symbol
_atom_site_fract_x
_atom_site_fract_y
_atom_site_fract_z
_atom_site_U_iso_or_equiv
_atom_site_adp_type
_atom_site_occupancy
C1     C     0.23927   0.02659   0.33463   0.00000  Uiso   1.00
C2     C     0.17739   0.07324   0.39759   0.00000  Uiso   1.00
C3     C     0.15155   0.20703   0.40083   0.00000  Uiso   1.00
C4     C     0.09455   0.22858   0.46317   0.00000  Uiso   1.00
C5     C     0.00306   0.31753   0.55231   0.00000  Uiso   1.00
C6     C     0.27886   0.96908   0.39697   0.00000  Uiso   1.00
C7     C     0.33834   0.01530   0.39966   0.00000  Uiso   1.00
C8     C     0.36676   0.94915   0.46147   0.00000  Uiso   1.00
C9     C     0.43282   0.87632   0.54958   0.00000  Uiso   1.00
C10    C     0.22368   0.90063   0.28125   0.00000  Uiso   1.00
C11    C     0.23678   0.88927   0.18665   0.00000  Uiso   1.00
C12    C     0.21876   0.76547   0.15103   0.00000  Uiso   1.00
C13    C     0.19914   0.58637   0.05948   0.00000  Uiso   1.00
C14    C     0.18400   0.82693   0.43959   0.00000  Uiso   1.00
C15    C     0.14737   0.96479   0.45461   0.00000  Uiso   1.00
C16    C     0.09040   0.98614   0.51696   0.00000  Uiso   1.00
C17    C     0.06448   0.11994   0.52029   0.00000  Uiso   1.00
C18    C     0.24885   0.86064   0.45398   0.00000  Uiso   1.00
C19    C     0.27719   0.79440   0.51579   0.00000  Uiso   1.00
C20    C     0.33669   0.84051   0.51858   0.00000  Uiso   1.00
C21    C     0.19366   0.79218   0.33826   0.00000  Uiso   1.00
C22    C     0.17562   0.66838   0.30278   0.00000  Uiso   1.00
C23    C     0.18868   0.65683   0.20815   0.00000  Uiso   1.00
H24    H     0.26265   0.11102   0.29024   0.00000  Uiso   1.00
H25    H     0.17480   0.29094   0.35671   0.00000  Uiso   1.00
H26    H     0.36156   0.09921   0.35553   0.00000  Uiso   1.00
H27    H     0.26001   0.97321   0.14256   0.00000  Uiso   1.00
H28    H     0.06418   0.44259   0.45556   0.00000  Uiso   1.00
H29    H     0.45799   0.03831   0.45306   0.00000  Uiso   1.00
H30    H     0.24385   0.77261   0.00395   0.00000  Uiso   1.00
H31    H     0.16063   0.74250   0.48397   0.00000  Uiso   1.00
H32    H     0.06718   0.90219   0.56107   0.00000  Uiso   1.00
H33    H     0.25394   0.71048   0.55989   0.00000  Uiso   1.00
H34    H     0.15239   0.58448   0.34692   0.00000  Uiso   1.00
H35    H     0.97683   0.12708   0.62143   0.00000  Uiso   1.00
H36    H     0.37064   0.72279   0.61892   0.00000  Uiso   1.00
H37    H     0.15650   0.45710   0.16983   0.00000  Uiso   1.00
O38    O     0.96088   0.39655   0.58574   0.00000  Uiso   1.00
O39    O     0.47755   0.86613   0.58244   0.00000  Uiso   1.00
O40    O     0.19660   0.51755   0.99323   0.00000  Uiso   1.00
N41    N     0.05644   0.34641   0.48400   0.00000  Uiso   1.00
N42    N     0.42462   0.96845   0.48167   0.00000  Uiso   1.00
N43    N     0.22444   0.72003   0.06180   0.00000  Uiso   1.00
N44    N     0.00944   0.17664   0.57326   0.00000  Uiso   1.00
N45    N     0.37762   0.79867   0.57093   0.00000  Uiso   1.00
N46    N     0.17743   0.55025   0.15105   0.00000  Uiso   1.00
C47    C     0.76073   0.02659   0.16537   0.00000  Uiso   1.00
C48    C     0.82261   0.07324   0.10241   0.00000  Uiso   1.00
C49    C     0.84845   0.20703   0.09917   0.00000  Uiso   1.00
C50    C     0.90545   0.22858   0.03683   0.00000  Uiso   1.00
C51    C     0.99694   0.31753   0.94769   0.00000  Uiso   1.00
C52    C     0.72114   0.96908   0.10303   0.00000  Uiso   1.00
C53    C     0.66166   0.01530   0.10034   0.00000  Uiso   1.00
C54    C     0.63324   0.94915   0.03853   0.00000  Uiso   1.00
C55    C     0.56718   0.87632   0.95042   0.00000  Uiso   1.00
C56    C     0.77632   0.90063   0.21875   0.00000  Uiso   1.00
C57    C     0.76322   0.88927   0.31335   0.00000  Uiso   1.00
C58    C     0.78124   0.76547   0.34897   0.00000  Uiso   1.00
C59    C     0.80086   0.58637   0.44052   0.00000  Uiso   1.00
C60    C     0.81600   0.82693   0.06041   0.00000  Uiso   1.00
C61    C     0.85263   0.96479   0.04539   0.00000  Uiso   1.00
C62    C     0.90960   0.98614   0.98304   0.00000  Uiso   1.00
C63    C     0.93552   0.11994   0.97971   0.00000  Uiso   1.00
C64    C     0.75115   0.86064   0.04602   0.00000  Uiso   1.00
C65    C     0.72281   0.79440   0.98421   0.00000  Uiso   1.00
C66    C     0.66331   0.84051   0.98142   0.00000  Uiso   1.00
C67    C     0.80634   0.79218   0.16174   0.00000  Uiso   1.00
C68    C     0.82438   0.66838   0.19722   0.00000  Uiso   1.00
C69    C     0.81132   0.65683   0.29185   0.00000  Uiso   1.00
H70    H     0.73735   0.11102   0.20976   0.00000  Uiso   1.00
H71    H     0.82520   0.29094   0.14329   0.00000  Uiso   1.00
H72    H     0.63844   0.09921   0.14447   0.00000  Uiso   1.00
H73    H     0.73999   0.97321   0.35744   0.00000  Uiso   1.00
H74    H     0.93582   0.44259   0.04444   0.00000  Uiso   1.00
H75    H     0.54201   0.03831   0.04694   0.00000  Uiso   1.00
H76    H     0.75615   0.77261   0.49605   0.00000  Uiso   1.00
H77    H     0.83937   0.74250   0.01603   0.00000  Uiso   1.00
H78    H     0.93282   0.90219   0.93893   0.00000  Uiso   1.00
H79    H     0.74606   0.71048   0.94011   0.00000  Uiso   1.00
H80    H     0.84761   0.58448   0.15308   0.00000  Uiso   1.00
H81    H     0.02317   0.12708   0.87857   0.00000  Uiso   1.00
H82    H     0.62936   0.72279   0.88108   0.00000  Uiso   1.00
H83    H     0.84350   0.45710   0.33017   0.00000  Uiso   1.00
O84    O     0.03912   0.39655   0.91426   0.00000  Uiso   1.00
O85    O     0.52245   0.86613   0.91756   0.00000  Uiso   1.00
O86    O     0.80340   0.51755   0.50677   0.00000  Uiso   1.00
N87    N     0.94356   0.34641   0.01600   0.00000  Uiso   1.00
N88    N     0.57538   0.96845   0.01833   0.00000  Uiso   1.00
N89    N     0.77556   0.72003   0.43820   0.00000  Uiso   1.00
N90    N     0.99056   0.17664   0.92674   0.00000  Uiso   1.00
N91    N     0.62238   0.79867   0.92907   0.00000  Uiso   1.00
N92    N     0.82257   0.55025   0.34895   0.00000  Uiso   1.00
C93    C     0.76073   0.97341   0.66537   0.00000  Uiso   1.00
C94    C     0.82261   0.92676   0.60241   0.00000  Uiso   1.00
C95    C     0.84845   0.79297   0.59917   0.00000  Uiso   1.00
C96    C     0.90545   0.77142   0.53683   0.00000  Uiso   1.00
C97    C     0.99694   0.68247   0.44769   0.00000  Uiso   1.00
C98    C     0.72114   0.03092   0.60303   0.00000  Uiso   1.00
C99    C     0.66166   0.98470   0.60034   0.00000  Uiso   1.00
C100   C     0.63324   0.05085   0.53853   0.00000  Uiso   1.00
C101   C     0.56718   0.12368   0.45042   0.00000  Uiso   1.00
C102   C     0.77632   0.09937   0.71875   0.00000  Uiso   1.00
C103   C     0.76322   0.11073   0.81335   0.00000  Uiso   1.00
C104   C     0.78124   0.23453   0.84897   0.00000  Uiso   1.00
C105   C     0.80086   0.41363   0.94052   0.00000  Uiso   1.00
C106   C     0.81600   0.17307   0.56041   0.00000  Uiso   1.00
C107   C     0.85263   0.03521   0.54539   0.00000  Uiso   1.00
C108   C     0.90960   0.01386   0.48304   0.00000  Uiso   1.00
C109   C     0.93552   0.88006   0.47971   0.00000  Uiso   1.00
C110   C     0.75115   0.13936   0.54602   0.00000  Uiso   1.00
C111   C     0.72281   0.20560   0.48421   0.00000  Uiso   1.00
C112   C     0.66331   0.15949   0.48142   0.00000  Uiso   1.00
C113   C     0.80634   0.20782   0.66174   0.00000  Uiso   1.00
C114   C     0.82438   0.33162   0.69722   0.00000  Uiso   1.00
C115   C     0.81132   0.34317   0.79185   0.00000  Uiso   1.00
H116   H     0.73735   0.88898   0.70976   0.00000  Uiso   1.00
H117   H     0.82520   0.70906   0.64329   0.00000  Uiso   1.00
H118   H     0.63844   0.90079   0.64447   0.00000  Uiso   1.00
H119   H     0.73999   0.02679   0.85744   0.00000  Uiso   1.00
H120   H     0.93582   0.55741   0.54444   0.00000  Uiso   1.00
H121   H     0.54201   0.96169   0.54694   0.00000  Uiso   1.00
H122   H     0.75615   0.22739   0.99605   0.00000  Uiso   1.00
H123   H     0.83937   0.25750   0.51603   0.00000  Uiso   1.00
H124   H     0.93282   0.09781   0.43893   0.00000  Uiso   1.00
H125   H     0.74606   0.28952   0.44011   0.00000  Uiso   1.00
H126   H     0.84761   0.41552   0.65308   0.00000  Uiso   1.00
H127   H     0.02317   0.87292   0.37857   0.00000  Uiso   1.00
H128   H     0.62936   0.27721   0.38108   0.00000  Uiso   1.00
H129   H     0.84350   0.54290   0.83017   0.00000  Uiso   1.00
O130   O     0.03912   0.60345   0.41426   0.00000  Uiso   1.00
O131   O     0.52245   0.13387   0.41756   0.00000  Uiso   1.00
O132   O     0.80340   0.48245   0.00677   0.00000  Uiso   1.00
N133   N     0.94356   0.65359   0.51600   0.00000  Uiso   1.00
N134   N     0.57538   0.03155   0.51833   0.00000  Uiso   1.00
N135   N     0.77556   0.27997   0.93820   0.00000  Uiso   1.00
N136   N     0.99056   0.82336   0.42674   0.00000  Uiso   1.00
N137   N     0.62238   0.20133   0.42907   0.00000  Uiso   1.00
N138   N     0.82257   0.44975   0.84895   0.00000  Uiso   1.00
C139   C     0.23927   0.97341   0.83463   0.00000  Uiso   1.00
C140   C     0.17739   0.92676   0.89759   0.00000  Uiso   1.00
C141   C     0.15155   0.79297   0.90083   0.00000  Uiso   1.00
C142   C     0.09455   0.77142   0.96317   0.00000  Uiso   1.00
C143   C     0.00306   0.68247   0.05231   0.00000  Uiso   1.00
C144   C     0.27886   0.03092   0.89697   0.00000  Uiso   1.00
C145   C     0.33834   0.98470   0.89966   0.00000  Uiso   1.00
C146   C     0.36676   0.05085   0.96147   0.00000  Uiso   1.00
C147   C     0.43282   0.12368   0.04958   0.00000  Uiso   1.00
C148   C     0.22368   0.09937   0.78125   0.00000  Uiso   1.00
C149   C     0.23678   0.11073   0.68665   0.00000  Uiso   1.00
C150   C     0.21876   0.23453   0.65103   0.00000  Uiso   1.00
C151   C     0.19914   0.41363   0.55948   0.00000  Uiso   1.00
C152   C     0.18400   0.17307   0.93959   0.00000  Uiso   1.00
C153   C     0.14737   0.03521   0.95461   0.00000  Uiso   1.00
C154   C     0.09040   0.01386   0.01696   0.00000  Uiso   1.00
C155   C     0.06448   0.88006   0.02029   0.00000  Uiso   1.00
C156   C     0.24885   0.13936   0.95398   0.00000  Uiso   1.00
C157   C     0.27719   0.20560   0.01579   0.00000  Uiso   1.00
C158   C     0.33669   0.15949   0.01858   0.00000  Uiso   1.00
C159   C     0.19366   0.20782   0.83826   0.00000  Uiso   1.00
C160   C     0.17562   0.33162   0.80278   0.00000  Uiso   1.00
C161   C     0.18868   0.34317   0.70815   0.00000  Uiso   1.00
H162   H     0.26265   0.88898   0.79024   0.00000  Uiso   1.00
H163   H     0.17480   0.70906   0.85671   0.00000  Uiso   1.00
H164   H     0.36156   0.90079   0.85553   0.00000  Uiso   1.00
H165   H     0.26001   0.02679   0.64256   0.00000  Uiso   1.00
H166   H     0.06418   0.55741   0.95556   0.00000  Uiso   1.00
H167   H     0.45799   0.96169   0.95306   0.00000  Uiso   1.00
H168   H     0.24385   0.22739   0.50395   0.00000  Uiso   1.00
H169   H     0.16063   0.25750   0.98397   0.00000  Uiso   1.00
H170   H     0.06718   0.09781   0.06107   0.00000  Uiso   1.00
H171   H     0.25394   0.28952   0.05989   0.00000  Uiso   1.00
H172   H     0.15239   0.41552   0.84692   0.00000  Uiso   1.00
H173   H     0.97683   0.87292   0.12143   0.00000  Uiso   1.00
H174   H     0.37064   0.27721   0.11892   0.00000  Uiso   1.00
H175   H     0.15650   0.54290   0.66983   0.00000  Uiso   1.00
O176   O     0.96088   0.60345   0.08574   0.00000  Uiso   1.00
O177   O     0.47755   0.13387   0.08244   0.00000  Uiso   1.00
O178   O     0.19660   0.48245   0.49323   0.00000  Uiso   1.00
N179   N     0.05644   0.65359   0.98400   0.00000  Uiso   1.00
N180   N     0.42462   0.03155   0.98167   0.00000  Uiso   1.00
N181   N     0.22444   0.27997   0.56180   0.00000  Uiso   1.00
N182   N     0.00944   0.82336   0.07326   0.00000  Uiso   1.00
N183   N     0.37762   0.20133   0.07093   0.00000  Uiso   1.00
N184   N     0.17743   0.44975   0.65105   0.00000  Uiso   1.00
