data_job_05032
_audit_creation_date              2018-12-19
_audit_creation_method            'Materials Studio'
_symmetry_space_group_name_H-M    'P1'
_symmetry_Int_Tables_number       1
_symmetry_cell_setting            triclinic
loop_
_symmetry_equiv_pos_as_xyz
  x,y,z
_cell_length_a                    18.8185
_cell_length_b                    12.4346
_cell_length_c                    39.8705
_cell_angle_alpha                 90.0000
_cell_angle_beta                  134.2630
_cell_angle_gamma                 90.0000
loop_
_atom_site_label
_atom_site_type_symbol
_atom_site_fract_x
_atom_site_fract_y
_atom_site_fract_z
_atom_site_U_iso_or_equiv
_atom_site_adp_type
_atom_site_occupancy
C1     C     0.54304   0.24056   0.19156   0.00000  Uiso   1.00
C2     C     0.53598   0.34362   0.16864   0.00000  Uiso   1.00
C3     C     0.61565   0.40308   0.18295   0.00000  Uiso   1.00
C4     C     0.59366   0.49495   0.15737   0.00000  Uiso   1.00
C5     C     0.59763   0.65026   0.12765   0.00000  Uiso   1.00
C6     C     0.48480   0.26158   0.20450   0.00000  Uiso   1.00
C7     C     0.52145   0.25203   0.24897   0.00000  Uiso   1.00
C8     C     0.45636   0.27483   0.25357   0.00000  Uiso   1.00
C9     C     0.38086   0.30268   0.27953   0.00000  Uiso   1.00
C10    C     0.48448   0.15585   0.15295   0.00000  Uiso   1.00
C11    C     0.52085   0.05740   0.15408   0.00000  Uiso   1.00
C12    C     0.45549   0.99116   0.11529   0.00000  Uiso   1.00
C13    C     0.37949   0.85486   0.06121   0.00000  Uiso   1.00
C14    C     0.36231   0.29799   0.12067   0.00000  Uiso   1.00
C15    C     0.43781   0.37481   0.13013   0.00000  Uiso   1.00
C16    C     0.41569   0.46661   0.10452   0.00000  Uiso   1.00
C17    C     0.49532   0.52620   0.11879   0.00000  Uiso   1.00
C18    C     0.38664   0.29277   0.16600   0.00000  Uiso   1.00
C19    C     0.32148   0.31557   0.17054   0.00000  Uiso   1.00
C20    C     0.35802   0.30608   0.21500   0.00000  Uiso   1.00
C21    C     0.38631   0.18704   0.11445   0.00000  Uiso   1.00
C22    C     0.32088   0.12094   0.07565   0.00000  Uiso   1.00
C23    C     0.35714   0.02241   0.07671   0.00000  Uiso   1.00
H24    H     0.61947   0.21628   0.22154   0.00000  Uiso   1.00
H25    H     0.69162   0.37891   0.21275   0.00000  Uiso   1.00
H26    H     0.59742   0.22788   0.27876   0.00000  Uiso   1.00
H27    H     0.59682   0.03329   0.18388   0.00000  Uiso   1.00
H28    H     0.72831   0.57301   0.18604   0.00000  Uiso   1.00
H29    H     0.52968   0.25452   0.32522   0.00000  Uiso   1.00
H30    H     0.52842   0.84416   0.12516   0.00000  Uiso   1.00
H31    H     0.28587   0.32227   0.09069   0.00000  Uiso   1.00
H32    H     0.33971   0.49073   0.07472   0.00000  Uiso   1.00
H33    H     0.24552   0.33970   0.14073   0.00000  Uiso   1.00
H34    H     0.24492   0.14511   0.04586   0.00000  Uiso   1.00
H35    H     0.44270   0.66377   0.07402   0.00000  Uiso   1.00
H36    H     0.24406   0.34527   0.21319   0.00000  Uiso   1.00
H37    H     0.24280   0.93492   0.01313   0.00000  Uiso   1.00
O38    O     0.62694   0.72731   0.12190   0.00000  Uiso   1.00
O39    O     0.36634   0.30944   0.30449   0.00000  Uiso   1.00
O40    O     0.36469   0.77107   0.04201   0.00000  Uiso   1.00
N41    N     0.65370   0.57124   0.16186   0.00000  Uiso   1.00
N42    N     0.46800   0.27348   0.29198   0.00000  Uiso   1.00
N43    N     0.46681   0.88982   0.10495   0.00000  Uiso   1.00
N44    N     0.50002   0.62007   0.10158   0.00000  Uiso   1.00
N45    N     0.31431   0.32232   0.23170   0.00000  Uiso   1.00
N46    N     0.31312   0.93866   0.04467   0.00000  Uiso   1.00
C47    C     0.04272   0.54678   0.69162   0.00000  Uiso   1.00
C48    C     0.03559   0.64975   0.66864   0.00000  Uiso   1.00
C49    C     0.11523   0.70916   0.68289   0.00000  Uiso   1.00
C50    C     0.09318   0.80095   0.65725   0.00000  Uiso   1.00
C51    C     0.09705   0.95613   0.62744   0.00000  Uiso   1.00
C52    C     0.98455   0.56792   0.70460   0.00000  Uiso   1.00
C53    C     0.02128   0.55852   0.74908   0.00000  Uiso   1.00
C54    C     0.95626   0.58142   0.75371   0.00000  Uiso   1.00
C55    C     0.88088   0.60948   0.77972   0.00000  Uiso   1.00
C56    C     0.98412   0.46197   0.65305   0.00000  Uiso   1.00
C57    C     0.02047   0.36348   0.65421   0.00000  Uiso   1.00
C58    C     0.95507   0.29716   0.61545   0.00000  Uiso   1.00
C59    C     0.87902   0.16073   0.56143   0.00000  Uiso   1.00
C60    C     0.86194   0.60413   0.62074   0.00000  Uiso   1.00
C61    C     0.93740   0.68090   0.63014   0.00000  Uiso   1.00
C62    C     0.91523   0.77262   0.60447   0.00000  Uiso   1.00
C63    C     0.99482   0.83216   0.61869   0.00000  Uiso   1.00
C64    C     0.88637   0.59907   0.66610   0.00000  Uiso   1.00
C65    C     0.82128   0.62198   0.67067   0.00000  Uiso   1.00
C66    C     0.85789   0.61263   0.71515   0.00000  Uiso   1.00
C67    C     0.88593   0.49313   0.61456   0.00000  Uiso   1.00
C68    C     0.82047   0.42694   0.57579   0.00000  Uiso   1.00
C69    C     0.85671   0.32837   0.57688   0.00000  Uiso   1.00
H70    H     0.11916   0.52252   0.72159   0.00000  Uiso   1.00
H71    H     0.19121   0.68503   0.71269   0.00000  Uiso   1.00
H72    H     0.09726   0.53440   0.77886   0.00000  Uiso   1.00
H73    H     0.09645   0.33940   0.68400   0.00000  Uiso   1.00
H74    H     0.22778   0.87896   0.68585   0.00000  Uiso   1.00
H75    H     0.02969   0.56132   0.82539   0.00000  Uiso   1.00
H76    H     0.02799   0.15011   0.62535   0.00000  Uiso   1.00
H77    H     0.78550   0.62839   0.59077   0.00000  Uiso   1.00
H78    H     0.83924   0.79671   0.57469   0.00000  Uiso   1.00
H79    H     0.74530   0.64608   0.64087   0.00000  Uiso   1.00
H80    H     0.74449   0.45108   0.54601   0.00000  Uiso   1.00
H81    H     0.94211   0.96961   0.57384   0.00000  Uiso   1.00
H82    H     0.74402   0.65196   0.71339   0.00000  Uiso   1.00
H83    H     0.74231   0.24076   0.51335   0.00000  Uiso   1.00
O84    O     0.12632   0.03312   0.62163   0.00000  Uiso   1.00
O85    O     0.86643   0.61637   0.80470   0.00000  Uiso   1.00
O86    O     0.86419   0.07688   0.54227   0.00000  Uiso   1.00
N87    N     0.15317   0.87719   0.66169   0.00000  Uiso   1.00
N88    N     0.96798   0.58023   0.79215   0.00000  Uiso   1.00
N89    N     0.96637   0.19577   0.60514   0.00000  Uiso   1.00
N90    N     0.99946   0.92596   0.60142   0.00000  Uiso   1.00
N91    N     0.81426   0.62900   0.73188   0.00000  Uiso   1.00
N92    N     0.81266   0.24454   0.54487   0.00000  Uiso   1.00
C93    C     0.45696   0.74056   0.30844   0.00000  Uiso   1.00
C94    C     0.46402   0.84362   0.33136   0.00000  Uiso   1.00
C95    C     0.38435   0.90308   0.31705   0.00000  Uiso   1.00
C96    C     0.40634   0.99495   0.34263   0.00000  Uiso   1.00
C97    C     0.40237   0.15026   0.37235   0.00000  Uiso   1.00
C98    C     0.51520   0.76158   0.29550   0.00000  Uiso   1.00
C99    C     0.47855   0.75203   0.25103   0.00000  Uiso   1.00
C100   C     0.54364   0.77483   0.24643   0.00000  Uiso   1.00
C101   C     0.61914   0.80268   0.22047   0.00000  Uiso   1.00
C102   C     0.51552   0.65585   0.34705   0.00000  Uiso   1.00
C103   C     0.47915   0.55740   0.34592   0.00000  Uiso   1.00
C104   C     0.54451   0.49116   0.38471   0.00000  Uiso   1.00
C105   C     0.62051   0.35486   0.43879   0.00000  Uiso   1.00
C106   C     0.63769   0.79799   0.37933   0.00000  Uiso   1.00
C107   C     0.56219   0.87481   0.36987   0.00000  Uiso   1.00
C108   C     0.58431   0.96661   0.39548   0.00000  Uiso   1.00
C109   C     0.50468   0.02620   0.38121   0.00000  Uiso   1.00
C110   C     0.61336   0.79277   0.33400   0.00000  Uiso   1.00
C111   C     0.67852   0.81557   0.32946   0.00000  Uiso   1.00
C112   C     0.64198   0.80608   0.28500   0.00000  Uiso   1.00
C113   C     0.61369   0.68704   0.38555   0.00000  Uiso   1.00
C114   C     0.67912   0.62094   0.42435   0.00000  Uiso   1.00
C115   C     0.64286   0.52241   0.42329   0.00000  Uiso   1.00
H116   H     0.38053   0.71628   0.27846   0.00000  Uiso   1.00
H117   H     0.30838   0.87891   0.28725   0.00000  Uiso   1.00
H118   H     0.40258   0.72788   0.22124   0.00000  Uiso   1.00
H119   H     0.40318   0.53329   0.31612   0.00000  Uiso   1.00
H120   H     0.27169   0.07301   0.31396   0.00000  Uiso   1.00
H121   H     0.47032   0.75452   0.17478   0.00000  Uiso   1.00
H122   H     0.47158   0.34416   0.37484   0.00000  Uiso   1.00
H123   H     0.71413   0.82227   0.40931   0.00000  Uiso   1.00
H124   H     0.66029   0.99073   0.42528   0.00000  Uiso   1.00
H125   H     0.75448   0.83970   0.35927   0.00000  Uiso   1.00
H126   H     0.75508   0.64511   0.45414   0.00000  Uiso   1.00
H127   H     0.55730   0.16377   0.42598   0.00000  Uiso   1.00
H128   H     0.75594   0.84527   0.28681   0.00000  Uiso   1.00
H129   H     0.75720   0.43492   0.48687   0.00000  Uiso   1.00
O130   O     0.37306   0.22731   0.37810   0.00000  Uiso   1.00
O131   O     0.63366   0.80944   0.19551   0.00000  Uiso   1.00
O132   O     0.63531   0.27107   0.45799   0.00000  Uiso   1.00
N133   N     0.34630   0.07124   0.33814   0.00000  Uiso   1.00
N134   N     0.53200   0.77348   0.20802   0.00000  Uiso   1.00
N135   N     0.53319   0.38982   0.39505   0.00000  Uiso   1.00
N136   N     0.49998   0.12007   0.39842   0.00000  Uiso   1.00
N137   N     0.68569   0.82232   0.26830   0.00000  Uiso   1.00
N138   N     0.68688   0.43866   0.45533   0.00000  Uiso   1.00
C139   C     0.95728   0.04678   0.80838   0.00000  Uiso   1.00
C140   C     0.96441   0.14975   0.83136   0.00000  Uiso   1.00
C141   C     0.88477   0.20916   0.81711   0.00000  Uiso   1.00
C142   C     0.90682   0.30095   0.84275   0.00000  Uiso   1.00
C143   C     0.90295   0.45613   0.87256   0.00000  Uiso   1.00
C144   C     0.01545   0.06792   0.79540   0.00000  Uiso   1.00
C145   C     0.97872   0.05852   0.75092   0.00000  Uiso   1.00
C146   C     0.04374   0.08142   0.74629   0.00000  Uiso   1.00
C147   C     0.11912   0.10948   0.72028   0.00000  Uiso   1.00
C148   C     0.01588   0.96197   0.84695   0.00000  Uiso   1.00
C149   C     0.97953   0.86348   0.84579   0.00000  Uiso   1.00
C150   C     0.04493   0.79716   0.88455   0.00000  Uiso   1.00
C151   C     0.12098   0.66073   0.93857   0.00000  Uiso   1.00
C152   C     0.13806   0.10413   0.87926   0.00000  Uiso   1.00
C153   C     0.06260   0.18090   0.86986   0.00000  Uiso   1.00
C154   C     0.08477   0.27262   0.89553   0.00000  Uiso   1.00
C155   C     0.00518   0.33216   0.88131   0.00000  Uiso   1.00
C156   C     0.11363   0.09907   0.83390   0.00000  Uiso   1.00
C157   C     0.17872   0.12198   0.82933   0.00000  Uiso   1.00
C158   C     0.14211   0.11263   0.78485   0.00000  Uiso   1.00
C159   C     0.11407   0.99313   0.88544   0.00000  Uiso   1.00
C160   C     0.17953   0.92694   0.92421   0.00000  Uiso   1.00
C161   C     0.14329   0.82837   0.92312   0.00000  Uiso   1.00
H162   H     0.88084   0.02252   0.77841   0.00000  Uiso   1.00
H163   H     0.80879   0.18503   0.78731   0.00000  Uiso   1.00
H164   H     0.90274   0.03440   0.72114   0.00000  Uiso   1.00
H165   H     0.90355   0.83940   0.81600   0.00000  Uiso   1.00
H166   H     0.77222   0.37896   0.81415   0.00000  Uiso   1.00
H167   H     0.97031   0.06132   0.67461   0.00000  Uiso   1.00
H168   H     0.97201   0.65011   0.87465   0.00000  Uiso   1.00
H169   H     0.21450   0.12839   0.90923   0.00000  Uiso   1.00
H170   H     0.16076   0.29671   0.92531   0.00000  Uiso   1.00
H171   H     0.25470   0.14608   0.85913   0.00000  Uiso   1.00
H172   H     0.25551   0.95108   0.95399   0.00000  Uiso   1.00
H173   H     0.05789   0.46961   0.92616   0.00000  Uiso   1.00
H174   H     0.25598   0.15196   0.78661   0.00000  Uiso   1.00
H175   H     0.25769   0.74076   0.98665   0.00000  Uiso   1.00
O176   O     0.87368   0.53312   0.87837   0.00000  Uiso   1.00
O177   O     0.13357   0.11637   0.69530   0.00000  Uiso   1.00
O178   O     0.13581   0.57688   0.95773   0.00000  Uiso   1.00
N179   N     0.84683   0.37719   0.83831   0.00000  Uiso   1.00
N180   N     0.03202   0.08023   0.70785   0.00000  Uiso   1.00
N181   N     0.03363   0.69577   0.89486   0.00000  Uiso   1.00
N182   N     0.00054   0.42596   0.89858   0.00000  Uiso   1.00
N183   N     0.18574   0.12900   0.76812   0.00000  Uiso   1.00
N184   N     0.18734   0.74454   0.95513   0.00000  Uiso   1.00
C185   C     0.45696   0.75944   0.80844   0.00000  Uiso   1.00
C186   C     0.46402   0.65638   0.83136   0.00000  Uiso   1.00
C187   C     0.38435   0.59692   0.81705   0.00000  Uiso   1.00
C188   C     0.40634   0.50505   0.84263   0.00000  Uiso   1.00
C189   C     0.40237   0.34974   0.87235   0.00000  Uiso   1.00
C190   C     0.51520   0.73842   0.79550   0.00000  Uiso   1.00
C191   C     0.47855   0.74797   0.75103   0.00000  Uiso   1.00
C192   C     0.54364   0.72517   0.74643   0.00000  Uiso   1.00
C193   C     0.61914   0.69732   0.72047   0.00000  Uiso   1.00
C194   C     0.51552   0.84415   0.84705   0.00000  Uiso   1.00
C195   C     0.47915   0.94260   0.84592   0.00000  Uiso   1.00
C196   C     0.54451   0.00884   0.88471   0.00000  Uiso   1.00
C197   C     0.62051   0.14514   0.93879   0.00000  Uiso   1.00
C198   C     0.63769   0.70201   0.87933   0.00000  Uiso   1.00
C199   C     0.56219   0.62519   0.86987   0.00000  Uiso   1.00
C200   C     0.58431   0.53339   0.89548   0.00000  Uiso   1.00
C201   C     0.50468   0.47380   0.88121   0.00000  Uiso   1.00
C202   C     0.61336   0.70723   0.83400   0.00000  Uiso   1.00
C203   C     0.67852   0.68443   0.82946   0.00000  Uiso   1.00
C204   C     0.64198   0.69392   0.78500   0.00000  Uiso   1.00
C205   C     0.61369   0.81296   0.88555   0.00000  Uiso   1.00
C206   C     0.67912   0.87906   0.92435   0.00000  Uiso   1.00
C207   C     0.64286   0.97759   0.92329   0.00000  Uiso   1.00
H208   H     0.38053   0.78372   0.77846   0.00000  Uiso   1.00
H209   H     0.30838   0.62109   0.78725   0.00000  Uiso   1.00
H210   H     0.40258   0.77212   0.72124   0.00000  Uiso   1.00
H211   H     0.40318   0.96671   0.81612   0.00000  Uiso   1.00
H212   H     0.27169   0.42699   0.81396   0.00000  Uiso   1.00
H213   H     0.47032   0.74548   0.67478   0.00000  Uiso   1.00
H214   H     0.47158   0.15584   0.87484   0.00000  Uiso   1.00
H215   H     0.71413   0.67773   0.90931   0.00000  Uiso   1.00
H216   H     0.66029   0.50927   0.92528   0.00000  Uiso   1.00
H217   H     0.75448   0.66030   0.85927   0.00000  Uiso   1.00
H218   H     0.75508   0.85489   0.95414   0.00000  Uiso   1.00
H219   H     0.55730   0.33623   0.92598   0.00000  Uiso   1.00
H220   H     0.75594   0.65473   0.78681   0.00000  Uiso   1.00
H221   H     0.75720   0.06508   0.98687   0.00000  Uiso   1.00
O222   O     0.37306   0.27269   0.87810   0.00000  Uiso   1.00
O223   O     0.63366   0.69056   0.69551   0.00000  Uiso   1.00
O224   O     0.63531   0.22893   0.95799   0.00000  Uiso   1.00
N225   N     0.34630   0.42876   0.83814   0.00000  Uiso   1.00
N226   N     0.53200   0.72652   0.70802   0.00000  Uiso   1.00
N227   N     0.53319   0.11018   0.89505   0.00000  Uiso   1.00
N228   N     0.49998   0.37993   0.89842   0.00000  Uiso   1.00
N229   N     0.68569   0.67768   0.76830   0.00000  Uiso   1.00
N230   N     0.68688   0.06134   0.95533   0.00000  Uiso   1.00
C231   C     0.95728   0.45322   0.30838   0.00000  Uiso   1.00
C232   C     0.96441   0.35025   0.33136   0.00000  Uiso   1.00
C233   C     0.88477   0.29084   0.31711   0.00000  Uiso   1.00
C234   C     0.90682   0.19905   0.34275   0.00000  Uiso   1.00
C235   C     0.90295   0.04387   0.37256   0.00000  Uiso   1.00
C236   C     0.01545   0.43208   0.29540   0.00000  Uiso   1.00
C237   C     0.97872   0.44148   0.25092   0.00000  Uiso   1.00
C238   C     0.04374   0.41858   0.24629   0.00000  Uiso   1.00
C239   C     0.11912   0.39052   0.22028   0.00000  Uiso   1.00
C240   C     0.01588   0.53803   0.34695   0.00000  Uiso   1.00
C241   C     0.97953   0.63652   0.34579   0.00000  Uiso   1.00
C242   C     0.04493   0.70284   0.38455   0.00000  Uiso   1.00
C243   C     0.12098   0.83927   0.43857   0.00000  Uiso   1.00
C244   C     0.13806   0.39587   0.37926   0.00000  Uiso   1.00
C245   C     0.06260   0.31910   0.36986   0.00000  Uiso   1.00
C246   C     0.08477   0.22738   0.39553   0.00000  Uiso   1.00
C247   C     0.00518   0.16784   0.38131   0.00000  Uiso   1.00
C248   C     0.11363   0.40093   0.33390   0.00000  Uiso   1.00
C249   C     0.17872   0.37802   0.32933   0.00000  Uiso   1.00
C250   C     0.14211   0.38737   0.28485   0.00000  Uiso   1.00
C251   C     0.11407   0.50687   0.38544   0.00000  Uiso   1.00
C252   C     0.17953   0.57306   0.42421   0.00000  Uiso   1.00
C253   C     0.14329   0.67163   0.42312   0.00000  Uiso   1.00
H254   H     0.88084   0.47748   0.27841   0.00000  Uiso   1.00
H255   H     0.80879   0.31497   0.28731   0.00000  Uiso   1.00
H256   H     0.90274   0.46560   0.22114   0.00000  Uiso   1.00
H257   H     0.90355   0.66060   0.31600   0.00000  Uiso   1.00
H258   H     0.77222   0.12104   0.31415   0.00000  Uiso   1.00
H259   H     0.97031   0.43868   0.17461   0.00000  Uiso   1.00
H260   H     0.97201   0.84989   0.37465   0.00000  Uiso   1.00
H261   H     0.21450   0.37161   0.40923   0.00000  Uiso   1.00
H262   H     0.16076   0.20329   0.42531   0.00000  Uiso   1.00
H263   H     0.25470   0.35392   0.35913   0.00000  Uiso   1.00
H264   H     0.25551   0.54892   0.45399   0.00000  Uiso   1.00
H265   H     0.05789   0.03039   0.42616   0.00000  Uiso   1.00
H266   H     0.25598   0.34804   0.28661   0.00000  Uiso   1.00
H267   H     0.25769   0.75924   0.48665   0.00000  Uiso   1.00
O268   O     0.87368   0.96688   0.37837   0.00000  Uiso   1.00
O269   O     0.13357   0.38363   0.19530   0.00000  Uiso   1.00
O270   O     0.13581   0.92312   0.45773   0.00000  Uiso   1.00
N271   N     0.84683   0.12281   0.33831   0.00000  Uiso   1.00
N272   N     0.03202   0.41977   0.20785   0.00000  Uiso   1.00
N273   N     0.03363   0.80423   0.39486   0.00000  Uiso   1.00
N274   N     0.00054   0.07404   0.39858   0.00000  Uiso   1.00
N275   N     0.18574   0.37100   0.26812   0.00000  Uiso   1.00
N276   N     0.18734   0.75546   0.45513   0.00000  Uiso   1.00
C277   C     0.54304   0.25944   0.69156   0.00000  Uiso   1.00
C278   C     0.53598   0.15638   0.66864   0.00000  Uiso   1.00
C279   C     0.61565   0.09692   0.68295   0.00000  Uiso   1.00
C280   C     0.59366   0.00505   0.65737   0.00000  Uiso   1.00
C281   C     0.59763   0.84974   0.62765   0.00000  Uiso   1.00
C282   C     0.48480   0.23842   0.70450   0.00000  Uiso   1.00
C283   C     0.52145   0.24797   0.74897   0.00000  Uiso   1.00
C284   C     0.45636   0.22517   0.75357   0.00000  Uiso   1.00
C285   C     0.38086   0.19732   0.77953   0.00000  Uiso   1.00
C286   C     0.48448   0.34415   0.65295   0.00000  Uiso   1.00
C287   C     0.52085   0.44260   0.65408   0.00000  Uiso   1.00
C288   C     0.45549   0.50884   0.61529   0.00000  Uiso   1.00
C289   C     0.37949   0.64514   0.56121   0.00000  Uiso   1.00
C290   C     0.36231   0.20201   0.62067   0.00000  Uiso   1.00
C291   C     0.43781   0.12519   0.63013   0.00000  Uiso   1.00
C292   C     0.41569   0.03339   0.60452   0.00000  Uiso   1.00
C293   C     0.49532   0.97380   0.61879   0.00000  Uiso   1.00
C294   C     0.38664   0.20723   0.66600   0.00000  Uiso   1.00
C295   C     0.32148   0.18443   0.67054   0.00000  Uiso   1.00
C296   C     0.35802   0.19392   0.71500   0.00000  Uiso   1.00
C297   C     0.38631   0.31296   0.61445   0.00000  Uiso   1.00
C298   C     0.32088   0.37906   0.57565   0.00000  Uiso   1.00
C299   C     0.35714   0.47759   0.57671   0.00000  Uiso   1.00
H300   H     0.61947   0.28372   0.72154   0.00000  Uiso   1.00
H301   H     0.69162   0.12109   0.71275   0.00000  Uiso   1.00
H302   H     0.59742   0.27212   0.77876   0.00000  Uiso   1.00
H303   H     0.59682   0.46671   0.68388   0.00000  Uiso   1.00
H304   H     0.72831   0.92699   0.68604   0.00000  Uiso   1.00
H305   H     0.52968   0.24548   0.82522   0.00000  Uiso   1.00
H306   H     0.52842   0.65584   0.62516   0.00000  Uiso   1.00
H307   H     0.28587   0.17773   0.59069   0.00000  Uiso   1.00
H308   H     0.33971   0.00927   0.57472   0.00000  Uiso   1.00
H309   H     0.24552   0.16030   0.64073   0.00000  Uiso   1.00
H310   H     0.24492   0.35489   0.54586   0.00000  Uiso   1.00
H311   H     0.44270   0.83623   0.57402   0.00000  Uiso   1.00
H312   H     0.24406   0.15473   0.71319   0.00000  Uiso   1.00
H313   H     0.24280   0.56508   0.51313   0.00000  Uiso   1.00
O314   O     0.62694   0.77269   0.62190   0.00000  Uiso   1.00
O315   O     0.36634   0.19056   0.80449   0.00000  Uiso   1.00
O316   O     0.36469   0.72893   0.54201   0.00000  Uiso   1.00
N317   N     0.65370   0.92876   0.66186   0.00000  Uiso   1.00
N318   N     0.46800   0.22652   0.79198   0.00000  Uiso   1.00
N319   N     0.46681   0.61018   0.60495   0.00000  Uiso   1.00
N320   N     0.50002   0.87993   0.60158   0.00000  Uiso   1.00
N321   N     0.31431   0.17768   0.73170   0.00000  Uiso   1.00
N322   N     0.31312   0.56134   0.54467   0.00000  Uiso   1.00
C323   C     0.04272   0.95322   0.19162   0.00000  Uiso   1.00
C324   C     0.03559   0.85025   0.16864   0.00000  Uiso   1.00
C325   C     0.11523   0.79084   0.18289   0.00000  Uiso   1.00
C326   C     0.09318   0.69905   0.15725   0.00000  Uiso   1.00
C327   C     0.09705   0.54387   0.12744   0.00000  Uiso   1.00
C328   C     0.98455   0.93208   0.20460   0.00000  Uiso   1.00
C329   C     0.02128   0.94148   0.24908   0.00000  Uiso   1.00
C330   C     0.95626   0.91858   0.25371   0.00000  Uiso   1.00
C331   C     0.88088   0.89052   0.27972   0.00000  Uiso   1.00
C332   C     0.98412   0.03803   0.15305   0.00000  Uiso   1.00
C333   C     0.02047   0.13652   0.15421   0.00000  Uiso   1.00
C334   C     0.95507   0.20284   0.11545   0.00000  Uiso   1.00
C335   C     0.87902   0.33927   0.06143   0.00000  Uiso   1.00
C336   C     0.86194   0.89587   0.12074   0.00000  Uiso   1.00
C337   C     0.93740   0.81910   0.13014   0.00000  Uiso   1.00
C338   C     0.91523   0.72738   0.10447   0.00000  Uiso   1.00
C339   C     0.99482   0.66784   0.11869   0.00000  Uiso   1.00
C340   C     0.88637   0.90093   0.16610   0.00000  Uiso   1.00
C341   C     0.82128   0.87802   0.17067   0.00000  Uiso   1.00
C342   C     0.85789   0.88737   0.21515   0.00000  Uiso   1.00
C343   C     0.88593   0.00687   0.11456   0.00000  Uiso   1.00
C344   C     0.82047   0.07306   0.07579   0.00000  Uiso   1.00
C345   C     0.85671   0.17163   0.07688   0.00000  Uiso   1.00
H346   H     0.11916   0.97748   0.22159   0.00000  Uiso   1.00
H347   H     0.19121   0.81497   0.21269   0.00000  Uiso   1.00
H348   H     0.09726   0.96560   0.27886   0.00000  Uiso   1.00
H349   H     0.09645   0.16060   0.18400   0.00000  Uiso   1.00
H350   H     0.22778   0.62104   0.18585   0.00000  Uiso   1.00
H351   H     0.02969   0.93868   0.32539   0.00000  Uiso   1.00
H352   H     0.02799   0.34989   0.12535   0.00000  Uiso   1.00
H353   H     0.78550   0.87161   0.09077   0.00000  Uiso   1.00
H354   H     0.83924   0.70329   0.07469   0.00000  Uiso   1.00
H355   H     0.74530   0.85392   0.14087   0.00000  Uiso   1.00
H356   H     0.74449   0.04892   0.04601   0.00000  Uiso   1.00
H357   H     0.94211   0.53039   0.07384   0.00000  Uiso   1.00
H358   H     0.74402   0.84804   0.21339   0.00000  Uiso   1.00
H359   H     0.74231   0.25924   0.01335   0.00000  Uiso   1.00
O360   O     0.12632   0.46688   0.12163   0.00000  Uiso   1.00
O361   O     0.86643   0.88363   0.30470   0.00000  Uiso   1.00
O362   O     0.86419   0.42312   0.04227   0.00000  Uiso   1.00
N363   N     0.15317   0.62281   0.16169   0.00000  Uiso   1.00
N364   N     0.96798   0.91977   0.29215   0.00000  Uiso   1.00
N365   N     0.96637   0.30423   0.10514   0.00000  Uiso   1.00
N366   N     0.99946   0.57404   0.10142   0.00000  Uiso   1.00
N367   N     0.81426   0.87100   0.23188   0.00000  Uiso   1.00
N368   N     0.81266   0.25546   0.04487   0.00000  Uiso   1.00
