data_job_04550
_audit_creation_date              2018-12-19
_audit_creation_method            'Materials Studio'
_symmetry_space_group_name_H-M    'P1'
_symmetry_Int_Tables_number       1
_symmetry_cell_setting            triclinic
loop_
_symmetry_equiv_pos_as_xyz
  x,y,z
_cell_length_a                    12.4350
_cell_length_b                    20.1882
_cell_length_c                    10.4087
_cell_angle_alpha                 90.0000
_cell_angle_beta                  87.9129
_cell_angle_gamma                 90.0000
loop_
_atom_site_label
_atom_site_type_symbol
_atom_site_fract_x
_atom_site_fract_y
_atom_site_fract_z
_atom_site_U_iso_or_equiv
_atom_site_adp_type
_atom_site_occupancy
C1     C     0.87991   0.53263   0.56934   0.00000  Uiso   1.00
C2     C     0.98344   0.51818   0.63831   0.00000  Uiso   1.00
C3     C     0.04550   0.46133   0.62418   0.00000  Uiso   1.00
C4     C     0.13734   0.45754   0.69578   0.00000  Uiso   1.00
C5     C     0.29372   0.42729   0.79035   0.00000  Uiso   1.00
C6     C     0.79415   0.54608   0.67457   0.00000  Uiso   1.00
C7     C     0.69705   0.51269   0.69091   0.00000  Uiso   1.00
C8     C     0.62955   0.53240   0.79303   0.00000  Uiso   1.00
C9     C     0.49202   0.54550   0.94382   0.00000  Uiso   1.00
C10    C     0.89827   0.59828   0.49951   0.00000  Uiso   1.00
C11    C     0.88868   0.60880   0.36867   0.00000  Uiso   1.00
C12    C     0.90880   0.67247   0.32340   0.00000  Uiso   1.00
C13    C     0.93292   0.76662   0.20240   0.00000  Uiso   1.00
C14    C     0.93266   0.62698   0.72163   0.00000  Uiso   1.00
C15    C     0.01210   0.56943   0.72103   0.00000  Uiso   1.00
C16    C     0.10387   0.56572   0.79267   0.00000  Uiso   1.00
C17    C     0.16605   0.50888   0.77865   0.00000  Uiso   1.00
C18    C     0.82281   0.59733   0.75729   0.00000  Uiso   1.00
C19    C     0.75542   0.61709   0.85940   0.00000  Uiso   1.00
C20    C     0.65825   0.58374   0.87590   0.00000  Uiso   1.00
C21    C     0.92693   0.64954   0.58223   0.00000  Uiso   1.00
C22    C     0.94706   0.71320   0.53716   0.00000  Uiso   1.00
C23    C     0.93751   0.72381   0.40627   0.00000  Uiso   1.00
H24    H     0.85759   0.49272   0.50494   0.00000  Uiso   1.00
H25    H     0.02329   0.42167   0.56016   0.00000  Uiso   1.00
H26    H     0.67489   0.47304   0.62687   0.00000  Uiso   1.00
H27    H     0.86650   0.56913   0.30468   0.00000  Uiso   1.00
H28    H     0.21961   0.36549   0.65790   0.00000  Uiso   1.00
H29    H     0.48499   0.47381   0.79853   0.00000  Uiso   1.00
H30    H     0.88902   0.67644   0.11913   0.00000  Uiso   1.00
H31    H     0.95497   0.66689   0.78604   0.00000  Uiso   1.00
H32    H     0.12603   0.60539   0.85668   0.00000  Uiso   1.00
H33    H     0.77763   0.65676   0.92339   0.00000  Uiso   1.00
H34    H     0.96923   0.75285   0.60120   0.00000  Uiso   1.00
H35    H     0.30300   0.51460   0.89857   0.00000  Uiso   1.00
H36    H     0.56836   0.62293   0.03920   0.00000  Uiso   1.00
H37    H     0.97240   0.82555   0.35980   0.00000  Uiso   1.00
O38    O     0.37205   0.39644   0.81967   0.00000  Uiso   1.00
O39    O     0.40824   0.53856   0.00415   0.00000  Uiso   1.00
O40    O     0.93833   0.80440   0.11280   0.00000  Uiso   1.00
N41    N     0.21578   0.40903   0.70483   0.00000  Uiso   1.00
N42    N     0.52895   0.51030   0.83632   0.00000  Uiso   1.00
N43    N     0.90666   0.69974   0.20115   0.00000  Uiso   1.00
N44    N     0.26064   0.48927   0.83433   0.00000  Uiso   1.00
N45    N     0.57382   0.59053   0.96582   0.00000  Uiso   1.00
N46    N     0.95153   0.77997   0.33065   0.00000  Uiso   1.00
C47    C     0.57852   0.05330   0.09510   0.00000  Uiso   1.00
C48    C     0.68209   0.03762   0.16304   0.00000  Uiso   1.00
C49    C     0.74494   0.98142   0.14395   0.00000  Uiso   1.00
C50    C     0.83666   0.97627   0.21545   0.00000  Uiso   1.00
C51    C     0.99323   0.94440   0.30770   0.00000  Uiso   1.00
C52    C     0.49237   0.06386   0.20115   0.00000  Uiso   1.00
C53    C     0.39570   0.02973   0.21409   0.00000  Uiso   1.00
C54    C     0.32772   0.04668   0.31767   0.00000  Uiso   1.00
C55    C     0.18970   0.05558   0.46904   0.00000  Uiso   1.00
C56    C     0.59614   0.12064   0.03140   0.00000  Uiso   1.00
C57    C     0.58669   0.13427   0.90161   0.00000  Uiso   1.00
C58    C     0.60605   0.19903   0.86228   0.00000  Uiso   1.00
C59    C     0.62915   0.29610   0.75007   0.00000  Uiso   1.00
C60    C     0.62967   0.14409   0.25604   0.00000  Uiso   1.00
C61    C     0.70987   0.08693   0.25046   0.00000  Uiso   1.00
C62    C     0.80153   0.08187   0.32201   0.00000  Uiso   1.00
C63    C     0.86450   0.02568   0.30302   0.00000  Uiso   1.00
C64    C     0.52015   0.11317   0.28857   0.00000  Uiso   1.00
C65    C     0.45229   0.13017   0.39215   0.00000  Uiso   1.00
C66    C     0.35555   0.09608   0.40525   0.00000  Uiso   1.00
C67    C     0.62393   0.16995   0.11881   0.00000  Uiso   1.00
C68    C     0.64329   0.23471   0.07967   0.00000  Uiso   1.00
C69    C     0.63388   0.24843   0.94985   0.00000  Uiso   1.00
H70    H     0.55688   0.01491   0.02705   0.00000  Uiso   1.00
H71    H     0.72340   0.94327   0.07630   0.00000  Uiso   1.00
H72    H     0.37422   0.99157   0.14642   0.00000  Uiso   1.00
H73    H     0.56519   0.09609   0.83400   0.00000  Uiso   1.00
H74    H     0.92025   0.88558   0.16949   0.00000  Uiso   1.00
H75    H     0.18396   0.98745   0.31732   0.00000  Uiso   1.00
H76    H     0.58665   0.20785   0.65850   0.00000  Uiso   1.00
H77    H     0.65130   0.18248   0.32410   0.00000  Uiso   1.00
H78    H     0.82301   0.12004   0.38965   0.00000  Uiso   1.00
H79    H     0.47382   0.16834   0.45977   0.00000  Uiso   1.00
H80    H     0.66479   0.27286   0.14734   0.00000  Uiso   1.00
H81    H     0.00109   0.02905   0.42382   0.00000  Uiso   1.00
H82    H     0.26479   0.13092   0.57165   0.00000  Uiso   1.00
H83    H     0.66749   0.35132   0.91283   0.00000  Uiso   1.00
O84    O     0.07190   0.91320   0.33445   0.00000  Uiso   1.00
O85    O     0.10591   0.04686   0.52838   0.00000  Uiso   1.00
O86    O     0.63423   0.33601   0.66403   0.00000  Uiso   1.00
N87    N     0.91573   0.92792   0.22033   0.00000  Uiso   1.00
N88    N     0.22734   0.02315   0.35856   0.00000  Uiso   1.00
N89    N     0.60380   0.22921   0.74262   0.00000  Uiso   1.00
N90    N     0.95923   0.00512   0.35718   0.00000  Uiso   1.00
N91    N     0.27084   0.10035   0.49541   0.00000  Uiso   1.00
N92    N     0.64730   0.30641   0.87947   0.00000  Uiso   1.00
C93    C     0.87991   0.46737   0.06934   0.00000  Uiso   1.00
C94    C     0.98344   0.48182   0.13831   0.00000  Uiso   1.00
C95    C     0.04550   0.53867   0.12418   0.00000  Uiso   1.00
C96    C     0.13734   0.54246   0.19578   0.00000  Uiso   1.00
C97    C     0.29372   0.57271   0.29035   0.00000  Uiso   1.00
C98    C     0.79415   0.45392   0.17457   0.00000  Uiso   1.00
C99    C     0.69705   0.48731   0.19091   0.00000  Uiso   1.00
C100   C     0.62955   0.46760   0.29303   0.00000  Uiso   1.00
C101   C     0.49202   0.45450   0.44382   0.00000  Uiso   1.00
C102   C     0.89827   0.40172   0.99951   0.00000  Uiso   1.00
C103   C     0.88868   0.39120   0.86867   0.00000  Uiso   1.00
C104   C     0.90880   0.32753   0.82340   0.00000  Uiso   1.00
C105   C     0.93292   0.23338   0.70240   0.00000  Uiso   1.00
C106   C     0.93266   0.37302   0.22163   0.00000  Uiso   1.00
C107   C     0.01210   0.43057   0.22103   0.00000  Uiso   1.00
C108   C     0.10387   0.43428   0.29267   0.00000  Uiso   1.00
C109   C     0.16605   0.49112   0.27865   0.00000  Uiso   1.00
C110   C     0.82281   0.40267   0.25729   0.00000  Uiso   1.00
C111   C     0.75542   0.38291   0.35940   0.00000  Uiso   1.00
C112   C     0.65825   0.41626   0.37590   0.00000  Uiso   1.00
C113   C     0.92693   0.35046   0.08223   0.00000  Uiso   1.00
C114   C     0.94706   0.28680   0.03716   0.00000  Uiso   1.00
C115   C     0.93751   0.27619   0.90627   0.00000  Uiso   1.00
H116   H     0.85759   0.50728   0.00494   0.00000  Uiso   1.00
H117   H     0.02329   0.57833   0.06016   0.00000  Uiso   1.00
H118   H     0.67489   0.52696   0.12687   0.00000  Uiso   1.00
H119   H     0.86650   0.43087   0.80468   0.00000  Uiso   1.00
H120   H     0.21961   0.63451   0.15790   0.00000  Uiso   1.00
H121   H     0.48499   0.52619   0.29853   0.00000  Uiso   1.00
H122   H     0.88902   0.32356   0.61913   0.00000  Uiso   1.00
H123   H     0.95497   0.33311   0.28604   0.00000  Uiso   1.00
H124   H     0.12603   0.39461   0.35668   0.00000  Uiso   1.00
H125   H     0.77763   0.34324   0.42339   0.00000  Uiso   1.00
H126   H     0.96923   0.24715   0.10120   0.00000  Uiso   1.00
H127   H     0.30300   0.48540   0.39857   0.00000  Uiso   1.00
H128   H     0.56836   0.37707   0.53920   0.00000  Uiso   1.00
H129   H     0.97240   0.17445   0.85980   0.00000  Uiso   1.00
O130   O     0.37205   0.60356   0.31967   0.00000  Uiso   1.00
O131   O     0.40824   0.46144   0.50415   0.00000  Uiso   1.00
O132   O     0.93833   0.19560   0.61280   0.00000  Uiso   1.00
N133   N     0.21578   0.59097   0.20483   0.00000  Uiso   1.00
N134   N     0.52895   0.48970   0.33632   0.00000  Uiso   1.00
N135   N     0.90666   0.30026   0.70115   0.00000  Uiso   1.00
N136   N     0.26064   0.51073   0.33433   0.00000  Uiso   1.00
N137   N     0.57382   0.40947   0.46582   0.00000  Uiso   1.00
N138   N     0.95153   0.22003   0.83065   0.00000  Uiso   1.00
C139   C     0.57852   0.94670   0.59510   0.00000  Uiso   1.00
C140   C     0.68209   0.96238   0.66304   0.00000  Uiso   1.00
C141   C     0.74494   0.01858   0.64395   0.00000  Uiso   1.00
C142   C     0.83666   0.02373   0.71545   0.00000  Uiso   1.00
C143   C     0.99323   0.05560   0.80770   0.00000  Uiso   1.00
C144   C     0.49237   0.93614   0.70115   0.00000  Uiso   1.00
C145   C     0.39570   0.97027   0.71409   0.00000  Uiso   1.00
C146   C     0.32772   0.95332   0.81767   0.00000  Uiso   1.00
C147   C     0.18970   0.94442   0.96904   0.00000  Uiso   1.00
C148   C     0.59614   0.87936   0.53140   0.00000  Uiso   1.00
C149   C     0.58669   0.86573   0.40161   0.00000  Uiso   1.00
C150   C     0.60605   0.80097   0.36228   0.00000  Uiso   1.00
C151   C     0.62915   0.70390   0.25007   0.00000  Uiso   1.00
C152   C     0.62967   0.85591   0.75604   0.00000  Uiso   1.00
C153   C     0.70987   0.91307   0.75046   0.00000  Uiso   1.00
C154   C     0.80153   0.91813   0.82201   0.00000  Uiso   1.00
C155   C     0.86450   0.97432   0.80302   0.00000  Uiso   1.00
C156   C     0.52015   0.88683   0.78857   0.00000  Uiso   1.00
C157   C     0.45229   0.86983   0.89215   0.00000  Uiso   1.00
C158   C     0.35555   0.90392   0.90525   0.00000  Uiso   1.00
C159   C     0.62393   0.83005   0.61881   0.00000  Uiso   1.00
C160   C     0.64329   0.76529   0.57967   0.00000  Uiso   1.00
C161   C     0.63388   0.75157   0.44985   0.00000  Uiso   1.00
H162   H     0.55688   0.98509   0.52705   0.00000  Uiso   1.00
H163   H     0.72340   0.05673   0.57630   0.00000  Uiso   1.00
H164   H     0.37422   0.00843   0.64642   0.00000  Uiso   1.00
H165   H     0.56519   0.90391   0.33400   0.00000  Uiso   1.00
H166   H     0.92025   0.11442   0.66949   0.00000  Uiso   1.00
H167   H     0.18396   0.01255   0.81732   0.00000  Uiso   1.00
H168   H     0.58665   0.79215   0.15850   0.00000  Uiso   1.00
H169   H     0.65130   0.81752   0.82410   0.00000  Uiso   1.00
H170   H     0.82301   0.87996   0.88965   0.00000  Uiso   1.00
H171   H     0.47382   0.83166   0.95977   0.00000  Uiso   1.00
H172   H     0.66479   0.72714   0.64734   0.00000  Uiso   1.00
H173   H     0.00109   0.97095   0.92382   0.00000  Uiso   1.00
H174   H     0.26479   0.86908   0.07165   0.00000  Uiso   1.00
H175   H     0.66749   0.64868   0.41283   0.00000  Uiso   1.00
O176   O     0.07190   0.08680   0.83445   0.00000  Uiso   1.00
O177   O     0.10591   0.95314   0.02838   0.00000  Uiso   1.00
O178   O     0.63423   0.66399   0.16403   0.00000  Uiso   1.00
N179   N     0.91573   0.07208   0.72033   0.00000  Uiso   1.00
N180   N     0.22734   0.97685   0.85856   0.00000  Uiso   1.00
N181   N     0.60380   0.77079   0.24262   0.00000  Uiso   1.00
N182   N     0.95923   0.99488   0.85718   0.00000  Uiso   1.00
N183   N     0.27084   0.89965   0.99541   0.00000  Uiso   1.00
N184   N     0.64730   0.69359   0.37947   0.00000  Uiso   1.00
