data_job_02245
_audit_creation_date              2018-12-19
_audit_creation_method            'Materials Studio'
_symmetry_space_group_name_H-M    'P1'
_symmetry_Int_Tables_number       1
_symmetry_cell_setting            triclinic
loop_
_symmetry_equiv_pos_as_xyz
  x,y,z
_cell_length_a                    17.9079
_cell_length_b                    16.3504
_cell_length_c                    18.1570
_cell_angle_alpha                 90.0000
_cell_angle_beta                  90.0000
_cell_angle_gamma                 90.0000
loop_
_atom_site_label
_atom_site_type_symbol
_atom_site_fract_x
_atom_site_fract_y
_atom_site_fract_z
_atom_site_U_iso_or_equiv
_atom_site_adp_type
_atom_site_occupancy
C1     C     0.19133   0.08562   0.30570   0.00000  Uiso   1.00
C2     C     0.19654   0.10094   0.22302   0.00000  Uiso   1.00
C3     C     0.19778   0.17704   0.18918   0.00000  Uiso   1.00
C4     C     0.20274   0.17809   0.11288   0.00000  Uiso   1.00
C5     C     0.21025   0.21290   0.99071   0.00000  Uiso   1.00
C6     C     0.12310   0.03122   0.31691   0.00000  Uiso   1.00
C7     C     0.06261   0.04868   0.36203   0.00000  Uiso   1.00
C8     C     0.00576   0.99102   0.36477   0.00000  Uiso   1.00
C9     C     0.89929   0.91756   0.38842   0.00000  Uiso   1.00
C10    C     0.25885   0.03325   0.32554   0.00000  Uiso   1.00
C11    C     0.31249   0.05242   0.37794   0.00000  Uiso   1.00
C12    C     0.36992   0.99647   0.38797   0.00000  Uiso   1.00
C13    C     0.47421   0.92616   0.42502   0.00000  Uiso   1.00
C14    C     0.19792   0.95216   0.23035   0.00000  Uiso   1.00
C15    C     0.20011   0.02845   0.18209   0.00000  Uiso   1.00
C16    C     0.20508   0.02938   0.10582   0.00000  Uiso   1.00
C17    C     0.20633   0.10546   0.07188   0.00000  Uiso   1.00
C18    C     0.12668   0.95873   0.27598   0.00000  Uiso   1.00
C19    C     0.06991   0.90102   0.27866   0.00000  Uiso   1.00
C20    C     0.00935   0.91840   0.32377   0.00000  Uiso   1.00
C21    C     0.26243   0.96076   0.28462   0.00000  Uiso   1.00
C22    C     0.31979   0.90476   0.29457   0.00000  Uiso   1.00
C23    C     0.37351   0.92384   0.34697   0.00000  Uiso   1.00
H24    H     0.18853   0.14206   0.33757   0.00000  Uiso   1.00
H25    H     0.19500   0.23313   0.22088   0.00000  Uiso   1.00
H26    H     0.05986   0.10478   0.39370   0.00000  Uiso   1.00
H27    H     0.30970   0.10852   0.40960   0.00000  Uiso   1.00
H28    H     0.20372   0.30212   0.07345   0.00000  Uiso   1.00
H29    H     0.91879   0.03149   0.43788   0.00000  Uiso   1.00
H30    H     0.44562   0.03938   0.47142   0.00000  Uiso   1.00
H31    H     0.20071   0.89572   0.19849   0.00000  Uiso   1.00
H32    H     0.20785   0.97327   0.07416   0.00000  Uiso   1.00
H33    H     0.07271   0.84493   0.24699   0.00000  Uiso   1.00
H34    H     0.32254   0.84867   0.26289   0.00000  Uiso   1.00
H35    H     0.21415   0.09121   0.95437   0.00000  Uiso   1.00
H36    H     0.92921   0.82058   0.31881   0.00000  Uiso   1.00
H37    H     0.45604   0.82847   0.35234   0.00000  Uiso   1.00
O38    O     0.21339   0.25213   0.93464   0.00000  Uiso   1.00
O39    O     0.83957   0.89707   0.41276   0.00000  Uiso   1.00
O40    O     0.53076   0.90742   0.45676   0.00000  Uiso   1.00
N41    N     0.20521   0.24184   0.06249   0.00000  Uiso   1.00
N42    N     0.93881   0.98883   0.40320   0.00000  Uiso   1.00
N43    N     0.43134   0.99619   0.43457   0.00000  Uiso   1.00
N44    N     0.21082   0.12835   0.99842   0.00000  Uiso   1.00
N45    N     0.94442   0.87534   0.33912   0.00000  Uiso   1.00
N46    N     0.43695   0.88270   0.37049   0.00000  Uiso   1.00
C47    C     0.30867   0.91438   0.80570   0.00000  Uiso   1.00
C48    C     0.30346   0.89906   0.72302   0.00000  Uiso   1.00
C49    C     0.30222   0.82296   0.68918   0.00000  Uiso   1.00
C50    C     0.29726   0.82191   0.61288   0.00000  Uiso   1.00
C51    C     0.28975   0.78710   0.49071   0.00000  Uiso   1.00
C52    C     0.37690   0.96878   0.81691   0.00000  Uiso   1.00
C53    C     0.43739   0.95132   0.86203   0.00000  Uiso   1.00
C54    C     0.49424   0.00898   0.86477   0.00000  Uiso   1.00
C55    C     0.60071   0.08244   0.88842   0.00000  Uiso   1.00
C56    C     0.24115   0.96675   0.82554   0.00000  Uiso   1.00
C57    C     0.18751   0.94758   0.87794   0.00000  Uiso   1.00
C58    C     0.13008   0.00353   0.88797   0.00000  Uiso   1.00
C59    C     0.02579   0.07384   0.92502   0.00000  Uiso   1.00
C60    C     0.30208   0.04784   0.73035   0.00000  Uiso   1.00
C61    C     0.29989   0.97155   0.68209   0.00000  Uiso   1.00
C62    C     0.29492   0.97062   0.60582   0.00000  Uiso   1.00
C63    C     0.29367   0.89454   0.57188   0.00000  Uiso   1.00
C64    C     0.37332   0.04127   0.77598   0.00000  Uiso   1.00
C65    C     0.43009   0.09898   0.77866   0.00000  Uiso   1.00
C66    C     0.49065   0.08160   0.82377   0.00000  Uiso   1.00
C67    C     0.23757   0.03924   0.78462   0.00000  Uiso   1.00
C68    C     0.18021   0.09524   0.79457   0.00000  Uiso   1.00
C69    C     0.12649   0.07616   0.84697   0.00000  Uiso   1.00
H70    H     0.31147   0.85794   0.83757   0.00000  Uiso   1.00
H71    H     0.30500   0.76687   0.72088   0.00000  Uiso   1.00
H72    H     0.44014   0.89522   0.89370   0.00000  Uiso   1.00
H73    H     0.19030   0.89148   0.90960   0.00000  Uiso   1.00
H74    H     0.29628   0.69788   0.57345   0.00000  Uiso   1.00
H75    H     0.58121   0.96851   0.93788   0.00000  Uiso   1.00
H76    H     0.05438   0.96062   0.97142   0.00000  Uiso   1.00
H77    H     0.29929   0.10428   0.69849   0.00000  Uiso   1.00
H78    H     0.29215   0.02673   0.57416   0.00000  Uiso   1.00
H79    H     0.42729   0.15507   0.74699   0.00000  Uiso   1.00
H80    H     0.17746   0.15133   0.76289   0.00000  Uiso   1.00
H81    H     0.28585   0.90879   0.45437   0.00000  Uiso   1.00
H82    H     0.57079   0.17942   0.81881   0.00000  Uiso   1.00
H83    H     0.04396   0.17153   0.85234   0.00000  Uiso   1.00
O84    O     0.28661   0.74787   0.43464   0.00000  Uiso   1.00
O85    O     0.66043   0.10293   0.91276   0.00000  Uiso   1.00
O86    O     0.96924   0.09258   0.95676   0.00000  Uiso   1.00
N87    N     0.29479   0.75816   0.56249   0.00000  Uiso   1.00
N88    N     0.56119   0.01117   0.90320   0.00000  Uiso   1.00
N89    N     0.06866   0.00381   0.93457   0.00000  Uiso   1.00
N90    N     0.28918   0.87165   0.49842   0.00000  Uiso   1.00
N91    N     0.55558   0.12466   0.83912   0.00000  Uiso   1.00
N92    N     0.06305   0.11730   0.87049   0.00000  Uiso   1.00
C93    C     0.80867   0.58562   0.19430   0.00000  Uiso   1.00
C94    C     0.80346   0.60094   0.27698   0.00000  Uiso   1.00
C95    C     0.80222   0.67704   0.31082   0.00000  Uiso   1.00
C96    C     0.79726   0.67809   0.38712   0.00000  Uiso   1.00
C97    C     0.78975   0.71290   0.50929   0.00000  Uiso   1.00
C98    C     0.87690   0.53122   0.18309   0.00000  Uiso   1.00
C99    C     0.93739   0.54868   0.13797   0.00000  Uiso   1.00
C100   C     0.99424   0.49102   0.13523   0.00000  Uiso   1.00
C101   C     0.10071   0.41756   0.11158   0.00000  Uiso   1.00
C102   C     0.74115   0.53325   0.17446   0.00000  Uiso   1.00
C103   C     0.68751   0.55242   0.12206   0.00000  Uiso   1.00
C104   C     0.63008   0.49647   0.11203   0.00000  Uiso   1.00
C105   C     0.52579   0.42616   0.07498   0.00000  Uiso   1.00
C106   C     0.80208   0.45216   0.26965   0.00000  Uiso   1.00
C107   C     0.79989   0.52845   0.31791   0.00000  Uiso   1.00
C108   C     0.79492   0.52938   0.39418   0.00000  Uiso   1.00
C109   C     0.79367   0.60546   0.42812   0.00000  Uiso   1.00
C110   C     0.87332   0.45873   0.22402   0.00000  Uiso   1.00
C111   C     0.93009   0.40102   0.22134   0.00000  Uiso   1.00
C112   C     0.99065   0.41840   0.17623   0.00000  Uiso   1.00
C113   C     0.73757   0.46076   0.21538   0.00000  Uiso   1.00
C114   C     0.68021   0.40476   0.20543   0.00000  Uiso   1.00
C115   C     0.62649   0.42384   0.15303   0.00000  Uiso   1.00
H116   H     0.81147   0.64206   0.16243   0.00000  Uiso   1.00
H117   H     0.80500   0.73313   0.27912   0.00000  Uiso   1.00
H118   H     0.94014   0.60478   0.10630   0.00000  Uiso   1.00
H119   H     0.69030   0.60852   0.09040   0.00000  Uiso   1.00
H120   H     0.79628   0.80212   0.42655   0.00000  Uiso   1.00
H121   H     0.08121   0.53149   0.06212   0.00000  Uiso   1.00
H122   H     0.55438   0.53938   0.02858   0.00000  Uiso   1.00
H123   H     0.79929   0.39572   0.30151   0.00000  Uiso   1.00
H124   H     0.79215   0.47327   0.42584   0.00000  Uiso   1.00
H125   H     0.92729   0.34493   0.25301   0.00000  Uiso   1.00
H126   H     0.67746   0.34867   0.23711   0.00000  Uiso   1.00
H127   H     0.78585   0.59121   0.54563   0.00000  Uiso   1.00
H128   H     0.07079   0.32058   0.18119   0.00000  Uiso   1.00
H129   H     0.54396   0.32847   0.14766   0.00000  Uiso   1.00
O130   O     0.78661   0.75213   0.56536   0.00000  Uiso   1.00
O131   O     0.16043   0.39707   0.08724   0.00000  Uiso   1.00
O132   O     0.46924   0.40742   0.04324   0.00000  Uiso   1.00
N133   N     0.79479   0.74184   0.43751   0.00000  Uiso   1.00
N134   N     0.06119   0.48883   0.09680   0.00000  Uiso   1.00
N135   N     0.56866   0.49619   0.06543   0.00000  Uiso   1.00
N136   N     0.78918   0.62835   0.50158   0.00000  Uiso   1.00
N137   N     0.05558   0.37534   0.16088   0.00000  Uiso   1.00
N138   N     0.56305   0.38270   0.12951   0.00000  Uiso   1.00
C139   C     0.69133   0.41438   0.69430   0.00000  Uiso   1.00
C140   C     0.69654   0.39906   0.77698   0.00000  Uiso   1.00
C141   C     0.69778   0.32296   0.81082   0.00000  Uiso   1.00
C142   C     0.70274   0.32191   0.88712   0.00000  Uiso   1.00
C143   C     0.71025   0.28710   0.00929   0.00000  Uiso   1.00
C144   C     0.62310   0.46878   0.68309   0.00000  Uiso   1.00
C145   C     0.56261   0.45132   0.63797   0.00000  Uiso   1.00
C146   C     0.50576   0.50898   0.63523   0.00000  Uiso   1.00
C147   C     0.39929   0.58244   0.61158   0.00000  Uiso   1.00
C148   C     0.75885   0.46675   0.67446   0.00000  Uiso   1.00
C149   C     0.81249   0.44758   0.62206   0.00000  Uiso   1.00
C150   C     0.86992   0.50353   0.61203   0.00000  Uiso   1.00
C151   C     0.97421   0.57384   0.57498   0.00000  Uiso   1.00
C152   C     0.69792   0.54784   0.76965   0.00000  Uiso   1.00
C153   C     0.70011   0.47155   0.81791   0.00000  Uiso   1.00
C154   C     0.70508   0.47062   0.89418   0.00000  Uiso   1.00
C155   C     0.70633   0.39454   0.92812   0.00000  Uiso   1.00
C156   C     0.62668   0.54127   0.72402   0.00000  Uiso   1.00
C157   C     0.56991   0.59898   0.72134   0.00000  Uiso   1.00
C158   C     0.50935   0.58160   0.67623   0.00000  Uiso   1.00
C159   C     0.76243   0.53924   0.71538   0.00000  Uiso   1.00
C160   C     0.81979   0.59524   0.70543   0.00000  Uiso   1.00
C161   C     0.87351   0.57616   0.65303   0.00000  Uiso   1.00
H162   H     0.68853   0.35794   0.66243   0.00000  Uiso   1.00
H163   H     0.69500   0.26687   0.77912   0.00000  Uiso   1.00
H164   H     0.55986   0.39522   0.60630   0.00000  Uiso   1.00
H165   H     0.80970   0.39148   0.59040   0.00000  Uiso   1.00
H166   H     0.70372   0.19788   0.92655   0.00000  Uiso   1.00
H167   H     0.41879   0.46851   0.56212   0.00000  Uiso   1.00
H168   H     0.94562   0.46062   0.52858   0.00000  Uiso   1.00
H169   H     0.70071   0.60428   0.80151   0.00000  Uiso   1.00
H170   H     0.70785   0.52673   0.92584   0.00000  Uiso   1.00
H171   H     0.57271   0.65507   0.75301   0.00000  Uiso   1.00
H172   H     0.82254   0.65133   0.73711   0.00000  Uiso   1.00
H173   H     0.71415   0.40879   0.04563   0.00000  Uiso   1.00
H174   H     0.42921   0.67942   0.68119   0.00000  Uiso   1.00
H175   H     0.95604   0.67153   0.64766   0.00000  Uiso   1.00
O176   O     0.71339   0.24787   0.06536   0.00000  Uiso   1.00
O177   O     0.33957   0.60293   0.58724   0.00000  Uiso   1.00
O178   O     0.03076   0.59258   0.54324   0.00000  Uiso   1.00
N179   N     0.70521   0.25816   0.93751   0.00000  Uiso   1.00
N180   N     0.43881   0.51117   0.59680   0.00000  Uiso   1.00
N181   N     0.93134   0.50381   0.56543   0.00000  Uiso   1.00
N182   N     0.71082   0.37165   0.00158   0.00000  Uiso   1.00
N183   N     0.44442   0.62466   0.66088   0.00000  Uiso   1.00
N184   N     0.93695   0.61730   0.62951   0.00000  Uiso   1.00
C185   C     0.80867   0.91438   0.69430   0.00000  Uiso   1.00
C186   C     0.80346   0.89906   0.77698   0.00000  Uiso   1.00
C187   C     0.80222   0.82296   0.81082   0.00000  Uiso   1.00
C188   C     0.79726   0.82191   0.88712   0.00000  Uiso   1.00
C189   C     0.78975   0.78710   0.00929   0.00000  Uiso   1.00
C190   C     0.87690   0.96878   0.68309   0.00000  Uiso   1.00
C191   C     0.93739   0.95132   0.63797   0.00000  Uiso   1.00
C192   C     0.99424   0.00898   0.63523   0.00000  Uiso   1.00
C193   C     0.10071   0.08244   0.61158   0.00000  Uiso   1.00
C194   C     0.74115   0.96675   0.67446   0.00000  Uiso   1.00
C195   C     0.68751   0.94758   0.62206   0.00000  Uiso   1.00
C196   C     0.63008   0.00353   0.61203   0.00000  Uiso   1.00
C197   C     0.52579   0.07384   0.57498   0.00000  Uiso   1.00
C198   C     0.80208   0.04784   0.76965   0.00000  Uiso   1.00
C199   C     0.79989   0.97155   0.81791   0.00000  Uiso   1.00
C200   C     0.79492   0.97062   0.89418   0.00000  Uiso   1.00
C201   C     0.79367   0.89454   0.92812   0.00000  Uiso   1.00
C202   C     0.87332   0.04127   0.72402   0.00000  Uiso   1.00
C203   C     0.93009   0.09898   0.72134   0.00000  Uiso   1.00
C204   C     0.99065   0.08160   0.67623   0.00000  Uiso   1.00
C205   C     0.73757   0.03924   0.71538   0.00000  Uiso   1.00
C206   C     0.68021   0.09524   0.70543   0.00000  Uiso   1.00
C207   C     0.62649   0.07616   0.65303   0.00000  Uiso   1.00
H208   H     0.81147   0.85794   0.66243   0.00000  Uiso   1.00
H209   H     0.80500   0.76687   0.77912   0.00000  Uiso   1.00
H210   H     0.94014   0.89522   0.60630   0.00000  Uiso   1.00
H211   H     0.69030   0.89148   0.59040   0.00000  Uiso   1.00
H212   H     0.79628   0.69788   0.92655   0.00000  Uiso   1.00
H213   H     0.08121   0.96851   0.56212   0.00000  Uiso   1.00
H214   H     0.55438   0.96062   0.52858   0.00000  Uiso   1.00
H215   H     0.79929   0.10428   0.80151   0.00000  Uiso   1.00
H216   H     0.79215   0.02673   0.92584   0.00000  Uiso   1.00
H217   H     0.92729   0.15507   0.75301   0.00000  Uiso   1.00
H218   H     0.67746   0.15133   0.73711   0.00000  Uiso   1.00
H219   H     0.78585   0.90879   0.04563   0.00000  Uiso   1.00
H220   H     0.07079   0.17942   0.68119   0.00000  Uiso   1.00
H221   H     0.54396   0.17153   0.64766   0.00000  Uiso   1.00
O222   O     0.78661   0.74787   0.06536   0.00000  Uiso   1.00
O223   O     0.16043   0.10293   0.58724   0.00000  Uiso   1.00
O224   O     0.46924   0.09258   0.54324   0.00000  Uiso   1.00
N225   N     0.79479   0.75816   0.93751   0.00000  Uiso   1.00
N226   N     0.06119   0.01117   0.59680   0.00000  Uiso   1.00
N227   N     0.56866   0.00381   0.56543   0.00000  Uiso   1.00
N228   N     0.78918   0.87165   0.00158   0.00000  Uiso   1.00
N229   N     0.05558   0.12466   0.66088   0.00000  Uiso   1.00
N230   N     0.56305   0.11730   0.62951   0.00000  Uiso   1.00
C231   C     0.69133   0.08562   0.19430   0.00000  Uiso   1.00
C232   C     0.69654   0.10094   0.27698   0.00000  Uiso   1.00
C233   C     0.69778   0.17704   0.31082   0.00000  Uiso   1.00
C234   C     0.70274   0.17809   0.38712   0.00000  Uiso   1.00
C235   C     0.71025   0.21290   0.50929   0.00000  Uiso   1.00
C236   C     0.62310   0.03122   0.18309   0.00000  Uiso   1.00
C237   C     0.56261   0.04868   0.13797   0.00000  Uiso   1.00
C238   C     0.50576   0.99102   0.13523   0.00000  Uiso   1.00
C239   C     0.39929   0.91756   0.11158   0.00000  Uiso   1.00
C240   C     0.75885   0.03325   0.17446   0.00000  Uiso   1.00
C241   C     0.81249   0.05242   0.12206   0.00000  Uiso   1.00
C242   C     0.86992   0.99647   0.11203   0.00000  Uiso   1.00
C243   C     0.97421   0.92616   0.07498   0.00000  Uiso   1.00
C244   C     0.69792   0.95216   0.26965   0.00000  Uiso   1.00
C245   C     0.70011   0.02845   0.31791   0.00000  Uiso   1.00
C246   C     0.70508   0.02938   0.39418   0.00000  Uiso   1.00
C247   C     0.70633   0.10546   0.42812   0.00000  Uiso   1.00
C248   C     0.62668   0.95873   0.22402   0.00000  Uiso   1.00
C249   C     0.56991   0.90102   0.22134   0.00000  Uiso   1.00
C250   C     0.50935   0.91840   0.17623   0.00000  Uiso   1.00
C251   C     0.76243   0.96076   0.21538   0.00000  Uiso   1.00
C252   C     0.81979   0.90476   0.20543   0.00000  Uiso   1.00
C253   C     0.87351   0.92384   0.15303   0.00000  Uiso   1.00
H254   H     0.68853   0.14206   0.16243   0.00000  Uiso   1.00
H255   H     0.69500   0.23313   0.27912   0.00000  Uiso   1.00
H256   H     0.55986   0.10478   0.10630   0.00000  Uiso   1.00
H257   H     0.80970   0.10852   0.09040   0.00000  Uiso   1.00
H258   H     0.70372   0.30212   0.42655   0.00000  Uiso   1.00
H259   H     0.41879   0.03149   0.06212   0.00000  Uiso   1.00
H260   H     0.94562   0.03938   0.02858   0.00000  Uiso   1.00
H261   H     0.70071   0.89572   0.30151   0.00000  Uiso   1.00
H262   H     0.70785   0.97327   0.42584   0.00000  Uiso   1.00
H263   H     0.57271   0.84493   0.25301   0.00000  Uiso   1.00
H264   H     0.82254   0.84867   0.23711   0.00000  Uiso   1.00
H265   H     0.71415   0.09121   0.54563   0.00000  Uiso   1.00
H266   H     0.42921   0.82058   0.18119   0.00000  Uiso   1.00
H267   H     0.95604   0.82847   0.14766   0.00000  Uiso   1.00
O268   O     0.71339   0.25213   0.56536   0.00000  Uiso   1.00
O269   O     0.33957   0.89707   0.08724   0.00000  Uiso   1.00
O270   O     0.03076   0.90742   0.04324   0.00000  Uiso   1.00
N271   N     0.70521   0.24184   0.43751   0.00000  Uiso   1.00
N272   N     0.43881   0.98883   0.09680   0.00000  Uiso   1.00
N273   N     0.93134   0.99619   0.06543   0.00000  Uiso   1.00
N274   N     0.71082   0.12835   0.50158   0.00000  Uiso   1.00
N275   N     0.44442   0.87534   0.16088   0.00000  Uiso   1.00
N276   N     0.93695   0.88270   0.12951   0.00000  Uiso   1.00
C277   C     0.19133   0.41438   0.80570   0.00000  Uiso   1.00
C278   C     0.19654   0.39906   0.72302   0.00000  Uiso   1.00
C279   C     0.19778   0.32296   0.68918   0.00000  Uiso   1.00
C280   C     0.20274   0.32191   0.61288   0.00000  Uiso   1.00
C281   C     0.21025   0.28710   0.49071   0.00000  Uiso   1.00
C282   C     0.12310   0.46878   0.81691   0.00000  Uiso   1.00
C283   C     0.06261   0.45132   0.86203   0.00000  Uiso   1.00
C284   C     0.00576   0.50898   0.86477   0.00000  Uiso   1.00
C285   C     0.89929   0.58244   0.88842   0.00000  Uiso   1.00
C286   C     0.25885   0.46675   0.82554   0.00000  Uiso   1.00
C287   C     0.31249   0.44758   0.87794   0.00000  Uiso   1.00
C288   C     0.36992   0.50353   0.88797   0.00000  Uiso   1.00
C289   C     0.47421   0.57384   0.92502   0.00000  Uiso   1.00
C290   C     0.19792   0.54784   0.73035   0.00000  Uiso   1.00
C291   C     0.20011   0.47155   0.68209   0.00000  Uiso   1.00
C292   C     0.20508   0.47062   0.60582   0.00000  Uiso   1.00
C293   C     0.20633   0.39454   0.57188   0.00000  Uiso   1.00
C294   C     0.12668   0.54127   0.77598   0.00000  Uiso   1.00
C295   C     0.06991   0.59898   0.77866   0.00000  Uiso   1.00
C296   C     0.00935   0.58160   0.82377   0.00000  Uiso   1.00
C297   C     0.26243   0.53924   0.78462   0.00000  Uiso   1.00
C298   C     0.31979   0.59524   0.79457   0.00000  Uiso   1.00
C299   C     0.37351   0.57616   0.84697   0.00000  Uiso   1.00
H300   H     0.18853   0.35794   0.83757   0.00000  Uiso   1.00
H301   H     0.19500   0.26687   0.72088   0.00000  Uiso   1.00
H302   H     0.05986   0.39522   0.89370   0.00000  Uiso   1.00
H303   H     0.30970   0.39148   0.90960   0.00000  Uiso   1.00
H304   H     0.20372   0.19788   0.57345   0.00000  Uiso   1.00
H305   H     0.91879   0.46851   0.93788   0.00000  Uiso   1.00
H306   H     0.44562   0.46062   0.97142   0.00000  Uiso   1.00
H307   H     0.20071   0.60428   0.69849   0.00000  Uiso   1.00
H308   H     0.20785   0.52673   0.57416   0.00000  Uiso   1.00
H309   H     0.07271   0.65507   0.74699   0.00000  Uiso   1.00
H310   H     0.32254   0.65133   0.76289   0.00000  Uiso   1.00
H311   H     0.21415   0.40879   0.45437   0.00000  Uiso   1.00
H312   H     0.92921   0.67942   0.81881   0.00000  Uiso   1.00
H313   H     0.45604   0.67153   0.85234   0.00000  Uiso   1.00
O314   O     0.21339   0.24787   0.43464   0.00000  Uiso   1.00
O315   O     0.83957   0.60293   0.91276   0.00000  Uiso   1.00
O316   O     0.53076   0.59258   0.95676   0.00000  Uiso   1.00
N317   N     0.20521   0.25816   0.56249   0.00000  Uiso   1.00
N318   N     0.93881   0.51117   0.90320   0.00000  Uiso   1.00
N319   N     0.43134   0.50381   0.93457   0.00000  Uiso   1.00
N320   N     0.21082   0.37165   0.49842   0.00000  Uiso   1.00
N321   N     0.94442   0.62466   0.83912   0.00000  Uiso   1.00
N322   N     0.43695   0.61730   0.87049   0.00000  Uiso   1.00
C323   C     0.30867   0.58562   0.30570   0.00000  Uiso   1.00
C324   C     0.30346   0.60094   0.22302   0.00000  Uiso   1.00
C325   C     0.30222   0.67704   0.18918   0.00000  Uiso   1.00
C326   C     0.29726   0.67809   0.11288   0.00000  Uiso   1.00
C327   C     0.28975   0.71290   0.99071   0.00000  Uiso   1.00
C328   C     0.37690   0.53122   0.31691   0.00000  Uiso   1.00
C329   C     0.43739   0.54868   0.36203   0.00000  Uiso   1.00
C330   C     0.49424   0.49102   0.36477   0.00000  Uiso   1.00
C331   C     0.60071   0.41756   0.38842   0.00000  Uiso   1.00
C332   C     0.24115   0.53325   0.32554   0.00000  Uiso   1.00
C333   C     0.18751   0.55242   0.37794   0.00000  Uiso   1.00
C334   C     0.13008   0.49647   0.38797   0.00000  Uiso   1.00
C335   C     0.02579   0.42616   0.42502   0.00000  Uiso   1.00
C336   C     0.30208   0.45216   0.23035   0.00000  Uiso   1.00
C337   C     0.29989   0.52845   0.18209   0.00000  Uiso   1.00
C338   C     0.29492   0.52938   0.10582   0.00000  Uiso   1.00
C339   C     0.29367   0.60546   0.07188   0.00000  Uiso   1.00
C340   C     0.37332   0.45873   0.27598   0.00000  Uiso   1.00
C341   C     0.43009   0.40102   0.27866   0.00000  Uiso   1.00
C342   C     0.49065   0.41840   0.32377   0.00000  Uiso   1.00
C343   C     0.23757   0.46076   0.28462   0.00000  Uiso   1.00
C344   C     0.18021   0.40476   0.29457   0.00000  Uiso   1.00
C345   C     0.12649   0.42384   0.34697   0.00000  Uiso   1.00
H346   H     0.31147   0.64206   0.33757   0.00000  Uiso   1.00
H347   H     0.30500   0.73313   0.22088   0.00000  Uiso   1.00
H348   H     0.44014   0.60478   0.39370   0.00000  Uiso   1.00
H349   H     0.19030   0.60852   0.40960   0.00000  Uiso   1.00
H350   H     0.29628   0.80212   0.07345   0.00000  Uiso   1.00
H351   H     0.58121   0.53149   0.43788   0.00000  Uiso   1.00
H352   H     0.05438   0.53938   0.47142   0.00000  Uiso   1.00
H353   H     0.29929   0.39572   0.19849   0.00000  Uiso   1.00
H354   H     0.29215   0.47327   0.07416   0.00000  Uiso   1.00
H355   H     0.42729   0.34493   0.24699   0.00000  Uiso   1.00
H356   H     0.17746   0.34867   0.26289   0.00000  Uiso   1.00
H357   H     0.28585   0.59121   0.95437   0.00000  Uiso   1.00
H358   H     0.57079   0.32058   0.31881   0.00000  Uiso   1.00
H359   H     0.04396   0.32847   0.35234   0.00000  Uiso   1.00
O360   O     0.28661   0.75213   0.93464   0.00000  Uiso   1.00
O361   O     0.66043   0.39707   0.41276   0.00000  Uiso   1.00
O362   O     0.96924   0.40742   0.45676   0.00000  Uiso   1.00
N363   N     0.29479   0.74184   0.06249   0.00000  Uiso   1.00
N364   N     0.56119   0.48883   0.40320   0.00000  Uiso   1.00
N365   N     0.06866   0.49619   0.43457   0.00000  Uiso   1.00
N366   N     0.28918   0.62835   0.99842   0.00000  Uiso   1.00
N367   N     0.55558   0.37534   0.33912   0.00000  Uiso   1.00
N368   N     0.06305   0.38270   0.37049   0.00000  Uiso   1.00
