data_job_02652
_audit_creation_date              2018-12-19
_audit_creation_method            'Materials Studio'
_symmetry_space_group_name_H-M    'P1'
_symmetry_Int_Tables_number       1
_symmetry_cell_setting            triclinic
loop_
_symmetry_equiv_pos_as_xyz
  x,y,z
_cell_length_a                    15.1804
_cell_length_b                    9.9317
_cell_length_c                    24.3368
_cell_angle_alpha                 90.0000
_cell_angle_beta                  124.7736
_cell_angle_gamma                 90.0000
loop_
_atom_site_label
_atom_site_type_symbol
_atom_site_fract_x
_atom_site_fract_y
_atom_site_fract_z
_atom_site_U_iso_or_equiv
_atom_site_adp_type
_atom_site_occupancy
C1     C     0.86668   0.59939   0.58000   0.00000  Uiso   1.00
C2     C     0.81730   0.69211   0.60550   0.00000  Uiso   1.00
C3     C     0.86022   0.72006   0.67213   0.00000  Uiso   1.00
C4     C     0.80280   0.80747   0.68512   0.00000  Uiso   1.00
C5     C     0.74082   0.94266   0.73258   0.00000  Uiso   1.00
C6     C     0.78138   0.49419   0.53652   0.00000  Uiso   1.00
C7     C     0.79412   0.35573   0.54515   0.00000  Uiso   1.00
C8     C     0.70647   0.27653   0.50006   0.00000  Uiso   1.00
C9     C     0.58876   0.10444   0.44041   0.00000  Uiso   1.00
C10    C     0.87918   0.68419   0.53261   0.00000  Uiso   1.00
C11    C     0.97413   0.70547   0.53794   0.00000  Uiso   1.00
C12    C     0.96882   0.78622   0.48955   0.00000  Uiso   1.00
C13    C     0.00295   0.90914   0.42383   0.00000  Uiso   1.00
C14    C     0.68838   0.70492   0.48458   0.00000  Uiso   1.00
C15    C     0.72045   0.74942   0.55367   0.00000  Uiso   1.00
C16    C     0.66295   0.83682   0.56656   0.00000  Uiso   1.00
C17    C     0.70578   0.86490   0.63320   0.00000  Uiso   1.00
C18    C     0.68454   0.55150   0.48469   0.00000  Uiso   1.00
C19    C     0.59685   0.47249   0.43958   0.00000  Uiso   1.00
C20    C     0.60945   0.33395   0.44814   0.00000  Uiso   1.00
C21    C     0.78233   0.74152   0.48078   0.00000  Uiso   1.00
C22    C     0.77686   0.82223   0.43237   0.00000  Uiso   1.00
C23    C     0.87179   0.84364   0.43763   0.00000  Uiso   1.00
H24    H     0.94208   0.55476   0.62035   0.00000  Uiso   1.00
H25    H     0.93517   0.67567   0.71222   0.00000  Uiso   1.00
H26    H     0.86908   0.31140   0.58526   0.00000  Uiso   1.00
H27    H     0.04906   0.66110   0.57805   0.00000  Uiso   1.00
H28    H     0.88477   0.83496   0.79122   0.00000  Uiso   1.00
H29    H     0.74544   0.06688   0.52349   0.00000  Uiso   1.00
H30    H     0.12497   0.80427   0.50831   0.00000  Uiso   1.00
H31    H     0.61298   0.74955   0.44423   0.00000  Uiso   1.00
H32    H     0.58801   0.88116   0.52644   0.00000  Uiso   1.00
H33    H     0.52192   0.51688   0.39947   0.00000  Uiso   1.00
H34    H     0.70191   0.86657   0.39227   0.00000  Uiso   1.00
H35    H     0.60300   0.00174   0.64043   0.00000  Uiso   1.00
H36    H     0.46367   0.23365   0.37270   0.00000  Uiso   1.00
H37    H     0.84320   0.97105   0.35752   0.00000  Uiso   1.00
O38    O     0.73338   0.00137   0.77308   0.00000  Uiso   1.00
O39    O     0.55059   0.99368   0.42183   0.00000  Uiso   1.00
O40    O     0.04853   0.96112   0.40191   0.00000  Uiso   1.00
N41    N     0.82189   0.85617   0.74445   0.00000  Uiso   1.00
N42    N     0.69162   0.13806   0.49415   0.00000  Uiso   1.00
N43    N     0.04645   0.82743   0.47994   0.00000  Uiso   1.00
N44    N     0.67028   0.94592   0.66331   0.00000  Uiso   1.00
N45    N     0.54000   0.22780   0.41301   0.00000  Uiso   1.00
N46    N     0.89483   0.91717   0.39880   0.00000  Uiso   1.00
C47    C     0.13332   0.59939   0.92000   0.00000  Uiso   1.00
C48    C     0.18270   0.69211   0.89450   0.00000  Uiso   1.00
C49    C     0.13978   0.72006   0.82787   0.00000  Uiso   1.00
C50    C     0.19720   0.80747   0.81488   0.00000  Uiso   1.00
C51    C     0.25918   0.94266   0.76742   0.00000  Uiso   1.00
C52    C     0.21862   0.49419   0.96348   0.00000  Uiso   1.00
C53    C     0.20588   0.35573   0.95485   0.00000  Uiso   1.00
C54    C     0.29353   0.27653   0.99994   0.00000  Uiso   1.00
C55    C     0.41124   0.10444   0.05959   0.00000  Uiso   1.00
C56    C     0.12082   0.68419   0.96739   0.00000  Uiso   1.00
C57    C     0.02587   0.70547   0.96206   0.00000  Uiso   1.00
C58    C     0.03118   0.78622   0.01045   0.00000  Uiso   1.00
C59    C     0.99705   0.90914   0.07617   0.00000  Uiso   1.00
C60    C     0.31162   0.70492   0.01542   0.00000  Uiso   1.00
C61    C     0.27955   0.74942   0.94633   0.00000  Uiso   1.00
C62    C     0.33705   0.83682   0.93344   0.00000  Uiso   1.00
C63    C     0.29422   0.86490   0.86680   0.00000  Uiso   1.00
C64    C     0.31546   0.55150   0.01531   0.00000  Uiso   1.00
C65    C     0.40315   0.47249   0.06042   0.00000  Uiso   1.00
C66    C     0.39055   0.33395   0.05186   0.00000  Uiso   1.00
C67    C     0.21767   0.74152   0.01922   0.00000  Uiso   1.00
C68    C     0.22314   0.82223   0.06763   0.00000  Uiso   1.00
C69    C     0.12821   0.84364   0.06237   0.00000  Uiso   1.00
H70    H     0.05792   0.55476   0.87965   0.00000  Uiso   1.00
H71    H     0.06483   0.67567   0.78778   0.00000  Uiso   1.00
H72    H     0.13092   0.31140   0.91474   0.00000  Uiso   1.00
H73    H     0.95094   0.66110   0.92195   0.00000  Uiso   1.00
H74    H     0.11523   0.83496   0.70878   0.00000  Uiso   1.00
H75    H     0.25456   0.06688   0.97651   0.00000  Uiso   1.00
H76    H     0.87503   0.80427   0.99169   0.00000  Uiso   1.00
H77    H     0.38702   0.74955   0.05577   0.00000  Uiso   1.00
H78    H     0.41199   0.88116   0.97356   0.00000  Uiso   1.00
H79    H     0.47808   0.51688   0.10053   0.00000  Uiso   1.00
H80    H     0.29809   0.86657   0.10773   0.00000  Uiso   1.00
H81    H     0.39700   0.00174   0.85957   0.00000  Uiso   1.00
H82    H     0.53633   0.23365   0.12730   0.00000  Uiso   1.00
H83    H     0.15680   0.97105   0.14248   0.00000  Uiso   1.00
O84    O     0.26662   0.00137   0.72692   0.00000  Uiso   1.00
O85    O     0.44941   0.99368   0.07817   0.00000  Uiso   1.00
O86    O     0.95147   0.96112   0.09809   0.00000  Uiso   1.00
N87    N     0.17811   0.85617   0.75555   0.00000  Uiso   1.00
N88    N     0.30838   0.13806   0.00585   0.00000  Uiso   1.00
N89    N     0.95355   0.82743   0.02006   0.00000  Uiso   1.00
N90    N     0.32972   0.94592   0.83669   0.00000  Uiso   1.00
N91    N     0.46000   0.22780   0.08699   0.00000  Uiso   1.00
N92    N     0.10517   0.91717   0.10120   0.00000  Uiso   1.00
C93    C     0.13332   0.40061   0.42000   0.00000  Uiso   1.00
C94    C     0.18270   0.30789   0.39450   0.00000  Uiso   1.00
C95    C     0.13978   0.27994   0.32787   0.00000  Uiso   1.00
C96    C     0.19720   0.19253   0.31488   0.00000  Uiso   1.00
C97    C     0.25918   0.05734   0.26742   0.00000  Uiso   1.00
C98    C     0.21862   0.50581   0.46348   0.00000  Uiso   1.00
C99    C     0.20588   0.64427   0.45485   0.00000  Uiso   1.00
C100   C     0.29353   0.72347   0.49994   0.00000  Uiso   1.00
C101   C     0.41124   0.89556   0.55959   0.00000  Uiso   1.00
C102   C     0.12082   0.31581   0.46739   0.00000  Uiso   1.00
C103   C     0.02587   0.29453   0.46206   0.00000  Uiso   1.00
C104   C     0.03118   0.21378   0.51045   0.00000  Uiso   1.00
C105   C     0.99705   0.09086   0.57617   0.00000  Uiso   1.00
C106   C     0.31162   0.29508   0.51542   0.00000  Uiso   1.00
C107   C     0.27955   0.25058   0.44633   0.00000  Uiso   1.00
C108   C     0.33705   0.16318   0.43344   0.00000  Uiso   1.00
C109   C     0.29422   0.13510   0.36680   0.00000  Uiso   1.00
C110   C     0.31546   0.44850   0.51531   0.00000  Uiso   1.00
C111   C     0.40315   0.52751   0.56042   0.00000  Uiso   1.00
C112   C     0.39055   0.66605   0.55186   0.00000  Uiso   1.00
C113   C     0.21767   0.25848   0.51922   0.00000  Uiso   1.00
C114   C     0.22314   0.17777   0.56763   0.00000  Uiso   1.00
C115   C     0.12821   0.15636   0.56237   0.00000  Uiso   1.00
H116   H     0.05792   0.44524   0.37965   0.00000  Uiso   1.00
H117   H     0.06483   0.32433   0.28778   0.00000  Uiso   1.00
H118   H     0.13092   0.68860   0.41474   0.00000  Uiso   1.00
H119   H     0.95094   0.33890   0.42195   0.00000  Uiso   1.00
H120   H     0.11523   0.16504   0.20878   0.00000  Uiso   1.00
H121   H     0.25456   0.93312   0.47651   0.00000  Uiso   1.00
H122   H     0.87503   0.19573   0.49169   0.00000  Uiso   1.00
H123   H     0.38702   0.25045   0.55577   0.00000  Uiso   1.00
H124   H     0.41199   0.11884   0.47356   0.00000  Uiso   1.00
H125   H     0.47808   0.48312   0.60053   0.00000  Uiso   1.00
H126   H     0.29809   0.13343   0.60773   0.00000  Uiso   1.00
H127   H     0.39700   0.99826   0.35957   0.00000  Uiso   1.00
H128   H     0.53633   0.76635   0.62730   0.00000  Uiso   1.00
H129   H     0.15680   0.02895   0.64248   0.00000  Uiso   1.00
O130   O     0.26662   0.99863   0.22692   0.00000  Uiso   1.00
O131   O     0.44941   0.00632   0.57817   0.00000  Uiso   1.00
O132   O     0.95147   0.03888   0.59809   0.00000  Uiso   1.00
N133   N     0.17811   0.14383   0.25555   0.00000  Uiso   1.00
N134   N     0.30838   0.86194   0.50585   0.00000  Uiso   1.00
N135   N     0.95355   0.17257   0.52006   0.00000  Uiso   1.00
N136   N     0.32972   0.05408   0.33669   0.00000  Uiso   1.00
N137   N     0.46000   0.77220   0.58699   0.00000  Uiso   1.00
N138   N     0.10517   0.08283   0.60120   0.00000  Uiso   1.00
C139   C     0.86668   0.40061   0.08000   0.00000  Uiso   1.00
C140   C     0.81730   0.30789   0.10550   0.00000  Uiso   1.00
C141   C     0.86022   0.27994   0.17213   0.00000  Uiso   1.00
C142   C     0.80280   0.19253   0.18512   0.00000  Uiso   1.00
C143   C     0.74082   0.05734   0.23258   0.00000  Uiso   1.00
C144   C     0.78138   0.50581   0.03652   0.00000  Uiso   1.00
C145   C     0.79412   0.64427   0.04515   0.00000  Uiso   1.00
C146   C     0.70647   0.72347   0.00006   0.00000  Uiso   1.00
C147   C     0.58876   0.89556   0.94041   0.00000  Uiso   1.00
C148   C     0.87918   0.31581   0.03261   0.00000  Uiso   1.00
C149   C     0.97413   0.29453   0.03794   0.00000  Uiso   1.00
C150   C     0.96882   0.21378   0.98955   0.00000  Uiso   1.00
C151   C     0.00295   0.09086   0.92383   0.00000  Uiso   1.00
C152   C     0.68838   0.29508   0.98458   0.00000  Uiso   1.00
C153   C     0.72045   0.25058   0.05367   0.00000  Uiso   1.00
C154   C     0.66295   0.16318   0.06656   0.00000  Uiso   1.00
C155   C     0.70578   0.13510   0.13320   0.00000  Uiso   1.00
C156   C     0.68454   0.44850   0.98469   0.00000  Uiso   1.00
C157   C     0.59685   0.52751   0.93958   0.00000  Uiso   1.00
C158   C     0.60945   0.66605   0.94814   0.00000  Uiso   1.00
C159   C     0.78233   0.25848   0.98078   0.00000  Uiso   1.00
C160   C     0.77686   0.17777   0.93237   0.00000  Uiso   1.00
C161   C     0.87179   0.15636   0.93763   0.00000  Uiso   1.00
H162   H     0.94208   0.44524   0.12035   0.00000  Uiso   1.00
H163   H     0.93517   0.32433   0.21222   0.00000  Uiso   1.00
H164   H     0.86908   0.68860   0.08526   0.00000  Uiso   1.00
H165   H     0.04906   0.33890   0.07805   0.00000  Uiso   1.00
H166   H     0.88477   0.16504   0.29122   0.00000  Uiso   1.00
H167   H     0.74544   0.93312   0.02349   0.00000  Uiso   1.00
H168   H     0.12497   0.19573   0.00831   0.00000  Uiso   1.00
H169   H     0.61298   0.25045   0.94423   0.00000  Uiso   1.00
H170   H     0.58801   0.11884   0.02644   0.00000  Uiso   1.00
H171   H     0.52192   0.48312   0.89947   0.00000  Uiso   1.00
H172   H     0.70191   0.13343   0.89227   0.00000  Uiso   1.00
H173   H     0.60300   0.99826   0.14043   0.00000  Uiso   1.00
H174   H     0.46367   0.76635   0.87270   0.00000  Uiso   1.00
H175   H     0.84320   0.02895   0.85752   0.00000  Uiso   1.00
O176   O     0.73338   0.99863   0.27308   0.00000  Uiso   1.00
O177   O     0.55059   0.00632   0.92183   0.00000  Uiso   1.00
O178   O     0.04853   0.03888   0.90191   0.00000  Uiso   1.00
N179   N     0.82189   0.14383   0.24445   0.00000  Uiso   1.00
N180   N     0.69162   0.86194   0.99415   0.00000  Uiso   1.00
N181   N     0.04645   0.17257   0.97994   0.00000  Uiso   1.00
N182   N     0.67028   0.05408   0.16331   0.00000  Uiso   1.00
N183   N     0.54000   0.77220   0.91301   0.00000  Uiso   1.00
N184   N     0.89483   0.08283   0.89880   0.00000  Uiso   1.00
