data_job_01619
_audit_creation_date              2018-12-19
_audit_creation_method            'Materials Studio'
_symmetry_space_group_name_H-M    'P1'
_symmetry_Int_Tables_number       1
_symmetry_cell_setting            triclinic
loop_
_symmetry_equiv_pos_as_xyz
  x,y,z
_cell_length_a                    12.2888
_cell_length_b                    12.6701
_cell_length_c                    15.0689
_cell_angle_alpha                 90.0000
_cell_angle_beta                  90.0000
_cell_angle_gamma                 90.0000
loop_
_atom_site_label
_atom_site_type_symbol
_atom_site_fract_x
_atom_site_fract_y
_atom_site_fract_z
_atom_site_U_iso_or_equiv
_atom_site_adp_type
_atom_site_occupancy
C1     C     0.64355   0.75553   0.22895   0.00000  Uiso   1.00
C2     C     0.57634   0.73480   0.14568   0.00000  Uiso   1.00
C3     C     0.59551   0.65568   0.08395   0.00000  Uiso   1.00
C4     C     0.52474   0.64981   0.01229   0.00000  Uiso   1.00
C5     C     0.43361   0.60689   0.88442   0.00000  Uiso   1.00
C6     C     0.68090   0.87007   0.22271   0.00000  Uiso   1.00
C7     C     0.78799   0.90467   0.22574   0.00000  Uiso   1.00
C8     C     0.80525   0.01267   0.21893   0.00000  Uiso   1.00
C9     C     0.87645   0.17976   0.21071   0.00000  Uiso   1.00
C10    C     0.56394   0.75100   0.30647   0.00000  Uiso   1.00
C11    C     0.57269   0.68551   0.37995   0.00000  Uiso   1.00
C12    C     0.49148   0.69328   0.44368   0.00000  Uiso   1.00
C13    C     0.38108   0.67550   0.56552   0.00000  Uiso   1.00
C14    C     0.48379   0.88579   0.21148   0.00000  Uiso   1.00
C15    C     0.48956   0.80556   0.13620   0.00000  Uiso   1.00
C16    C     0.41875   0.79980   0.06462   0.00000  Uiso   1.00
C17    C     0.43781   0.72068   0.00278   0.00000  Uiso   1.00
C18    C     0.59413   0.94082   0.21322   0.00000  Uiso   1.00
C19    C     0.61123   0.04879   0.20641   0.00000  Uiso   1.00
C20    C     0.71832   0.08355   0.20943   0.00000  Uiso   1.00
C21    C     0.47716   0.82175   0.29698   0.00000  Uiso   1.00
C22    C     0.39593   0.82963   0.36062   0.00000  Uiso   1.00
C23    C     0.40455   0.76416   0.43418   0.00000  Uiso   1.00
H24    H     0.71111   0.70045   0.23633   0.00000  Uiso   1.00
H25    H     0.66268   0.60095   0.09131   0.00000  Uiso   1.00
H26    H     0.85512   0.84990   0.23309   0.00000  Uiso   1.00
H27    H     0.63985   0.63077   0.38727   0.00000  Uiso   1.00
H28    H     0.57073   0.52186   0.92632   0.00000  Uiso   1.00
H29    H     0.97652   0.04679   0.22531   0.00000  Uiso   1.00
H30    H     0.52258   0.58471   0.55043   0.00000  Uiso   1.00
H31    H     0.41623   0.94088   0.20409   0.00000  Uiso   1.00
H32    H     0.35160   0.85456   0.05729   0.00000  Uiso   1.00
H33    H     0.54406   0.10352   0.19908   0.00000  Uiso   1.00
H34    H     0.32879   0.88439   0.35326   0.00000  Uiso   1.00
H35    H     0.31826   0.72770   0.89871   0.00000  Uiso   1.00
H36    H     0.72405   0.25264   0.19770   0.00000  Uiso   1.00
H37    H     0.27011   0.79056   0.52282   0.00000  Uiso   1.00
O38    O     0.40732   0.56369   0.81651   0.00000  Uiso   1.00
O39    O     0.93970   0.25237   0.20879   0.00000  Uiso   1.00
O40    O     0.34415   0.64614   0.63534   0.00000  Uiso   1.00
N41    N     0.52017   0.58214   0.93998   0.00000  Uiso   1.00
N42    N     0.89955   0.07291   0.21950   0.00000  Uiso   1.00
N43    N     0.47518   0.64093   0.52347   0.00000  Uiso   1.00
N44    N     0.38431   0.69290   0.92512   0.00000  Uiso   1.00
N45    N     0.76370   0.18368   0.20464   0.00000  Uiso   1.00
N46    N     0.33932   0.75170   0.50862   0.00000  Uiso   1.00
C47    C     0.35645   0.24447   0.72895   0.00000  Uiso   1.00
C48    C     0.42366   0.26520   0.64568   0.00000  Uiso   1.00
C49    C     0.40449   0.34432   0.58395   0.00000  Uiso   1.00
C50    C     0.47526   0.35019   0.51229   0.00000  Uiso   1.00
C51    C     0.56639   0.39311   0.38442   0.00000  Uiso   1.00
C52    C     0.31910   0.12993   0.72271   0.00000  Uiso   1.00
C53    C     0.21201   0.09533   0.72574   0.00000  Uiso   1.00
C54    C     0.19475   0.98733   0.71893   0.00000  Uiso   1.00
C55    C     0.12355   0.82024   0.71071   0.00000  Uiso   1.00
C56    C     0.43606   0.24900   0.80647   0.00000  Uiso   1.00
C57    C     0.42731   0.31449   0.87995   0.00000  Uiso   1.00
C58    C     0.50852   0.30672   0.94368   0.00000  Uiso   1.00
C59    C     0.61892   0.32450   0.06552   0.00000  Uiso   1.00
C60    C     0.51621   0.11421   0.71148   0.00000  Uiso   1.00
C61    C     0.51044   0.19444   0.63620   0.00000  Uiso   1.00
C62    C     0.58125   0.20020   0.56462   0.00000  Uiso   1.00
C63    C     0.56219   0.27932   0.50278   0.00000  Uiso   1.00
C64    C     0.40587   0.05918   0.71322   0.00000  Uiso   1.00
C65    C     0.38877   0.95121   0.70641   0.00000  Uiso   1.00
C66    C     0.28168   0.91645   0.70943   0.00000  Uiso   1.00
C67    C     0.52284   0.17825   0.79698   0.00000  Uiso   1.00
C68    C     0.60407   0.17037   0.86062   0.00000  Uiso   1.00
C69    C     0.59545   0.23584   0.93418   0.00000  Uiso   1.00
H70    H     0.28889   0.29955   0.73633   0.00000  Uiso   1.00
H71    H     0.33732   0.39905   0.59131   0.00000  Uiso   1.00
H72    H     0.14488   0.15010   0.73309   0.00000  Uiso   1.00
H73    H     0.36015   0.36923   0.88727   0.00000  Uiso   1.00
H74    H     0.42927   0.47814   0.42632   0.00000  Uiso   1.00
H75    H     0.02348   0.95321   0.72531   0.00000  Uiso   1.00
H76    H     0.47742   0.41529   0.05043   0.00000  Uiso   1.00
H77    H     0.58377   0.05912   0.70409   0.00000  Uiso   1.00
H78    H     0.64840   0.14544   0.55729   0.00000  Uiso   1.00
H79    H     0.45594   0.89648   0.69908   0.00000  Uiso   1.00
H80    H     0.67121   0.11561   0.85326   0.00000  Uiso   1.00
H81    H     0.68174   0.27230   0.39871   0.00000  Uiso   1.00
H82    H     0.27595   0.74736   0.69770   0.00000  Uiso   1.00
H83    H     0.72989   0.20944   0.02282   0.00000  Uiso   1.00
O84    O     0.59268   0.43631   0.31651   0.00000  Uiso   1.00
O85    O     0.06030   0.74763   0.70879   0.00000  Uiso   1.00
O86    O     0.65585   0.35386   0.13534   0.00000  Uiso   1.00
N87    N     0.47983   0.41786   0.43998   0.00000  Uiso   1.00
N88    N     0.10045   0.92709   0.71950   0.00000  Uiso   1.00
N89    N     0.52482   0.35907   0.02347   0.00000  Uiso   1.00
N90    N     0.61569   0.30710   0.42512   0.00000  Uiso   1.00
N91    N     0.23630   0.81632   0.70464   0.00000  Uiso   1.00
N92    N     0.66068   0.24830   0.00862   0.00000  Uiso   1.00
C93    C     0.14355   0.74447   0.22895   0.00000  Uiso   1.00
C94    C     0.07634   0.76520   0.14568   0.00000  Uiso   1.00
C95    C     0.09551   0.84432   0.08395   0.00000  Uiso   1.00
C96    C     0.02474   0.85019   0.01229   0.00000  Uiso   1.00
C97    C     0.93361   0.89311   0.88442   0.00000  Uiso   1.00
C98    C     0.18090   0.62993   0.22271   0.00000  Uiso   1.00
C99    C     0.28799   0.59533   0.22574   0.00000  Uiso   1.00
C100   C     0.30525   0.48733   0.21893   0.00000  Uiso   1.00
C101   C     0.37645   0.32024   0.21071   0.00000  Uiso   1.00
C102   C     0.06394   0.74900   0.30647   0.00000  Uiso   1.00
C103   C     0.07269   0.81449   0.37995   0.00000  Uiso   1.00
C104   C     0.99148   0.80672   0.44368   0.00000  Uiso   1.00
C105   C     0.88108   0.82450   0.56552   0.00000  Uiso   1.00
C106   C     0.98379   0.61421   0.21148   0.00000  Uiso   1.00
C107   C     0.98956   0.69444   0.13620   0.00000  Uiso   1.00
C108   C     0.91875   0.70020   0.06462   0.00000  Uiso   1.00
C109   C     0.93781   0.77932   0.00278   0.00000  Uiso   1.00
C110   C     0.09413   0.55918   0.21322   0.00000  Uiso   1.00
C111   C     0.11123   0.45121   0.20641   0.00000  Uiso   1.00
C112   C     0.21832   0.41645   0.20943   0.00000  Uiso   1.00
C113   C     0.97716   0.67825   0.29698   0.00000  Uiso   1.00
C114   C     0.89593   0.67037   0.36062   0.00000  Uiso   1.00
C115   C     0.90455   0.73584   0.43418   0.00000  Uiso   1.00
H116   H     0.21111   0.79955   0.23633   0.00000  Uiso   1.00
H117   H     0.16268   0.89905   0.09131   0.00000  Uiso   1.00
H118   H     0.35512   0.65010   0.23309   0.00000  Uiso   1.00
H119   H     0.13985   0.86923   0.38727   0.00000  Uiso   1.00
H120   H     0.07073   0.97814   0.92632   0.00000  Uiso   1.00
H121   H     0.47652   0.45321   0.22531   0.00000  Uiso   1.00
H122   H     0.02258   0.91529   0.55043   0.00000  Uiso   1.00
H123   H     0.91623   0.55912   0.20409   0.00000  Uiso   1.00
H124   H     0.85160   0.64544   0.05729   0.00000  Uiso   1.00
H125   H     0.04406   0.39648   0.19908   0.00000  Uiso   1.00
H126   H     0.82879   0.61561   0.35326   0.00000  Uiso   1.00
H127   H     0.81826   0.77230   0.89871   0.00000  Uiso   1.00
H128   H     0.22405   0.24736   0.19770   0.00000  Uiso   1.00
H129   H     0.77011   0.70944   0.52282   0.00000  Uiso   1.00
O130   O     0.90732   0.93631   0.81651   0.00000  Uiso   1.00
O131   O     0.43970   0.24763   0.20879   0.00000  Uiso   1.00
O132   O     0.84415   0.85386   0.63534   0.00000  Uiso   1.00
N133   N     0.02017   0.91786   0.93998   0.00000  Uiso   1.00
N134   N     0.39955   0.42709   0.21950   0.00000  Uiso   1.00
N135   N     0.97518   0.85907   0.52347   0.00000  Uiso   1.00
N136   N     0.88431   0.80710   0.92512   0.00000  Uiso   1.00
N137   N     0.26370   0.31632   0.20464   0.00000  Uiso   1.00
N138   N     0.83932   0.74830   0.50862   0.00000  Uiso   1.00
C139   C     0.85645   0.25553   0.72895   0.00000  Uiso   1.00
C140   C     0.92366   0.23480   0.64568   0.00000  Uiso   1.00
C141   C     0.90449   0.15568   0.58395   0.00000  Uiso   1.00
C142   C     0.97526   0.14981   0.51229   0.00000  Uiso   1.00
C143   C     0.06639   0.10689   0.38442   0.00000  Uiso   1.00
C144   C     0.81910   0.37007   0.72271   0.00000  Uiso   1.00
C145   C     0.71201   0.40467   0.72574   0.00000  Uiso   1.00
C146   C     0.69475   0.51267   0.71893   0.00000  Uiso   1.00
C147   C     0.62355   0.67976   0.71071   0.00000  Uiso   1.00
C148   C     0.93606   0.25100   0.80647   0.00000  Uiso   1.00
C149   C     0.92731   0.18551   0.87995   0.00000  Uiso   1.00
C150   C     0.00852   0.19328   0.94368   0.00000  Uiso   1.00
C151   C     0.11892   0.17550   0.06552   0.00000  Uiso   1.00
C152   C     0.01621   0.38579   0.71148   0.00000  Uiso   1.00
C153   C     0.01044   0.30556   0.63620   0.00000  Uiso   1.00
C154   C     0.08125   0.29980   0.56462   0.00000  Uiso   1.00
C155   C     0.06219   0.22068   0.50278   0.00000  Uiso   1.00
C156   C     0.90587   0.44082   0.71322   0.00000  Uiso   1.00
C157   C     0.88877   0.54879   0.70641   0.00000  Uiso   1.00
C158   C     0.78168   0.58355   0.70943   0.00000  Uiso   1.00
C159   C     0.02284   0.32175   0.79698   0.00000  Uiso   1.00
C160   C     0.10407   0.32963   0.86062   0.00000  Uiso   1.00
C161   C     0.09545   0.26416   0.93418   0.00000  Uiso   1.00
H162   H     0.78889   0.20045   0.73633   0.00000  Uiso   1.00
H163   H     0.83732   0.10095   0.59131   0.00000  Uiso   1.00
H164   H     0.64488   0.34990   0.73309   0.00000  Uiso   1.00
H165   H     0.86015   0.13077   0.88727   0.00000  Uiso   1.00
H166   H     0.92927   0.02186   0.42632   0.00000  Uiso   1.00
H167   H     0.52348   0.54679   0.72531   0.00000  Uiso   1.00
H168   H     0.97742   0.08471   0.05043   0.00000  Uiso   1.00
H169   H     0.08377   0.44088   0.70409   0.00000  Uiso   1.00
H170   H     0.14840   0.35456   0.55729   0.00000  Uiso   1.00
H171   H     0.95594   0.60352   0.69908   0.00000  Uiso   1.00
H172   H     0.17121   0.38439   0.85326   0.00000  Uiso   1.00
H173   H     0.18174   0.22770   0.39871   0.00000  Uiso   1.00
H174   H     0.77595   0.75264   0.69770   0.00000  Uiso   1.00
H175   H     0.22989   0.29056   0.02282   0.00000  Uiso   1.00
O176   O     0.09268   0.06369   0.31651   0.00000  Uiso   1.00
O177   O     0.56030   0.75237   0.70879   0.00000  Uiso   1.00
O178   O     0.15585   0.14614   0.13534   0.00000  Uiso   1.00
N179   N     0.97983   0.08214   0.43998   0.00000  Uiso   1.00
N180   N     0.60045   0.57291   0.71950   0.00000  Uiso   1.00
N181   N     0.02482   0.14093   0.02347   0.00000  Uiso   1.00
N182   N     0.11569   0.19290   0.42512   0.00000  Uiso   1.00
N183   N     0.73630   0.68368   0.70464   0.00000  Uiso   1.00
N184   N     0.16068   0.25170   0.00862   0.00000  Uiso   1.00
