data_job_03549
_audit_creation_date              2018-12-19
_audit_creation_method            'Materials Studio'
_symmetry_space_group_name_H-M    'P1'
_symmetry_Int_Tables_number       1
_symmetry_cell_setting            triclinic
loop_
_symmetry_equiv_pos_as_xyz
  x,y,z
_cell_length_a                    23.7232
_cell_length_b                    7.9518
_cell_length_c                    37.4538
_cell_angle_alpha                 90.0000
_cell_angle_beta                  47.5782
_cell_angle_gamma                 90.0000
loop_
_atom_site_label
_atom_site_type_symbol
_atom_site_fract_x
_atom_site_fract_y
_atom_site_fract_z
_atom_site_U_iso_or_equiv
_atom_site_adp_type
_atom_site_occupancy
C1     C     0.28632   0.89007   0.60372   0.00000  Uiso   1.00
C2     C     0.28557   0.01601   0.63474   0.00000  Uiso   1.00
C3     C     0.32351   0.99764   0.65083   0.00000  Uiso   1.00
C4     C     0.31563   0.12695   0.67883   0.00000  Uiso   1.00
C5     C     0.32116   0.30079   0.72528   0.00000  Uiso   1.00
C6     C     0.20294   0.84742   0.63188   0.00000  Uiso   1.00
C7     C     0.17141   0.68729   0.64554   0.00000  Uiso   1.00
C8     C     0.09398   0.67468   0.67112   0.00000  Uiso   1.00
C9     C     0.97124   0.58676   0.71308   0.00000  Uiso   1.00
C10    C     0.31462   0.98654   0.55902   0.00000  Uiso   1.00
C11    C     0.37699   0.94337   0.51143   0.00000  Uiso   1.00
C12    C     0.39357   0.04786   0.47567   0.00000  Uiso   1.00
C13    C     0.44424   0.17595   0.40452   0.00000  Uiso   1.00
C14    C     0.20486   0.15238   0.62484   0.00000  Uiso   1.00
C15    C     0.24132   0.15848   0.64622   0.00000  Uiso   1.00
C16    C     0.23339   0.28786   0.67420   0.00000  Uiso   1.00
C17    C     0.27131   0.26968   0.69032   0.00000  Uiso   1.00
C18    C     0.15870   0.98989   0.64335   0.00000  Uiso   1.00
C19    C     0.08130   0.97750   0.66891   0.00000  Uiso   1.00
C20    C     0.04966   0.81741   0.68262   0.00000  Uiso   1.00
C21    C     0.27038   0.12902   0.57050   0.00000  Uiso   1.00
C22    C     0.28687   0.23359   0.53480   0.00000  Uiso   1.00
C23    C     0.34925   0.19059   0.48717   0.00000  Uiso   1.00
H24    H     0.32075   0.77915   0.59479   0.00000  Uiso   1.00
H25    H     0.35773   0.88736   0.64195   0.00000  Uiso   1.00
H26    H     0.20566   0.57706   0.63665   0.00000  Uiso   1.00
H27    H     0.41121   0.83310   0.50257   0.00000  Uiso   1.00
H28    H     0.37920   0.07013   0.69930   0.00000  Uiso   1.00
H29    H     0.05855   0.41585   0.68813   0.00000  Uiso   1.00
H30    H     0.49198   0.95576   0.40538   0.00000  Uiso   1.00
H31    H     0.17042   0.26331   0.63378   0.00000  Uiso   1.00
H32    H     0.19915   0.39810   0.68307   0.00000  Uiso   1.00
H33    H     0.04708   0.08779   0.67778   0.00000  Uiso   1.00
H34    H     0.25262   0.34383   0.54370   0.00000  Uiso   1.00
H35    H     0.25048   0.48466   0.73269   0.00000  Uiso   1.00
H36    H     0.92984   0.83037   0.72151   0.00000  Uiso   1.00
H37    H     0.36327   0.37029   0.43876   0.00000  Uiso   1.00
O38    O     0.33643   0.35730   0.74773   0.00000  Uiso   1.00
O39    O     0.91577   0.49890   0.73306   0.00000  Uiso   1.00
O40    O     0.48442   0.20725   0.36211   0.00000  Uiso   1.00
N41    N     0.34497   0.14921   0.70038   0.00000  Uiso   1.00
N42    N     0.04519   0.53749   0.68994   0.00000  Uiso   1.00
N43    N     0.45040   0.04224   0.42560   0.00000  Uiso   1.00
N44    N     0.27571   0.37227   0.71835   0.00000  Uiso   1.00
N45    N     0.97593   0.76055   0.70791   0.00000  Uiso   1.00
N46    N     0.38114   0.26529   0.44356   0.00000  Uiso   1.00
C47    C     0.78632   0.39007   0.60372   0.00000  Uiso   1.00
C48    C     0.78557   0.51601   0.63474   0.00000  Uiso   1.00
C49    C     0.82351   0.49764   0.65083   0.00000  Uiso   1.00
C50    C     0.81563   0.62695   0.67883   0.00000  Uiso   1.00
C51    C     0.82116   0.80079   0.72528   0.00000  Uiso   1.00
C52    C     0.70294   0.34742   0.63188   0.00000  Uiso   1.00
C53    C     0.67141   0.18729   0.64554   0.00000  Uiso   1.00
C54    C     0.59398   0.17468   0.67112   0.00000  Uiso   1.00
C55    C     0.47124   0.08676   0.71308   0.00000  Uiso   1.00
C56    C     0.81462   0.48654   0.55902   0.00000  Uiso   1.00
C57    C     0.87699   0.44337   0.51143   0.00000  Uiso   1.00
C58    C     0.89357   0.54786   0.47567   0.00000  Uiso   1.00
C59    C     0.94424   0.67595   0.40452   0.00000  Uiso   1.00
C60    C     0.70486   0.65238   0.62484   0.00000  Uiso   1.00
C61    C     0.74132   0.65848   0.64622   0.00000  Uiso   1.00
C62    C     0.73339   0.78786   0.67420   0.00000  Uiso   1.00
C63    C     0.77131   0.76968   0.69032   0.00000  Uiso   1.00
C64    C     0.65870   0.48989   0.64335   0.00000  Uiso   1.00
C65    C     0.58130   0.47750   0.66891   0.00000  Uiso   1.00
C66    C     0.54966   0.31741   0.68262   0.00000  Uiso   1.00
C67    C     0.77038   0.62902   0.57050   0.00000  Uiso   1.00
C68    C     0.78687   0.73359   0.53480   0.00000  Uiso   1.00
C69    C     0.84925   0.69059   0.48717   0.00000  Uiso   1.00
H70    H     0.82075   0.27915   0.59479   0.00000  Uiso   1.00
H71    H     0.85773   0.38736   0.64195   0.00000  Uiso   1.00
H72    H     0.70566   0.07706   0.63665   0.00000  Uiso   1.00
H73    H     0.91121   0.33310   0.50257   0.00000  Uiso   1.00
H74    H     0.87920   0.57013   0.69930   0.00000  Uiso   1.00
H75    H     0.55855   0.91585   0.68813   0.00000  Uiso   1.00
H76    H     0.99198   0.45576   0.40538   0.00000  Uiso   1.00
H77    H     0.67042   0.76331   0.63378   0.00000  Uiso   1.00
H78    H     0.69915   0.89810   0.68307   0.00000  Uiso   1.00
H79    H     0.54708   0.58779   0.67778   0.00000  Uiso   1.00
H80    H     0.75262   0.84383   0.54370   0.00000  Uiso   1.00
H81    H     0.75048   0.98466   0.73269   0.00000  Uiso   1.00
H82    H     0.42984   0.33037   0.72151   0.00000  Uiso   1.00
H83    H     0.86327   0.87029   0.43876   0.00000  Uiso   1.00
O84    O     0.83643   0.85730   0.74773   0.00000  Uiso   1.00
O85    O     0.41577   0.99890   0.73306   0.00000  Uiso   1.00
O86    O     0.98442   0.70725   0.36211   0.00000  Uiso   1.00
N87    N     0.84497   0.64921   0.70038   0.00000  Uiso   1.00
N88    N     0.54519   0.03749   0.68994   0.00000  Uiso   1.00
N89    N     0.95040   0.54224   0.42560   0.00000  Uiso   1.00
N90    N     0.77571   0.87227   0.71835   0.00000  Uiso   1.00
N91    N     0.47593   0.26055   0.70791   0.00000  Uiso   1.00
N92    N     0.88114   0.76529   0.44356   0.00000  Uiso   1.00
C93    C     0.71368   0.89007   0.89628   0.00000  Uiso   1.00
C94    C     0.71443   0.01601   0.86526   0.00000  Uiso   1.00
C95    C     0.67649   0.99764   0.84917   0.00000  Uiso   1.00
C96    C     0.68437   0.12695   0.82117   0.00000  Uiso   1.00
C97    C     0.67884   0.30079   0.77472   0.00000  Uiso   1.00
C98    C     0.79706   0.84742   0.86812   0.00000  Uiso   1.00
C99    C     0.82859   0.68729   0.85446   0.00000  Uiso   1.00
C100   C     0.90602   0.67468   0.82888   0.00000  Uiso   1.00
C101   C     0.02876   0.58676   0.78692   0.00000  Uiso   1.00
C102   C     0.68538   0.98654   0.94098   0.00000  Uiso   1.00
C103   C     0.62301   0.94337   0.98857   0.00000  Uiso   1.00
C104   C     0.60643   0.04786   0.02433   0.00000  Uiso   1.00
C105   C     0.55576   0.17595   0.09548   0.00000  Uiso   1.00
C106   C     0.79514   0.15238   0.87516   0.00000  Uiso   1.00
C107   C     0.75868   0.15848   0.85378   0.00000  Uiso   1.00
C108   C     0.76661   0.28786   0.82580   0.00000  Uiso   1.00
C109   C     0.72869   0.26968   0.80968   0.00000  Uiso   1.00
C110   C     0.84130   0.98989   0.85665   0.00000  Uiso   1.00
C111   C     0.91870   0.97750   0.83109   0.00000  Uiso   1.00
C112   C     0.95034   0.81741   0.81738   0.00000  Uiso   1.00
C113   C     0.72962   0.12902   0.92950   0.00000  Uiso   1.00
C114   C     0.71313   0.23359   0.96520   0.00000  Uiso   1.00
C115   C     0.65075   0.19059   0.01283   0.00000  Uiso   1.00
H116   H     0.67925   0.77915   0.90521   0.00000  Uiso   1.00
H117   H     0.64227   0.88736   0.85805   0.00000  Uiso   1.00
H118   H     0.79434   0.57706   0.86335   0.00000  Uiso   1.00
H119   H     0.58879   0.83310   0.99743   0.00000  Uiso   1.00
H120   H     0.62080   0.07013   0.80070   0.00000  Uiso   1.00
H121   H     0.94145   0.41585   0.81187   0.00000  Uiso   1.00
H122   H     0.50802   0.95576   0.09462   0.00000  Uiso   1.00
H123   H     0.82958   0.26331   0.86622   0.00000  Uiso   1.00
H124   H     0.80085   0.39810   0.81693   0.00000  Uiso   1.00
H125   H     0.95292   0.08779   0.82222   0.00000  Uiso   1.00
H126   H     0.74738   0.34383   0.95630   0.00000  Uiso   1.00
H127   H     0.74952   0.48466   0.76731   0.00000  Uiso   1.00
H128   H     0.07016   0.83037   0.77849   0.00000  Uiso   1.00
H129   H     0.63673   0.37029   0.06124   0.00000  Uiso   1.00
O130   O     0.66357   0.35730   0.75227   0.00000  Uiso   1.00
O131   O     0.08423   0.49890   0.76694   0.00000  Uiso   1.00
O132   O     0.51558   0.20725   0.13789   0.00000  Uiso   1.00
N133   N     0.65503   0.14921   0.79962   0.00000  Uiso   1.00
N134   N     0.95481   0.53749   0.81006   0.00000  Uiso   1.00
N135   N     0.54960   0.04224   0.07440   0.00000  Uiso   1.00
N136   N     0.72429   0.37227   0.78165   0.00000  Uiso   1.00
N137   N     0.02407   0.76055   0.79209   0.00000  Uiso   1.00
N138   N     0.61886   0.26529   0.05644   0.00000  Uiso   1.00
C139   C     0.21368   0.39007   0.89628   0.00000  Uiso   1.00
C140   C     0.21443   0.51601   0.86526   0.00000  Uiso   1.00
C141   C     0.17649   0.49764   0.84917   0.00000  Uiso   1.00
C142   C     0.18437   0.62695   0.82117   0.00000  Uiso   1.00
C143   C     0.17884   0.80079   0.77472   0.00000  Uiso   1.00
C144   C     0.29706   0.34742   0.86812   0.00000  Uiso   1.00
C145   C     0.32859   0.18729   0.85446   0.00000  Uiso   1.00
C146   C     0.40602   0.17468   0.82888   0.00000  Uiso   1.00
C147   C     0.52876   0.08676   0.78692   0.00000  Uiso   1.00
C148   C     0.18538   0.48654   0.94098   0.00000  Uiso   1.00
C149   C     0.12301   0.44337   0.98857   0.00000  Uiso   1.00
C150   C     0.10643   0.54786   0.02433   0.00000  Uiso   1.00
C151   C     0.05576   0.67595   0.09548   0.00000  Uiso   1.00
C152   C     0.29514   0.65238   0.87516   0.00000  Uiso   1.00
C153   C     0.25868   0.65848   0.85378   0.00000  Uiso   1.00
C154   C     0.26661   0.78786   0.82580   0.00000  Uiso   1.00
C155   C     0.22869   0.76968   0.80968   0.00000  Uiso   1.00
C156   C     0.34130   0.48989   0.85665   0.00000  Uiso   1.00
C157   C     0.41870   0.47750   0.83109   0.00000  Uiso   1.00
C158   C     0.45034   0.31741   0.81738   0.00000  Uiso   1.00
C159   C     0.22962   0.62902   0.92950   0.00000  Uiso   1.00
C160   C     0.21313   0.73359   0.96520   0.00000  Uiso   1.00
C161   C     0.15075   0.69059   0.01283   0.00000  Uiso   1.00
H162   H     0.17925   0.27915   0.90521   0.00000  Uiso   1.00
H163   H     0.14227   0.38736   0.85805   0.00000  Uiso   1.00
H164   H     0.29434   0.07706   0.86335   0.00000  Uiso   1.00
H165   H     0.08879   0.33310   0.99743   0.00000  Uiso   1.00
H166   H     0.12080   0.57013   0.80070   0.00000  Uiso   1.00
H167   H     0.44145   0.91585   0.81187   0.00000  Uiso   1.00
H168   H     0.00802   0.45576   0.09462   0.00000  Uiso   1.00
H169   H     0.32958   0.76331   0.86622   0.00000  Uiso   1.00
H170   H     0.30085   0.89810   0.81693   0.00000  Uiso   1.00
H171   H     0.45292   0.58779   0.82222   0.00000  Uiso   1.00
H172   H     0.24738   0.84383   0.95630   0.00000  Uiso   1.00
H173   H     0.24952   0.98466   0.76731   0.00000  Uiso   1.00
H174   H     0.57016   0.33037   0.77849   0.00000  Uiso   1.00
H175   H     0.13673   0.87029   0.06124   0.00000  Uiso   1.00
O176   O     0.16357   0.85730   0.75227   0.00000  Uiso   1.00
O177   O     0.58423   0.99890   0.76694   0.00000  Uiso   1.00
O178   O     0.01558   0.70725   0.13789   0.00000  Uiso   1.00
N179   N     0.15503   0.64921   0.79962   0.00000  Uiso   1.00
N180   N     0.45481   0.03749   0.81006   0.00000  Uiso   1.00
N181   N     0.04960   0.54224   0.07440   0.00000  Uiso   1.00
N182   N     0.22429   0.87227   0.78165   0.00000  Uiso   1.00
N183   N     0.52407   0.26055   0.79209   0.00000  Uiso   1.00
N184   N     0.11886   0.76529   0.05644   0.00000  Uiso   1.00
C185   C     0.71368   0.10993   0.39628   0.00000  Uiso   1.00
C186   C     0.71443   0.98399   0.36526   0.00000  Uiso   1.00
C187   C     0.67649   0.00236   0.34917   0.00000  Uiso   1.00
C188   C     0.68437   0.87305   0.32117   0.00000  Uiso   1.00
C189   C     0.67884   0.69921   0.27472   0.00000  Uiso   1.00
C190   C     0.79706   0.15258   0.36812   0.00000  Uiso   1.00
C191   C     0.82859   0.31271   0.35446   0.00000  Uiso   1.00
C192   C     0.90602   0.32532   0.32888   0.00000  Uiso   1.00
C193   C     0.02876   0.41324   0.28692   0.00000  Uiso   1.00
C194   C     0.68538   0.01346   0.44098   0.00000  Uiso   1.00
C195   C     0.62301   0.05663   0.48857   0.00000  Uiso   1.00
C196   C     0.60643   0.95214   0.52433   0.00000  Uiso   1.00
C197   C     0.55576   0.82405   0.59548   0.00000  Uiso   1.00
C198   C     0.79514   0.84762   0.37516   0.00000  Uiso   1.00
C199   C     0.75868   0.84152   0.35378   0.00000  Uiso   1.00
C200   C     0.76661   0.71214   0.32580   0.00000  Uiso   1.00
C201   C     0.72869   0.73032   0.30968   0.00000  Uiso   1.00
C202   C     0.84130   0.01011   0.35665   0.00000  Uiso   1.00
C203   C     0.91870   0.02250   0.33109   0.00000  Uiso   1.00
C204   C     0.95034   0.18259   0.31738   0.00000  Uiso   1.00
C205   C     0.72962   0.87098   0.42950   0.00000  Uiso   1.00
C206   C     0.71313   0.76641   0.46520   0.00000  Uiso   1.00
C207   C     0.65075   0.80941   0.51283   0.00000  Uiso   1.00
H208   H     0.67925   0.22085   0.40521   0.00000  Uiso   1.00
H209   H     0.64227   0.11264   0.35805   0.00000  Uiso   1.00
H210   H     0.79434   0.42294   0.36335   0.00000  Uiso   1.00
H211   H     0.58879   0.16690   0.49743   0.00000  Uiso   1.00
H212   H     0.62080   0.92987   0.30070   0.00000  Uiso   1.00
H213   H     0.94145   0.58415   0.31187   0.00000  Uiso   1.00
H214   H     0.50802   0.04424   0.59462   0.00000  Uiso   1.00
H215   H     0.82958   0.73669   0.36622   0.00000  Uiso   1.00
H216   H     0.80085   0.60190   0.31693   0.00000  Uiso   1.00
H217   H     0.95292   0.91221   0.32222   0.00000  Uiso   1.00
H218   H     0.74738   0.65617   0.45630   0.00000  Uiso   1.00
H219   H     0.74952   0.51534   0.26731   0.00000  Uiso   1.00
H220   H     0.07016   0.16963   0.27849   0.00000  Uiso   1.00
H221   H     0.63673   0.62971   0.56124   0.00000  Uiso   1.00
O222   O     0.66357   0.64270   0.25227   0.00000  Uiso   1.00
O223   O     0.08423   0.50110   0.26694   0.00000  Uiso   1.00
O224   O     0.51558   0.79275   0.63789   0.00000  Uiso   1.00
N225   N     0.65503   0.85079   0.29962   0.00000  Uiso   1.00
N226   N     0.95481   0.46251   0.31006   0.00000  Uiso   1.00
N227   N     0.54960   0.95776   0.57440   0.00000  Uiso   1.00
N228   N     0.72429   0.62773   0.28165   0.00000  Uiso   1.00
N229   N     0.02407   0.23945   0.29209   0.00000  Uiso   1.00
N230   N     0.61886   0.73471   0.55644   0.00000  Uiso   1.00
C231   C     0.21368   0.60993   0.39628   0.00000  Uiso   1.00
C232   C     0.21443   0.48399   0.36526   0.00000  Uiso   1.00
C233   C     0.17649   0.50236   0.34917   0.00000  Uiso   1.00
C234   C     0.18437   0.37305   0.32117   0.00000  Uiso   1.00
C235   C     0.17884   0.19921   0.27472   0.00000  Uiso   1.00
C236   C     0.29706   0.65258   0.36812   0.00000  Uiso   1.00
C237   C     0.32859   0.81271   0.35446   0.00000  Uiso   1.00
C238   C     0.40602   0.82532   0.32888   0.00000  Uiso   1.00
C239   C     0.52876   0.91324   0.28692   0.00000  Uiso   1.00
C240   C     0.18538   0.51346   0.44098   0.00000  Uiso   1.00
C241   C     0.12301   0.55663   0.48857   0.00000  Uiso   1.00
C242   C     0.10643   0.45214   0.52433   0.00000  Uiso   1.00
C243   C     0.05576   0.32405   0.59548   0.00000  Uiso   1.00
C244   C     0.29514   0.34762   0.37516   0.00000  Uiso   1.00
C245   C     0.25868   0.34152   0.35378   0.00000  Uiso   1.00
C246   C     0.26661   0.21214   0.32580   0.00000  Uiso   1.00
C247   C     0.22869   0.23032   0.30968   0.00000  Uiso   1.00
C248   C     0.34130   0.51011   0.35665   0.00000  Uiso   1.00
C249   C     0.41870   0.52250   0.33109   0.00000  Uiso   1.00
C250   C     0.45034   0.68259   0.31738   0.00000  Uiso   1.00
C251   C     0.22962   0.37098   0.42950   0.00000  Uiso   1.00
C252   C     0.21313   0.26641   0.46520   0.00000  Uiso   1.00
C253   C     0.15075   0.30941   0.51283   0.00000  Uiso   1.00
H254   H     0.17925   0.72085   0.40521   0.00000  Uiso   1.00
H255   H     0.14227   0.61264   0.35805   0.00000  Uiso   1.00
H256   H     0.29434   0.92294   0.36335   0.00000  Uiso   1.00
H257   H     0.08879   0.66690   0.49743   0.00000  Uiso   1.00
H258   H     0.12080   0.42987   0.30070   0.00000  Uiso   1.00
H259   H     0.44145   0.08415   0.31187   0.00000  Uiso   1.00
H260   H     0.00802   0.54424   0.59462   0.00000  Uiso   1.00
H261   H     0.32958   0.23669   0.36622   0.00000  Uiso   1.00
H262   H     0.30085   0.10190   0.31693   0.00000  Uiso   1.00
H263   H     0.45292   0.41221   0.32222   0.00000  Uiso   1.00
H264   H     0.24738   0.15617   0.45630   0.00000  Uiso   1.00
H265   H     0.24952   0.01534   0.26731   0.00000  Uiso   1.00
H266   H     0.57016   0.66963   0.27849   0.00000  Uiso   1.00
H267   H     0.13673   0.12971   0.56124   0.00000  Uiso   1.00
O268   O     0.16357   0.14270   0.25227   0.00000  Uiso   1.00
O269   O     0.58423   0.00110   0.26694   0.00000  Uiso   1.00
O270   O     0.01558   0.29275   0.63789   0.00000  Uiso   1.00
N271   N     0.15503   0.35079   0.29962   0.00000  Uiso   1.00
N272   N     0.45481   0.96251   0.31006   0.00000  Uiso   1.00
N273   N     0.04960   0.45776   0.57440   0.00000  Uiso   1.00
N274   N     0.22429   0.12773   0.28165   0.00000  Uiso   1.00
N275   N     0.52407   0.73945   0.29209   0.00000  Uiso   1.00
N276   N     0.11886   0.23471   0.55644   0.00000  Uiso   1.00
C277   C     0.28632   0.10993   0.10372   0.00000  Uiso   1.00
C278   C     0.28557   0.98399   0.13474   0.00000  Uiso   1.00
C279   C     0.32351   0.00236   0.15083   0.00000  Uiso   1.00
C280   C     0.31563   0.87305   0.17883   0.00000  Uiso   1.00
C281   C     0.32116   0.69921   0.22528   0.00000  Uiso   1.00
C282   C     0.20294   0.15258   0.13188   0.00000  Uiso   1.00
C283   C     0.17141   0.31271   0.14554   0.00000  Uiso   1.00
C284   C     0.09398   0.32532   0.17112   0.00000  Uiso   1.00
C285   C     0.97124   0.41324   0.21308   0.00000  Uiso   1.00
C286   C     0.31462   0.01346   0.05902   0.00000  Uiso   1.00
C287   C     0.37699   0.05663   0.01143   0.00000  Uiso   1.00
C288   C     0.39357   0.95214   0.97567   0.00000  Uiso   1.00
C289   C     0.44424   0.82405   0.90452   0.00000  Uiso   1.00
C290   C     0.20486   0.84762   0.12484   0.00000  Uiso   1.00
C291   C     0.24132   0.84152   0.14622   0.00000  Uiso   1.00
C292   C     0.23339   0.71214   0.17420   0.00000  Uiso   1.00
C293   C     0.27131   0.73032   0.19032   0.00000  Uiso   1.00
C294   C     0.15870   0.01011   0.14335   0.00000  Uiso   1.00
C295   C     0.08130   0.02250   0.16891   0.00000  Uiso   1.00
C296   C     0.04966   0.18259   0.18262   0.00000  Uiso   1.00
C297   C     0.27038   0.87098   0.07050   0.00000  Uiso   1.00
C298   C     0.28687   0.76641   0.03480   0.00000  Uiso   1.00
C299   C     0.34925   0.80941   0.98717   0.00000  Uiso   1.00
H300   H     0.32075   0.22085   0.09479   0.00000  Uiso   1.00
H301   H     0.35773   0.11264   0.14195   0.00000  Uiso   1.00
H302   H     0.20566   0.42294   0.13665   0.00000  Uiso   1.00
H303   H     0.41121   0.16690   0.00257   0.00000  Uiso   1.00
H304   H     0.37920   0.92987   0.19930   0.00000  Uiso   1.00
H305   H     0.05855   0.58415   0.18813   0.00000  Uiso   1.00
H306   H     0.49198   0.04424   0.90538   0.00000  Uiso   1.00
H307   H     0.17042   0.73669   0.13378   0.00000  Uiso   1.00
H308   H     0.19915   0.60190   0.18307   0.00000  Uiso   1.00
H309   H     0.04708   0.91221   0.17778   0.00000  Uiso   1.00
H310   H     0.25262   0.65617   0.04370   0.00000  Uiso   1.00
H311   H     0.25048   0.51534   0.23269   0.00000  Uiso   1.00
H312   H     0.92984   0.16963   0.22151   0.00000  Uiso   1.00
H313   H     0.36327   0.62971   0.93876   0.00000  Uiso   1.00
O314   O     0.33643   0.64270   0.24773   0.00000  Uiso   1.00
O315   O     0.91577   0.50110   0.23306   0.00000  Uiso   1.00
O316   O     0.48442   0.79275   0.86211   0.00000  Uiso   1.00
N317   N     0.34497   0.85079   0.20038   0.00000  Uiso   1.00
N318   N     0.04519   0.46251   0.18994   0.00000  Uiso   1.00
N319   N     0.45040   0.95776   0.92560   0.00000  Uiso   1.00
N320   N     0.27571   0.62773   0.21835   0.00000  Uiso   1.00
N321   N     0.97593   0.23945   0.20791   0.00000  Uiso   1.00
N322   N     0.38114   0.73471   0.94356   0.00000  Uiso   1.00
C323   C     0.78632   0.60993   0.10372   0.00000  Uiso   1.00
C324   C     0.78557   0.48399   0.13474   0.00000  Uiso   1.00
C325   C     0.82351   0.50236   0.15083   0.00000  Uiso   1.00
C326   C     0.81563   0.37305   0.17883   0.00000  Uiso   1.00
C327   C     0.82116   0.19921   0.22528   0.00000  Uiso   1.00
C328   C     0.70294   0.65258   0.13188   0.00000  Uiso   1.00
C329   C     0.67141   0.81271   0.14554   0.00000  Uiso   1.00
C330   C     0.59398   0.82532   0.17112   0.00000  Uiso   1.00
C331   C     0.47124   0.91324   0.21308   0.00000  Uiso   1.00
C332   C     0.81462   0.51346   0.05902   0.00000  Uiso   1.00
C333   C     0.87699   0.55663   0.01143   0.00000  Uiso   1.00
C334   C     0.89357   0.45214   0.97567   0.00000  Uiso   1.00
C335   C     0.94424   0.32405   0.90452   0.00000  Uiso   1.00
C336   C     0.70486   0.34762   0.12484   0.00000  Uiso   1.00
C337   C     0.74132   0.34152   0.14622   0.00000  Uiso   1.00
C338   C     0.73339   0.21214   0.17420   0.00000  Uiso   1.00
C339   C     0.77131   0.23032   0.19032   0.00000  Uiso   1.00
C340   C     0.65870   0.51011   0.14335   0.00000  Uiso   1.00
C341   C     0.58130   0.52250   0.16891   0.00000  Uiso   1.00
C342   C     0.54966   0.68259   0.18262   0.00000  Uiso   1.00
C343   C     0.77038   0.37098   0.07050   0.00000  Uiso   1.00
C344   C     0.78687   0.26641   0.03480   0.00000  Uiso   1.00
C345   C     0.84925   0.30941   0.98717   0.00000  Uiso   1.00
H346   H     0.82075   0.72085   0.09479   0.00000  Uiso   1.00
H347   H     0.85773   0.61264   0.14195   0.00000  Uiso   1.00
H348   H     0.70566   0.92294   0.13665   0.00000  Uiso   1.00
H349   H     0.91121   0.66690   0.00257   0.00000  Uiso   1.00
H350   H     0.87920   0.42987   0.19930   0.00000  Uiso   1.00
H351   H     0.55855   0.08415   0.18813   0.00000  Uiso   1.00
H352   H     0.99198   0.54424   0.90538   0.00000  Uiso   1.00
H353   H     0.67042   0.23669   0.13378   0.00000  Uiso   1.00
H354   H     0.69915   0.10190   0.18307   0.00000  Uiso   1.00
H355   H     0.54708   0.41221   0.17778   0.00000  Uiso   1.00
H356   H     0.75262   0.15617   0.04370   0.00000  Uiso   1.00
H357   H     0.75048   0.01534   0.23269   0.00000  Uiso   1.00
H358   H     0.42984   0.66963   0.22151   0.00000  Uiso   1.00
H359   H     0.86327   0.12971   0.93876   0.00000  Uiso   1.00
O360   O     0.83643   0.14270   0.24773   0.00000  Uiso   1.00
O361   O     0.41577   0.00110   0.23306   0.00000  Uiso   1.00
O362   O     0.98442   0.29275   0.86211   0.00000  Uiso   1.00
N363   N     0.84497   0.35079   0.20038   0.00000  Uiso   1.00
N364   N     0.54519   0.96251   0.18994   0.00000  Uiso   1.00
N365   N     0.95040   0.45776   0.92560   0.00000  Uiso   1.00
N366   N     0.77571   0.12773   0.21835   0.00000  Uiso   1.00
N367   N     0.47593   0.73945   0.20791   0.00000  Uiso   1.00
N368   N     0.88114   0.23471   0.94356   0.00000  Uiso   1.00
