data_job_00657
_audit_creation_date              2018-12-19
_audit_creation_method            'Materials Studio'
_symmetry_space_group_name_H-M    'P1'
_symmetry_Int_Tables_number       1
_symmetry_cell_setting            triclinic
loop_
_symmetry_equiv_pos_as_xyz
  x,y,z
_cell_length_a                    19.2968
_cell_length_b                    21.8686
_cell_length_c                    11.8142
_cell_angle_alpha                 90.0000
_cell_angle_beta                  90.0000
_cell_angle_gamma                 90.0000
loop_
_atom_site_label
_atom_site_type_symbol
_atom_site_fract_x
_atom_site_fract_y
_atom_site_fract_z
_atom_site_U_iso_or_equiv
_atom_site_adp_type
_atom_site_occupancy
C1     C     0.79451   0.19561   0.05528   0.00000  Uiso   1.00
C2     C     0.83061   0.15834   0.96349   0.00000  Uiso   1.00
C3     C     0.84475   0.17814   0.85430   0.00000  Uiso   1.00
C4     C     0.87816   0.13717   0.78303   0.00000  Uiso   1.00
C5     C     0.93136   0.08821   0.63490   0.00000  Uiso   1.00
C6     C     0.73229   0.15771   0.09286   0.00000  Uiso   1.00
C7     C     0.66377   0.17699   0.09246   0.00000  Uiso   1.00
C8     C     0.61443   0.13549   0.13010   0.00000  Uiso   1.00
C9     C     0.51499   0.08558   0.18290   0.00000  Uiso   1.00
C10    C     0.84407   0.19679   0.15579   0.00000  Uiso   1.00
C11    C     0.86951   0.24892   0.20833   0.00000  Uiso   1.00
C12    C     0.91426   0.24032   0.29897   0.00000  Uiso   1.00
C13    C     0.98837   0.25108   0.44948   0.00000  Uiso   1.00
C14    C     0.82872   0.08764   0.12286   0.00000  Uiso   1.00
C15    C     0.84919   0.09970   0.00020   0.00000  Uiso   1.00
C16    C     0.88260   0.05869   0.92907   0.00000  Uiso   1.00
C17    C     0.89678   0.07842   0.81980   0.00000  Uiso   1.00
C18    C     0.75087   0.09907   0.12957   0.00000  Uiso   1.00
C19    C     0.70162   0.05754   0.16723   0.00000  Uiso   1.00
C20    C     0.63304   0.07675   0.16687   0.00000  Uiso   1.00
C21    C     0.86265   0.13815   0.19250   0.00000  Uiso   1.00
C22    C     0.90736   0.12947   0.28309   0.00000  Uiso   1.00
C23    C     0.93288   0.18158   0.33574   0.00000  Uiso   1.00
H24    H     0.78004   0.24126   0.02670   0.00000  Uiso   1.00
H25    H     0.83035   0.22352   0.82593   0.00000  Uiso   1.00
H26    H     0.64941   0.22237   0.06406   0.00000  Uiso   1.00
H27    H     0.85512   0.29429   0.17990   0.00000  Uiso   1.00
H28    H     0.89430   0.17798   0.61950   0.00000  Uiso   1.00
H29    H     0.51277   0.17557   0.12165   0.00000  Uiso   1.00
H30    H     0.94656   0.32723   0.36592   0.00000  Uiso   1.00
H31    H     0.84319   0.04199   0.15144   0.00000  Uiso   1.00
H32    H     0.89697   0.01331   0.95750   0.00000  Uiso   1.00
H33    H     0.71602   0.01216   0.19563   0.00000  Uiso   1.00
H34    H     0.92173   0.08408   0.31147   0.00000  Uiso   1.00
H35    H     0.94837   0.00737   0.72629   0.00000  Uiso   1.00
H36    H     0.56684   0.00496   0.22844   0.00000  Uiso   1.00
H37    H     0.00062   0.15661   0.47271   0.00000  Uiso   1.00
O38    O     0.95555   0.07740   0.54306   0.00000  Uiso   1.00
O39    O     0.45501   0.07424   0.20187   0.00000  Uiso   1.00
O40    O     0.02412   0.27321   0.52235   0.00000  Uiso   1.00
N41    N     0.89966   0.14177   0.67126   0.00000  Uiso   1.00
N42    N     0.54295   0.13951   0.14072   0.00000  Uiso   1.00
N43    N     0.94849   0.28130   0.36911   0.00000  Uiso   1.00
N44    N     0.92875   0.04996   0.72872   0.00000  Uiso   1.00
N45    N     0.57204   0.04770   0.19818   0.00000  Uiso   1.00
N46    N     0.97758   0.18949   0.42658   0.00000  Uiso   1.00
C47    C     0.29451   0.69561   0.55528   0.00000  Uiso   1.00
C48    C     0.33061   0.65834   0.46349   0.00000  Uiso   1.00
C49    C     0.34475   0.67814   0.35430   0.00000  Uiso   1.00
C50    C     0.37816   0.63717   0.28303   0.00000  Uiso   1.00
C51    C     0.43136   0.58821   0.13490   0.00000  Uiso   1.00
C52    C     0.23229   0.65771   0.59286   0.00000  Uiso   1.00
C53    C     0.16377   0.67699   0.59246   0.00000  Uiso   1.00
C54    C     0.11443   0.63549   0.63010   0.00000  Uiso   1.00
C55    C     0.01499   0.58558   0.68290   0.00000  Uiso   1.00
C56    C     0.34407   0.69679   0.65579   0.00000  Uiso   1.00
C57    C     0.36951   0.74892   0.70833   0.00000  Uiso   1.00
C58    C     0.41426   0.74032   0.79897   0.00000  Uiso   1.00
C59    C     0.48837   0.75108   0.94948   0.00000  Uiso   1.00
C60    C     0.32872   0.58764   0.62286   0.00000  Uiso   1.00
C61    C     0.34919   0.59970   0.50020   0.00000  Uiso   1.00
C62    C     0.38260   0.55869   0.42907   0.00000  Uiso   1.00
C63    C     0.39678   0.57842   0.31980   0.00000  Uiso   1.00
C64    C     0.25087   0.59907   0.62957   0.00000  Uiso   1.00
C65    C     0.20162   0.55754   0.66723   0.00000  Uiso   1.00
C66    C     0.13304   0.57675   0.66687   0.00000  Uiso   1.00
C67    C     0.36265   0.63815   0.69250   0.00000  Uiso   1.00
C68    C     0.40736   0.62947   0.78309   0.00000  Uiso   1.00
C69    C     0.43288   0.68158   0.83574   0.00000  Uiso   1.00
H70    H     0.28004   0.74126   0.52670   0.00000  Uiso   1.00
H71    H     0.33035   0.72352   0.32593   0.00000  Uiso   1.00
H72    H     0.14941   0.72237   0.56406   0.00000  Uiso   1.00
H73    H     0.35512   0.79429   0.67990   0.00000  Uiso   1.00
H74    H     0.39430   0.67798   0.11950   0.00000  Uiso   1.00
H75    H     0.01277   0.67557   0.62165   0.00000  Uiso   1.00
H76    H     0.44656   0.82723   0.86592   0.00000  Uiso   1.00
H77    H     0.34319   0.54199   0.65144   0.00000  Uiso   1.00
H78    H     0.39697   0.51331   0.45750   0.00000  Uiso   1.00
H79    H     0.21602   0.51216   0.69563   0.00000  Uiso   1.00
H80    H     0.42173   0.58408   0.81147   0.00000  Uiso   1.00
H81    H     0.44837   0.50737   0.22629   0.00000  Uiso   1.00
H82    H     0.06684   0.50496   0.72844   0.00000  Uiso   1.00
H83    H     0.50062   0.65661   0.97271   0.00000  Uiso   1.00
O84    O     0.45555   0.57740   0.04306   0.00000  Uiso   1.00
O85    O     0.95501   0.57424   0.70187   0.00000  Uiso   1.00
O86    O     0.52412   0.77321   0.02235   0.00000  Uiso   1.00
N87    N     0.39966   0.64177   0.17126   0.00000  Uiso   1.00
N88    N     0.04295   0.63951   0.64072   0.00000  Uiso   1.00
N89    N     0.44849   0.78130   0.86911   0.00000  Uiso   1.00
N90    N     0.42875   0.54996   0.22872   0.00000  Uiso   1.00
N91    N     0.07204   0.54770   0.69818   0.00000  Uiso   1.00
N92    N     0.47758   0.68949   0.92658   0.00000  Uiso   1.00
C93    C     0.20549   0.80439   0.05528   0.00000  Uiso   1.00
C94    C     0.16939   0.84166   0.96349   0.00000  Uiso   1.00
C95    C     0.15525   0.82186   0.85430   0.00000  Uiso   1.00
C96    C     0.12184   0.86283   0.78303   0.00000  Uiso   1.00
C97    C     0.06864   0.91179   0.63490   0.00000  Uiso   1.00
C98    C     0.26771   0.84229   0.09286   0.00000  Uiso   1.00
C99    C     0.33623   0.82301   0.09246   0.00000  Uiso   1.00
C100   C     0.38557   0.86451   0.13010   0.00000  Uiso   1.00
C101   C     0.48501   0.91442   0.18290   0.00000  Uiso   1.00
C102   C     0.15593   0.80321   0.15579   0.00000  Uiso   1.00
C103   C     0.13049   0.75108   0.20833   0.00000  Uiso   1.00
C104   C     0.08574   0.75968   0.29897   0.00000  Uiso   1.00
C105   C     0.01163   0.74892   0.44948   0.00000  Uiso   1.00
C106   C     0.17128   0.91236   0.12286   0.00000  Uiso   1.00
C107   C     0.15081   0.90030   0.00020   0.00000  Uiso   1.00
C108   C     0.11740   0.94131   0.92907   0.00000  Uiso   1.00
C109   C     0.10322   0.92158   0.81980   0.00000  Uiso   1.00
C110   C     0.24913   0.90093   0.12957   0.00000  Uiso   1.00
C111   C     0.29838   0.94246   0.16723   0.00000  Uiso   1.00
C112   C     0.36696   0.92325   0.16687   0.00000  Uiso   1.00
C113   C     0.13735   0.86185   0.19250   0.00000  Uiso   1.00
C114   C     0.09264   0.87053   0.28309   0.00000  Uiso   1.00
C115   C     0.06712   0.81842   0.33574   0.00000  Uiso   1.00
H116   H     0.21996   0.75874   0.02670   0.00000  Uiso   1.00
H117   H     0.16965   0.77648   0.82593   0.00000  Uiso   1.00
H118   H     0.35059   0.77763   0.06406   0.00000  Uiso   1.00
H119   H     0.14488   0.70571   0.17990   0.00000  Uiso   1.00
H120   H     0.10570   0.82202   0.61950   0.00000  Uiso   1.00
H121   H     0.48723   0.82443   0.12165   0.00000  Uiso   1.00
H122   H     0.05344   0.67277   0.36592   0.00000  Uiso   1.00
H123   H     0.15681   0.95801   0.15144   0.00000  Uiso   1.00
H124   H     0.10303   0.98669   0.95750   0.00000  Uiso   1.00
H125   H     0.28398   0.98784   0.19563   0.00000  Uiso   1.00
H126   H     0.07827   0.91592   0.31147   0.00000  Uiso   1.00
H127   H     0.05163   0.99263   0.72629   0.00000  Uiso   1.00
H128   H     0.43316   0.99504   0.22844   0.00000  Uiso   1.00
H129   H     0.99938   0.84339   0.47271   0.00000  Uiso   1.00
O130   O     0.04445   0.92260   0.54306   0.00000  Uiso   1.00
O131   O     0.54499   0.92576   0.20187   0.00000  Uiso   1.00
O132   O     0.97588   0.72679   0.52235   0.00000  Uiso   1.00
N133   N     0.10034   0.85823   0.67126   0.00000  Uiso   1.00
N134   N     0.45705   0.86049   0.14072   0.00000  Uiso   1.00
N135   N     0.05151   0.71870   0.36911   0.00000  Uiso   1.00
N136   N     0.07125   0.95004   0.72872   0.00000  Uiso   1.00
N137   N     0.42796   0.95230   0.19818   0.00000  Uiso   1.00
N138   N     0.02242   0.81051   0.42658   0.00000  Uiso   1.00
C139   C     0.70549   0.30439   0.55528   0.00000  Uiso   1.00
C140   C     0.66939   0.34166   0.46349   0.00000  Uiso   1.00
C141   C     0.65525   0.32186   0.35430   0.00000  Uiso   1.00
C142   C     0.62184   0.36283   0.28303   0.00000  Uiso   1.00
C143   C     0.56864   0.41179   0.13490   0.00000  Uiso   1.00
C144   C     0.76771   0.34229   0.59286   0.00000  Uiso   1.00
C145   C     0.83623   0.32301   0.59246   0.00000  Uiso   1.00
C146   C     0.88557   0.36451   0.63010   0.00000  Uiso   1.00
C147   C     0.98501   0.41442   0.68290   0.00000  Uiso   1.00
C148   C     0.65593   0.30321   0.65579   0.00000  Uiso   1.00
C149   C     0.63049   0.25108   0.70833   0.00000  Uiso   1.00
C150   C     0.58574   0.25968   0.79897   0.00000  Uiso   1.00
C151   C     0.51163   0.24892   0.94948   0.00000  Uiso   1.00
C152   C     0.67128   0.41236   0.62286   0.00000  Uiso   1.00
C153   C     0.65081   0.40030   0.50020   0.00000  Uiso   1.00
C154   C     0.61740   0.44131   0.42907   0.00000  Uiso   1.00
C155   C     0.60322   0.42158   0.31980   0.00000  Uiso   1.00
C156   C     0.74913   0.40093   0.62957   0.00000  Uiso   1.00
C157   C     0.79838   0.44246   0.66723   0.00000  Uiso   1.00
C158   C     0.86696   0.42325   0.66687   0.00000  Uiso   1.00
C159   C     0.63735   0.36185   0.69250   0.00000  Uiso   1.00
C160   C     0.59264   0.37053   0.78309   0.00000  Uiso   1.00
C161   C     0.56712   0.31842   0.83574   0.00000  Uiso   1.00
H162   H     0.71996   0.25874   0.52670   0.00000  Uiso   1.00
H163   H     0.66965   0.27648   0.32593   0.00000  Uiso   1.00
H164   H     0.85059   0.27763   0.56406   0.00000  Uiso   1.00
H165   H     0.64488   0.20571   0.67990   0.00000  Uiso   1.00
H166   H     0.60570   0.32202   0.11950   0.00000  Uiso   1.00
H167   H     0.98723   0.32443   0.62165   0.00000  Uiso   1.00
H168   H     0.55344   0.17277   0.86592   0.00000  Uiso   1.00
H169   H     0.65681   0.45801   0.65144   0.00000  Uiso   1.00
H170   H     0.60303   0.48669   0.45750   0.00000  Uiso   1.00
H171   H     0.78398   0.48784   0.69563   0.00000  Uiso   1.00
H172   H     0.57827   0.41592   0.81147   0.00000  Uiso   1.00
H173   H     0.55163   0.49263   0.22629   0.00000  Uiso   1.00
H174   H     0.93316   0.49504   0.72844   0.00000  Uiso   1.00
H175   H     0.49938   0.34339   0.97271   0.00000  Uiso   1.00
O176   O     0.54445   0.42260   0.04306   0.00000  Uiso   1.00
O177   O     0.04499   0.42576   0.70187   0.00000  Uiso   1.00
O178   O     0.47588   0.22679   0.02235   0.00000  Uiso   1.00
N179   N     0.60034   0.35823   0.17126   0.00000  Uiso   1.00
N180   N     0.95705   0.36049   0.64072   0.00000  Uiso   1.00
N181   N     0.55151   0.21870   0.86911   0.00000  Uiso   1.00
N182   N     0.57125   0.45004   0.22872   0.00000  Uiso   1.00
N183   N     0.92796   0.45230   0.69818   0.00000  Uiso   1.00
N184   N     0.52242   0.31051   0.92658   0.00000  Uiso   1.00
C185   C     0.29451   0.30439   0.05528   0.00000  Uiso   1.00
C186   C     0.33061   0.34166   0.96349   0.00000  Uiso   1.00
C187   C     0.34475   0.32186   0.85430   0.00000  Uiso   1.00
C188   C     0.37816   0.36283   0.78303   0.00000  Uiso   1.00
C189   C     0.43136   0.41179   0.63490   0.00000  Uiso   1.00
C190   C     0.23229   0.34229   0.09286   0.00000  Uiso   1.00
C191   C     0.16377   0.32301   0.09246   0.00000  Uiso   1.00
C192   C     0.11443   0.36451   0.13010   0.00000  Uiso   1.00
C193   C     0.01499   0.41442   0.18290   0.00000  Uiso   1.00
C194   C     0.34407   0.30321   0.15579   0.00000  Uiso   1.00
C195   C     0.36951   0.25108   0.20833   0.00000  Uiso   1.00
C196   C     0.41426   0.25968   0.29897   0.00000  Uiso   1.00
C197   C     0.48837   0.24892   0.44948   0.00000  Uiso   1.00
C198   C     0.32872   0.41236   0.12286   0.00000  Uiso   1.00
C199   C     0.34919   0.40030   0.00020   0.00000  Uiso   1.00
C200   C     0.38260   0.44131   0.92907   0.00000  Uiso   1.00
C201   C     0.39678   0.42158   0.81980   0.00000  Uiso   1.00
C202   C     0.25087   0.40093   0.12957   0.00000  Uiso   1.00
C203   C     0.20162   0.44246   0.16723   0.00000  Uiso   1.00
C204   C     0.13304   0.42325   0.16687   0.00000  Uiso   1.00
C205   C     0.36265   0.36185   0.19250   0.00000  Uiso   1.00
C206   C     0.40736   0.37053   0.28309   0.00000  Uiso   1.00
C207   C     0.43288   0.31842   0.33574   0.00000  Uiso   1.00
H208   H     0.28004   0.25874   0.02670   0.00000  Uiso   1.00
H209   H     0.33035   0.27648   0.82593   0.00000  Uiso   1.00
H210   H     0.14941   0.27763   0.06406   0.00000  Uiso   1.00
H211   H     0.35512   0.20571   0.17990   0.00000  Uiso   1.00
H212   H     0.39430   0.32202   0.61950   0.00000  Uiso   1.00
H213   H     0.01277   0.32443   0.12165   0.00000  Uiso   1.00
H214   H     0.44656   0.17277   0.36592   0.00000  Uiso   1.00
H215   H     0.34319   0.45801   0.15144   0.00000  Uiso   1.00
H216   H     0.39697   0.48669   0.95750   0.00000  Uiso   1.00
H217   H     0.21602   0.48784   0.19563   0.00000  Uiso   1.00
H218   H     0.42173   0.41592   0.31147   0.00000  Uiso   1.00
H219   H     0.44837   0.49263   0.72629   0.00000  Uiso   1.00
H220   H     0.06684   0.49504   0.22844   0.00000  Uiso   1.00
H221   H     0.50062   0.34339   0.47271   0.00000  Uiso   1.00
O222   O     0.45555   0.42260   0.54306   0.00000  Uiso   1.00
O223   O     0.95501   0.42576   0.20187   0.00000  Uiso   1.00
O224   O     0.52412   0.22679   0.52235   0.00000  Uiso   1.00
N225   N     0.39966   0.35823   0.67126   0.00000  Uiso   1.00
N226   N     0.04295   0.36049   0.14072   0.00000  Uiso   1.00
N227   N     0.44849   0.21870   0.36911   0.00000  Uiso   1.00
N228   N     0.42875   0.45004   0.72872   0.00000  Uiso   1.00
N229   N     0.07204   0.45230   0.19818   0.00000  Uiso   1.00
N230   N     0.47758   0.31051   0.42658   0.00000  Uiso   1.00
C231   C     0.79451   0.80439   0.55528   0.00000  Uiso   1.00
C232   C     0.83061   0.84166   0.46349   0.00000  Uiso   1.00
C233   C     0.84475   0.82186   0.35430   0.00000  Uiso   1.00
C234   C     0.87816   0.86283   0.28303   0.00000  Uiso   1.00
C235   C     0.93136   0.91179   0.13490   0.00000  Uiso   1.00
C236   C     0.73229   0.84229   0.59286   0.00000  Uiso   1.00
C237   C     0.66377   0.82301   0.59246   0.00000  Uiso   1.00
C238   C     0.61443   0.86451   0.63010   0.00000  Uiso   1.00
C239   C     0.51499   0.91442   0.68290   0.00000  Uiso   1.00
C240   C     0.84407   0.80321   0.65579   0.00000  Uiso   1.00
C241   C     0.86951   0.75108   0.70833   0.00000  Uiso   1.00
C242   C     0.91426   0.75968   0.79897   0.00000  Uiso   1.00
C243   C     0.98837   0.74892   0.94948   0.00000  Uiso   1.00
C244   C     0.82872   0.91236   0.62286   0.00000  Uiso   1.00
C245   C     0.84919   0.90030   0.50020   0.00000  Uiso   1.00
C246   C     0.88260   0.94131   0.42907   0.00000  Uiso   1.00
C247   C     0.89678   0.92158   0.31980   0.00000  Uiso   1.00
C248   C     0.75087   0.90093   0.62957   0.00000  Uiso   1.00
C249   C     0.70162   0.94246   0.66723   0.00000  Uiso   1.00
C250   C     0.63304   0.92325   0.66687   0.00000  Uiso   1.00
C251   C     0.86265   0.86185   0.69250   0.00000  Uiso   1.00
C252   C     0.90736   0.87053   0.78309   0.00000  Uiso   1.00
C253   C     0.93288   0.81842   0.83574   0.00000  Uiso   1.00
H254   H     0.78004   0.75874   0.52670   0.00000  Uiso   1.00
H255   H     0.83035   0.77648   0.32593   0.00000  Uiso   1.00
H256   H     0.64941   0.77763   0.56406   0.00000  Uiso   1.00
H257   H     0.85512   0.70571   0.67990   0.00000  Uiso   1.00
H258   H     0.89430   0.82202   0.11950   0.00000  Uiso   1.00
H259   H     0.51277   0.82443   0.62165   0.00000  Uiso   1.00
H260   H     0.94656   0.67277   0.86592   0.00000  Uiso   1.00
H261   H     0.84319   0.95801   0.65144   0.00000  Uiso   1.00
H262   H     0.89697   0.98669   0.45750   0.00000  Uiso   1.00
H263   H     0.71602   0.98784   0.69563   0.00000  Uiso   1.00
H264   H     0.92173   0.91592   0.81147   0.00000  Uiso   1.00
H265   H     0.94837   0.99263   0.22629   0.00000  Uiso   1.00
H266   H     0.56684   0.99504   0.72844   0.00000  Uiso   1.00
H267   H     0.00062   0.84339   0.97271   0.00000  Uiso   1.00
O268   O     0.95555   0.92260   0.04306   0.00000  Uiso   1.00
O269   O     0.45501   0.92576   0.70187   0.00000  Uiso   1.00
O270   O     0.02412   0.72679   0.02235   0.00000  Uiso   1.00
N271   N     0.89966   0.85823   0.17126   0.00000  Uiso   1.00
N272   N     0.54295   0.86049   0.64072   0.00000  Uiso   1.00
N273   N     0.94849   0.71870   0.86911   0.00000  Uiso   1.00
N274   N     0.92875   0.95004   0.22872   0.00000  Uiso   1.00
N275   N     0.57204   0.95230   0.69818   0.00000  Uiso   1.00
N276   N     0.97758   0.81051   0.92658   0.00000  Uiso   1.00
C277   C     0.70549   0.69561   0.05528   0.00000  Uiso   1.00
C278   C     0.66939   0.65834   0.96349   0.00000  Uiso   1.00
C279   C     0.65525   0.67814   0.85430   0.00000  Uiso   1.00
C280   C     0.62184   0.63717   0.78303   0.00000  Uiso   1.00
C281   C     0.56864   0.58821   0.63490   0.00000  Uiso   1.00
C282   C     0.76771   0.65771   0.09286   0.00000  Uiso   1.00
C283   C     0.83623   0.67699   0.09246   0.00000  Uiso   1.00
C284   C     0.88557   0.63549   0.13010   0.00000  Uiso   1.00
C285   C     0.98501   0.58558   0.18290   0.00000  Uiso   1.00
C286   C     0.65593   0.69679   0.15579   0.00000  Uiso   1.00
C287   C     0.63049   0.74892   0.20833   0.00000  Uiso   1.00
C288   C     0.58574   0.74032   0.29897   0.00000  Uiso   1.00
C289   C     0.51163   0.75108   0.44948   0.00000  Uiso   1.00
C290   C     0.67128   0.58764   0.12286   0.00000  Uiso   1.00
C291   C     0.65081   0.59970   0.00020   0.00000  Uiso   1.00
C292   C     0.61740   0.55869   0.92907   0.00000  Uiso   1.00
C293   C     0.60322   0.57842   0.81980   0.00000  Uiso   1.00
C294   C     0.74913   0.59907   0.12957   0.00000  Uiso   1.00
C295   C     0.79838   0.55754   0.16723   0.00000  Uiso   1.00
C296   C     0.86696   0.57675   0.16687   0.00000  Uiso   1.00
C297   C     0.63735   0.63815   0.19250   0.00000  Uiso   1.00
C298   C     0.59264   0.62947   0.28309   0.00000  Uiso   1.00
C299   C     0.56712   0.68158   0.33574   0.00000  Uiso   1.00
H300   H     0.71996   0.74126   0.02670   0.00000  Uiso   1.00
H301   H     0.66965   0.72352   0.82593   0.00000  Uiso   1.00
H302   H     0.85059   0.72237   0.06406   0.00000  Uiso   1.00
H303   H     0.64488   0.79429   0.17990   0.00000  Uiso   1.00
H304   H     0.60570   0.67798   0.61950   0.00000  Uiso   1.00
H305   H     0.98723   0.67557   0.12165   0.00000  Uiso   1.00
H306   H     0.55344   0.82723   0.36592   0.00000  Uiso   1.00
H307   H     0.65681   0.54199   0.15144   0.00000  Uiso   1.00
H308   H     0.60303   0.51331   0.95750   0.00000  Uiso   1.00
H309   H     0.78398   0.51216   0.19563   0.00000  Uiso   1.00
H310   H     0.57827   0.58408   0.31147   0.00000  Uiso   1.00
H311   H     0.55163   0.50737   0.72629   0.00000  Uiso   1.00
H312   H     0.93316   0.50496   0.22844   0.00000  Uiso   1.00
H313   H     0.49938   0.65661   0.47271   0.00000  Uiso   1.00
O314   O     0.54445   0.57740   0.54306   0.00000  Uiso   1.00
O315   O     0.04499   0.57424   0.20187   0.00000  Uiso   1.00
O316   O     0.47588   0.77321   0.52235   0.00000  Uiso   1.00
N317   N     0.60034   0.64177   0.67126   0.00000  Uiso   1.00
N318   N     0.95705   0.63951   0.14072   0.00000  Uiso   1.00
N319   N     0.55151   0.78130   0.36911   0.00000  Uiso   1.00
N320   N     0.57125   0.54996   0.72872   0.00000  Uiso   1.00
N321   N     0.92796   0.54770   0.19818   0.00000  Uiso   1.00
N322   N     0.52242   0.68949   0.42658   0.00000  Uiso   1.00
C323   C     0.20549   0.19561   0.55528   0.00000  Uiso   1.00
C324   C     0.16939   0.15834   0.46349   0.00000  Uiso   1.00
C325   C     0.15525   0.17814   0.35430   0.00000  Uiso   1.00
C326   C     0.12184   0.13717   0.28303   0.00000  Uiso   1.00
C327   C     0.06864   0.08821   0.13490   0.00000  Uiso   1.00
C328   C     0.26771   0.15771   0.59286   0.00000  Uiso   1.00
C329   C     0.33623   0.17699   0.59246   0.00000  Uiso   1.00
C330   C     0.38557   0.13549   0.63010   0.00000  Uiso   1.00
C331   C     0.48501   0.08558   0.68290   0.00000  Uiso   1.00
C332   C     0.15593   0.19679   0.65579   0.00000  Uiso   1.00
C333   C     0.13049   0.24892   0.70833   0.00000  Uiso   1.00
C334   C     0.08574   0.24032   0.79897   0.00000  Uiso   1.00
C335   C     0.01163   0.25108   0.94948   0.00000  Uiso   1.00
C336   C     0.17128   0.08764   0.62286   0.00000  Uiso   1.00
C337   C     0.15081   0.09970   0.50020   0.00000  Uiso   1.00
C338   C     0.11740   0.05869   0.42907   0.00000  Uiso   1.00
C339   C     0.10322   0.07842   0.31980   0.00000  Uiso   1.00
C340   C     0.24913   0.09907   0.62957   0.00000  Uiso   1.00
C341   C     0.29838   0.05754   0.66723   0.00000  Uiso   1.00
C342   C     0.36696   0.07675   0.66687   0.00000  Uiso   1.00
C343   C     0.13735   0.13815   0.69250   0.00000  Uiso   1.00
C344   C     0.09264   0.12947   0.78309   0.00000  Uiso   1.00
C345   C     0.06712   0.18158   0.83574   0.00000  Uiso   1.00
H346   H     0.21996   0.24126   0.52670   0.00000  Uiso   1.00
H347   H     0.16965   0.22352   0.32593   0.00000  Uiso   1.00
H348   H     0.35059   0.22237   0.56406   0.00000  Uiso   1.00
H349   H     0.14488   0.29429   0.67990   0.00000  Uiso   1.00
H350   H     0.10570   0.17798   0.11950   0.00000  Uiso   1.00
H351   H     0.48723   0.17557   0.62165   0.00000  Uiso   1.00
H352   H     0.05344   0.32723   0.86592   0.00000  Uiso   1.00
H353   H     0.15681   0.04199   0.65144   0.00000  Uiso   1.00
H354   H     0.10303   0.01331   0.45750   0.00000  Uiso   1.00
H355   H     0.28398   0.01216   0.69563   0.00000  Uiso   1.00
H356   H     0.07827   0.08408   0.81147   0.00000  Uiso   1.00
H357   H     0.05163   0.00737   0.22629   0.00000  Uiso   1.00
H358   H     0.43316   0.00496   0.72844   0.00000  Uiso   1.00
H359   H     0.99938   0.15661   0.97271   0.00000  Uiso   1.00
O360   O     0.04445   0.07740   0.04306   0.00000  Uiso   1.00
O361   O     0.54499   0.07424   0.70187   0.00000  Uiso   1.00
O362   O     0.97588   0.27321   0.02235   0.00000  Uiso   1.00
N363   N     0.10034   0.14177   0.17126   0.00000  Uiso   1.00
N364   N     0.45705   0.13951   0.64072   0.00000  Uiso   1.00
N365   N     0.05151   0.28130   0.86911   0.00000  Uiso   1.00
N366   N     0.07125   0.04996   0.22872   0.00000  Uiso   1.00
N367   N     0.42796   0.04770   0.69818   0.00000  Uiso   1.00
N368   N     0.02242   0.18949   0.92658   0.00000  Uiso   1.00
