data_job_04035
_audit_creation_date              2018-12-19
_audit_creation_method            'Materials Studio'
_symmetry_space_group_name_H-M    'P1'
_symmetry_Int_Tables_number       1
_symmetry_cell_setting            triclinic
loop_
_symmetry_equiv_pos_as_xyz
  x,y,z
_cell_length_a                    12.4437
_cell_length_b                    12.4437
_cell_length_c                    42.9072
_cell_angle_alpha                 90.0000
_cell_angle_beta                  90.0000
_cell_angle_gamma                 90.0000
loop_
_atom_site_label
_atom_site_type_symbol
_atom_site_fract_x
_atom_site_fract_y
_atom_site_fract_z
_atom_site_U_iso_or_equiv
_atom_site_adp_type
_atom_site_occupancy
C1     C     0.14581   0.62310   0.89425   0.00000  Uiso   1.00
C2     C     0.06738   0.52928   0.89660   0.00000  Uiso   1.00
C3     C     0.97404   0.51708   0.87925   0.00000  Uiso   1.00
C4     C     0.91314   0.42560   0.88485   0.00000  Uiso   1.00
C5     C     0.78656   0.29158   0.88514   0.00000  Uiso   1.00
C6     C     0.15444   0.66984   0.92701   0.00000  Uiso   1.00
C7     C     0.13432   0.77581   0.93523   0.00000  Uiso   1.00
C8     C     0.14673   0.80265   0.96644   0.00000  Uiso   1.00
C9     C     0.15539   0.88686   0.01393   0.00000  Uiso   1.00
C10    C     0.25522   0.57374   0.88710   0.00000  Uiso   1.00
C11    C     0.31985   0.59894   0.86177   0.00000  Uiso   1.00
C12    C     0.41712   0.54490   0.85937   0.00000  Uiso   1.00
C13    C     0.58225   0.47991   0.84490   0.00000  Uiso   1.00
C14    C     0.20364   0.48236   0.93503   0.00000  Uiso   1.00
C15    C     0.09880   0.45284   0.91875   0.00000  Uiso   1.00
C16    C     0.03803   0.36136   0.92438   0.00000  Uiso   1.00
C17    C     0.94461   0.34902   0.90705   0.00000  Uiso   1.00
C18    C     0.18586   0.59340   0.94916   0.00000  Uiso   1.00
C19    C     0.19831   0.62009   0.98036   0.00000  Uiso   1.00
C20    C     0.17820   0.72607   0.98863   0.00000  Uiso   1.00
C21    C     0.28664   0.49730   0.90925   0.00000  Uiso   1.00
C22    C     0.38383   0.44322   0.90689   0.00000  Uiso   1.00
C23    C     0.44859   0.46831   0.88156   0.00000  Uiso   1.00
H24    H     0.12135   0.68262   0.87700   0.00000  Uiso   1.00
H25    H     0.94975   0.57626   0.86211   0.00000  Uiso   1.00
H26    H     0.11002   0.83495   0.91808   0.00000  Uiso   1.00
H27    H     0.29551   0.65810   0.84463   0.00000  Uiso   1.00
H28    H     0.77333   0.42464   0.85538   0.00000  Uiso   1.00
H29    H     0.11130   0.97011   0.97340   0.00000  Uiso   1.00
H30    H     0.50245   0.59720   0.81850   0.00000  Uiso   1.00
H31    H     0.22810   0.42284   0.95228   0.00000  Uiso   1.00
H32    H     0.06236   0.30222   0.94152   0.00000  Uiso   1.00
H33    H     0.22263   0.56091   0.99749   0.00000  Uiso   1.00
H34    H     0.40812   0.38406   0.92404   0.00000  Uiso   1.00
H35    H     0.86473   0.20222   0.91984   0.00000  Uiso   1.00
H36    H     0.20270   0.74770   0.03785   0.00000  Uiso   1.00
H37    H     0.59385   0.37478   0.88296   0.00000  Uiso   1.00
O38    O     0.70806   0.23879   0.87918   0.00000  Uiso   1.00
O39    O     0.15148   0.95443   0.03401   0.00000  Uiso   1.00
O40    O     0.66465   0.46517   0.83079   0.00000  Uiso   1.00
N41    N     0.81760   0.38884   0.87202   0.00000  Uiso   1.00
N42    N     0.13356   0.89882   0.98236   0.00000  Uiso   1.00
N43    N     0.49927   0.55019   0.83755   0.00000  Uiso   1.00
N44    N     0.86678   0.26916   0.90671   0.00000  Uiso   1.00
N45    N     0.18274   0.77913   0.01704   0.00000  Uiso   1.00
N46    N     0.54845   0.43051   0.87223   0.00000  Uiso   1.00
C47    C     0.85419   0.37690   0.39425   0.00000  Uiso   1.00
C48    C     0.93262   0.47072   0.39660   0.00000  Uiso   1.00
C49    C     0.02596   0.48292   0.37925   0.00000  Uiso   1.00
C50    C     0.08686   0.57440   0.38485   0.00000  Uiso   1.00
C51    C     0.21344   0.70842   0.38514   0.00000  Uiso   1.00
C52    C     0.84556   0.33016   0.42701   0.00000  Uiso   1.00
C53    C     0.86568   0.22419   0.43523   0.00000  Uiso   1.00
C54    C     0.85327   0.19735   0.46644   0.00000  Uiso   1.00
C55    C     0.84461   0.11314   0.51393   0.00000  Uiso   1.00
C56    C     0.74478   0.42626   0.38710   0.00000  Uiso   1.00
C57    C     0.68015   0.40106   0.36177   0.00000  Uiso   1.00
C58    C     0.58288   0.45510   0.35937   0.00000  Uiso   1.00
C59    C     0.41775   0.52009   0.34490   0.00000  Uiso   1.00
C60    C     0.79636   0.51764   0.43503   0.00000  Uiso   1.00
C61    C     0.90120   0.54716   0.41875   0.00000  Uiso   1.00
C62    C     0.96197   0.63864   0.42438   0.00000  Uiso   1.00
C63    C     0.05539   0.65098   0.40705   0.00000  Uiso   1.00
C64    C     0.81414   0.40660   0.44916   0.00000  Uiso   1.00
C65    C     0.80169   0.37991   0.48036   0.00000  Uiso   1.00
C66    C     0.82180   0.27393   0.48863   0.00000  Uiso   1.00
C67    C     0.71336   0.50270   0.40925   0.00000  Uiso   1.00
C68    C     0.61617   0.55678   0.40689   0.00000  Uiso   1.00
C69    C     0.55141   0.53169   0.38156   0.00000  Uiso   1.00
H70    H     0.87865   0.31738   0.37700   0.00000  Uiso   1.00
H71    H     0.05025   0.42374   0.36211   0.00000  Uiso   1.00
H72    H     0.88998   0.16505   0.41808   0.00000  Uiso   1.00
H73    H     0.70449   0.34190   0.34463   0.00000  Uiso   1.00
H74    H     0.22667   0.57536   0.35538   0.00000  Uiso   1.00
H75    H     0.88870   0.02989   0.47340   0.00000  Uiso   1.00
H76    H     0.49755   0.40280   0.31850   0.00000  Uiso   1.00
H77    H     0.77190   0.57716   0.45228   0.00000  Uiso   1.00
H78    H     0.93764   0.69778   0.44152   0.00000  Uiso   1.00
H79    H     0.77737   0.43909   0.49749   0.00000  Uiso   1.00
H80    H     0.59188   0.61594   0.42404   0.00000  Uiso   1.00
H81    H     0.13527   0.79778   0.41984   0.00000  Uiso   1.00
H82    H     0.79730   0.25230   0.53785   0.00000  Uiso   1.00
H83    H     0.40615   0.62522   0.38296   0.00000  Uiso   1.00
O84    O     0.29194   0.76121   0.37918   0.00000  Uiso   1.00
O85    O     0.84852   0.04557   0.53401   0.00000  Uiso   1.00
O86    O     0.33535   0.53483   0.33079   0.00000  Uiso   1.00
N87    N     0.18240   0.61116   0.37202   0.00000  Uiso   1.00
N88    N     0.86644   0.10118   0.48236   0.00000  Uiso   1.00
N89    N     0.50073   0.44981   0.33755   0.00000  Uiso   1.00
N90    N     0.13322   0.73084   0.40671   0.00000  Uiso   1.00
N91    N     0.81726   0.22087   0.51704   0.00000  Uiso   1.00
N92    N     0.45155   0.56949   0.37223   0.00000  Uiso   1.00
C93    C     0.87690   0.64581   0.64425   0.00000  Uiso   1.00
C94    C     0.97072   0.56738   0.64660   0.00000  Uiso   1.00
C95    C     0.98292   0.47404   0.62925   0.00000  Uiso   1.00
C96    C     0.07440   0.41314   0.63485   0.00000  Uiso   1.00
C97    C     0.20842   0.28656   0.63514   0.00000  Uiso   1.00
C98    C     0.83016   0.65444   0.67701   0.00000  Uiso   1.00
C99    C     0.72419   0.63432   0.68523   0.00000  Uiso   1.00
C100   C     0.69735   0.64673   0.71644   0.00000  Uiso   1.00
C101   C     0.61314   0.65539   0.76393   0.00000  Uiso   1.00
C102   C     0.92626   0.75522   0.63710   0.00000  Uiso   1.00
C103   C     0.90106   0.81985   0.61177   0.00000  Uiso   1.00
C104   C     0.95510   0.91712   0.60937   0.00000  Uiso   1.00
C105   C     0.02009   0.08225   0.59490   0.00000  Uiso   1.00
C106   C     0.01764   0.70364   0.68503   0.00000  Uiso   1.00
C107   C     0.04716   0.59880   0.66875   0.00000  Uiso   1.00
C108   C     0.13864   0.53803   0.67438   0.00000  Uiso   1.00
C109   C     0.15098   0.44461   0.65705   0.00000  Uiso   1.00
C110   C     0.90660   0.68586   0.69916   0.00000  Uiso   1.00
C111   C     0.87991   0.69831   0.73036   0.00000  Uiso   1.00
C112   C     0.77393   0.67820   0.73863   0.00000  Uiso   1.00
C113   C     0.00270   0.78664   0.65925   0.00000  Uiso   1.00
C114   C     0.05678   0.88383   0.65689   0.00000  Uiso   1.00
C115   C     0.03169   0.94859   0.63156   0.00000  Uiso   1.00
H116   H     0.81738   0.62135   0.62700   0.00000  Uiso   1.00
H117   H     0.92374   0.44975   0.61211   0.00000  Uiso   1.00
H118   H     0.66505   0.61002   0.66808   0.00000  Uiso   1.00
H119   H     0.84190   0.79551   0.59463   0.00000  Uiso   1.00
H120   H     0.07536   0.27333   0.60538   0.00000  Uiso   1.00
H121   H     0.52989   0.61130   0.72340   0.00000  Uiso   1.00
H122   H     0.90280   0.00245   0.56850   0.00000  Uiso   1.00
H123   H     0.07716   0.72810   0.70228   0.00000  Uiso   1.00
H124   H     0.19778   0.56236   0.69152   0.00000  Uiso   1.00
H125   H     0.93909   0.72263   0.74749   0.00000  Uiso   1.00
H126   H     0.11594   0.90812   0.67404   0.00000  Uiso   1.00
H127   H     0.29778   0.36473   0.66984   0.00000  Uiso   1.00
H128   H     0.75230   0.70270   0.78785   0.00000  Uiso   1.00
H129   H     0.12522   0.09385   0.63296   0.00000  Uiso   1.00
O130   O     0.26121   0.20806   0.62918   0.00000  Uiso   1.00
O131   O     0.54557   0.65148   0.78401   0.00000  Uiso   1.00
O132   O     0.03483   0.16465   0.58079   0.00000  Uiso   1.00
N133   N     0.11116   0.31760   0.62202   0.00000  Uiso   1.00
N134   N     0.60118   0.63356   0.73236   0.00000  Uiso   1.00
N135   N     0.94981   0.99927   0.58755   0.00000  Uiso   1.00
N136   N     0.23084   0.36678   0.65671   0.00000  Uiso   1.00
N137   N     0.72087   0.68274   0.76704   0.00000  Uiso   1.00
N138   N     0.06949   0.04845   0.62223   0.00000  Uiso   1.00
C139   C     0.12310   0.35419   0.14425   0.00000  Uiso   1.00
C140   C     0.02928   0.43262   0.14660   0.00000  Uiso   1.00
C141   C     0.01708   0.52596   0.12925   0.00000  Uiso   1.00
C142   C     0.92560   0.58686   0.13485   0.00000  Uiso   1.00
C143   C     0.79158   0.71344   0.13514   0.00000  Uiso   1.00
C144   C     0.16984   0.34556   0.17701   0.00000  Uiso   1.00
C145   C     0.27581   0.36568   0.18523   0.00000  Uiso   1.00
C146   C     0.30265   0.35327   0.21644   0.00000  Uiso   1.00
C147   C     0.38686   0.34461   0.26393   0.00000  Uiso   1.00
C148   C     0.07374   0.24478   0.13710   0.00000  Uiso   1.00
C149   C     0.09894   0.18015   0.11177   0.00000  Uiso   1.00
C150   C     0.04490   0.08288   0.10937   0.00000  Uiso   1.00
C151   C     0.97991   0.91775   0.09490   0.00000  Uiso   1.00
C152   C     0.98236   0.29636   0.18503   0.00000  Uiso   1.00
C153   C     0.95284   0.40120   0.16875   0.00000  Uiso   1.00
C154   C     0.86136   0.46197   0.17438   0.00000  Uiso   1.00
C155   C     0.84902   0.55539   0.15705   0.00000  Uiso   1.00
C156   C     0.09340   0.31414   0.19916   0.00000  Uiso   1.00
C157   C     0.12009   0.30169   0.23036   0.00000  Uiso   1.00
C158   C     0.22607   0.32180   0.23863   0.00000  Uiso   1.00
C159   C     0.99730   0.21336   0.15925   0.00000  Uiso   1.00
C160   C     0.94322   0.11617   0.15689   0.00000  Uiso   1.00
C161   C     0.96831   0.05141   0.13156   0.00000  Uiso   1.00
H162   H     0.18262   0.37865   0.12700   0.00000  Uiso   1.00
H163   H     0.07626   0.55025   0.11211   0.00000  Uiso   1.00
H164   H     0.33495   0.38998   0.16808   0.00000  Uiso   1.00
H165   H     0.15810   0.20449   0.09463   0.00000  Uiso   1.00
H166   H     0.92464   0.72667   0.10538   0.00000  Uiso   1.00
H167   H     0.47011   0.38870   0.22340   0.00000  Uiso   1.00
H168   H     0.09720   0.99755   0.06850   0.00000  Uiso   1.00
H169   H     0.92284   0.27190   0.20228   0.00000  Uiso   1.00
H170   H     0.80222   0.43764   0.19152   0.00000  Uiso   1.00
H171   H     0.06091   0.27737   0.24749   0.00000  Uiso   1.00
H172   H     0.88406   0.09188   0.17404   0.00000  Uiso   1.00
H173   H     0.70222   0.63527   0.16984   0.00000  Uiso   1.00
H174   H     0.24770   0.29730   0.28785   0.00000  Uiso   1.00
H175   H     0.87478   0.90615   0.13296   0.00000  Uiso   1.00
O176   O     0.73879   0.79194   0.12918   0.00000  Uiso   1.00
O177   O     0.45443   0.34852   0.28401   0.00000  Uiso   1.00
O178   O     0.96517   0.83535   0.08079   0.00000  Uiso   1.00
N179   N     0.88884   0.68240   0.12202   0.00000  Uiso   1.00
N180   N     0.39882   0.36644   0.23236   0.00000  Uiso   1.00
N181   N     0.05019   0.00073   0.08755   0.00000  Uiso   1.00
N182   N     0.76916   0.63322   0.15671   0.00000  Uiso   1.00
N183   N     0.27913   0.31726   0.26704   0.00000  Uiso   1.00
N184   N     0.93051   0.95155   0.12223   0.00000  Uiso   1.00
C185   C     0.35419   0.12310   0.85575   0.00000  Uiso   1.00
C186   C     0.43262   0.02928   0.85340   0.00000  Uiso   1.00
C187   C     0.52596   0.01708   0.87075   0.00000  Uiso   1.00
C188   C     0.58686   0.92560   0.86515   0.00000  Uiso   1.00
C189   C     0.71344   0.79158   0.86486   0.00000  Uiso   1.00
C190   C     0.34556   0.16984   0.82299   0.00000  Uiso   1.00
C191   C     0.36568   0.27581   0.81477   0.00000  Uiso   1.00
C192   C     0.35327   0.30265   0.78356   0.00000  Uiso   1.00
C193   C     0.34461   0.38686   0.73607   0.00000  Uiso   1.00
C194   C     0.24478   0.07374   0.86290   0.00000  Uiso   1.00
C195   C     0.18015   0.09894   0.88823   0.00000  Uiso   1.00
C196   C     0.08288   0.04490   0.89063   0.00000  Uiso   1.00
C197   C     0.91775   0.97991   0.90510   0.00000  Uiso   1.00
C198   C     0.29636   0.98236   0.81497   0.00000  Uiso   1.00
C199   C     0.40120   0.95284   0.83125   0.00000  Uiso   1.00
C200   C     0.46197   0.86136   0.82562   0.00000  Uiso   1.00
C201   C     0.55539   0.84902   0.84295   0.00000  Uiso   1.00
C202   C     0.31414   0.09340   0.80084   0.00000  Uiso   1.00
C203   C     0.30169   0.12009   0.76964   0.00000  Uiso   1.00
C204   C     0.32180   0.22607   0.76137   0.00000  Uiso   1.00
C205   C     0.21336   0.99730   0.84075   0.00000  Uiso   1.00
C206   C     0.11617   0.94322   0.84311   0.00000  Uiso   1.00
C207   C     0.05141   0.96831   0.86844   0.00000  Uiso   1.00
H208   H     0.37865   0.18262   0.87300   0.00000  Uiso   1.00
H209   H     0.55025   0.07626   0.88789   0.00000  Uiso   1.00
H210   H     0.38998   0.33495   0.83192   0.00000  Uiso   1.00
H211   H     0.20449   0.15810   0.90537   0.00000  Uiso   1.00
H212   H     0.72667   0.92464   0.89462   0.00000  Uiso   1.00
H213   H     0.38870   0.47011   0.77660   0.00000  Uiso   1.00
H214   H     0.99755   0.09720   0.93150   0.00000  Uiso   1.00
H215   H     0.27190   0.92284   0.79772   0.00000  Uiso   1.00
H216   H     0.43764   0.80222   0.80848   0.00000  Uiso   1.00
H217   H     0.27737   0.06091   0.75251   0.00000  Uiso   1.00
H218   H     0.09188   0.88406   0.82596   0.00000  Uiso   1.00
H219   H     0.63527   0.70222   0.83016   0.00000  Uiso   1.00
H220   H     0.29730   0.24770   0.71215   0.00000  Uiso   1.00
H221   H     0.90615   0.87478   0.86704   0.00000  Uiso   1.00
O222   O     0.79194   0.73879   0.87082   0.00000  Uiso   1.00
O223   O     0.34852   0.45443   0.71599   0.00000  Uiso   1.00
O224   O     0.83535   0.96517   0.91921   0.00000  Uiso   1.00
N225   N     0.68240   0.88884   0.87798   0.00000  Uiso   1.00
N226   N     0.36644   0.39882   0.76764   0.00000  Uiso   1.00
N227   N     0.00073   0.05019   0.91245   0.00000  Uiso   1.00
N228   N     0.63322   0.76916   0.84329   0.00000  Uiso   1.00
N229   N     0.31726   0.27913   0.73296   0.00000  Uiso   1.00
N230   N     0.95155   0.93051   0.87777   0.00000  Uiso   1.00
C231   C     0.64581   0.87690   0.35575   0.00000  Uiso   1.00
C232   C     0.56738   0.97072   0.35340   0.00000  Uiso   1.00
C233   C     0.47404   0.98292   0.37075   0.00000  Uiso   1.00
C234   C     0.41314   0.07440   0.36515   0.00000  Uiso   1.00
C235   C     0.28656   0.20842   0.36486   0.00000  Uiso   1.00
C236   C     0.65444   0.83016   0.32299   0.00000  Uiso   1.00
C237   C     0.63432   0.72419   0.31477   0.00000  Uiso   1.00
C238   C     0.64673   0.69735   0.28356   0.00000  Uiso   1.00
C239   C     0.65539   0.61314   0.23607   0.00000  Uiso   1.00
C240   C     0.75522   0.92626   0.36290   0.00000  Uiso   1.00
C241   C     0.81985   0.90106   0.38823   0.00000  Uiso   1.00
C242   C     0.91712   0.95510   0.39063   0.00000  Uiso   1.00
C243   C     0.08225   0.02009   0.40510   0.00000  Uiso   1.00
C244   C     0.70364   0.01764   0.31497   0.00000  Uiso   1.00
C245   C     0.59880   0.04716   0.33125   0.00000  Uiso   1.00
C246   C     0.53803   0.13864   0.32562   0.00000  Uiso   1.00
C247   C     0.44461   0.15098   0.34295   0.00000  Uiso   1.00
C248   C     0.68586   0.90660   0.30084   0.00000  Uiso   1.00
C249   C     0.69831   0.87991   0.26964   0.00000  Uiso   1.00
C250   C     0.67820   0.77393   0.26137   0.00000  Uiso   1.00
C251   C     0.78664   0.00270   0.34075   0.00000  Uiso   1.00
C252   C     0.88383   0.05678   0.34311   0.00000  Uiso   1.00
C253   C     0.94859   0.03169   0.36844   0.00000  Uiso   1.00
H254   H     0.62135   0.81738   0.37300   0.00000  Uiso   1.00
H255   H     0.44975   0.92374   0.38789   0.00000  Uiso   1.00
H256   H     0.61002   0.66505   0.33192   0.00000  Uiso   1.00
H257   H     0.79551   0.84190   0.40537   0.00000  Uiso   1.00
H258   H     0.27333   0.07536   0.39462   0.00000  Uiso   1.00
H259   H     0.61130   0.52989   0.27660   0.00000  Uiso   1.00
H260   H     0.00245   0.90280   0.43150   0.00000  Uiso   1.00
H261   H     0.72810   0.07716   0.29772   0.00000  Uiso   1.00
H262   H     0.56236   0.19778   0.30848   0.00000  Uiso   1.00
H263   H     0.72263   0.93909   0.25251   0.00000  Uiso   1.00
H264   H     0.90812   0.11594   0.32596   0.00000  Uiso   1.00
H265   H     0.36473   0.29778   0.33016   0.00000  Uiso   1.00
H266   H     0.70270   0.75230   0.21215   0.00000  Uiso   1.00
H267   H     0.09385   0.12522   0.36704   0.00000  Uiso   1.00
O268   O     0.20806   0.26121   0.37082   0.00000  Uiso   1.00
O269   O     0.65148   0.54557   0.21599   0.00000  Uiso   1.00
O270   O     0.16465   0.03483   0.41921   0.00000  Uiso   1.00
N271   N     0.31760   0.11116   0.37798   0.00000  Uiso   1.00
N272   N     0.63356   0.60118   0.26764   0.00000  Uiso   1.00
N273   N     0.99927   0.94981   0.41245   0.00000  Uiso   1.00
N274   N     0.36678   0.23084   0.34329   0.00000  Uiso   1.00
N275   N     0.68274   0.72087   0.23296   0.00000  Uiso   1.00
N276   N     0.04845   0.06949   0.37777   0.00000  Uiso   1.00
C277   C     0.62310   0.14581   0.10575   0.00000  Uiso   1.00
C278   C     0.52928   0.06738   0.10340   0.00000  Uiso   1.00
C279   C     0.51708   0.97404   0.12075   0.00000  Uiso   1.00
C280   C     0.42560   0.91314   0.11515   0.00000  Uiso   1.00
C281   C     0.29158   0.78656   0.11486   0.00000  Uiso   1.00
C282   C     0.66984   0.15444   0.07299   0.00000  Uiso   1.00
C283   C     0.77581   0.13432   0.06477   0.00000  Uiso   1.00
C284   C     0.80265   0.14673   0.03356   0.00000  Uiso   1.00
C285   C     0.88686   0.15539   0.98607   0.00000  Uiso   1.00
C286   C     0.57374   0.25522   0.11290   0.00000  Uiso   1.00
C287   C     0.59894   0.31985   0.13823   0.00000  Uiso   1.00
C288   C     0.54490   0.41712   0.14063   0.00000  Uiso   1.00
C289   C     0.47991   0.58225   0.15510   0.00000  Uiso   1.00
C290   C     0.48236   0.20364   0.06497   0.00000  Uiso   1.00
C291   C     0.45284   0.09880   0.08125   0.00000  Uiso   1.00
C292   C     0.36136   0.03803   0.07562   0.00000  Uiso   1.00
C293   C     0.34902   0.94461   0.09295   0.00000  Uiso   1.00
C294   C     0.59340   0.18586   0.05084   0.00000  Uiso   1.00
C295   C     0.62009   0.19831   0.01964   0.00000  Uiso   1.00
C296   C     0.72607   0.17820   0.01137   0.00000  Uiso   1.00
C297   C     0.49730   0.28664   0.09075   0.00000  Uiso   1.00
C298   C     0.44322   0.38383   0.09311   0.00000  Uiso   1.00
C299   C     0.46831   0.44859   0.11844   0.00000  Uiso   1.00
H300   H     0.68262   0.12135   0.12300   0.00000  Uiso   1.00
H301   H     0.57626   0.94975   0.13789   0.00000  Uiso   1.00
H302   H     0.83495   0.11002   0.08192   0.00000  Uiso   1.00
H303   H     0.65810   0.29551   0.15537   0.00000  Uiso   1.00
H304   H     0.42464   0.77333   0.14462   0.00000  Uiso   1.00
H305   H     0.97011   0.11130   0.02660   0.00000  Uiso   1.00
H306   H     0.59720   0.50245   0.18150   0.00000  Uiso   1.00
H307   H     0.42284   0.22810   0.04772   0.00000  Uiso   1.00
H308   H     0.30222   0.06236   0.05848   0.00000  Uiso   1.00
H309   H     0.56091   0.22263   0.00251   0.00000  Uiso   1.00
H310   H     0.38406   0.40812   0.07596   0.00000  Uiso   1.00
H311   H     0.20222   0.86473   0.08016   0.00000  Uiso   1.00
H312   H     0.74770   0.20270   0.96215   0.00000  Uiso   1.00
H313   H     0.37478   0.59385   0.11704   0.00000  Uiso   1.00
O314   O     0.23879   0.70806   0.12082   0.00000  Uiso   1.00
O315   O     0.95443   0.15148   0.96599   0.00000  Uiso   1.00
O316   O     0.46517   0.66465   0.16921   0.00000  Uiso   1.00
N317   N     0.38884   0.81760   0.12798   0.00000  Uiso   1.00
N318   N     0.89882   0.13356   0.01764   0.00000  Uiso   1.00
N319   N     0.55019   0.49927   0.16245   0.00000  Uiso   1.00
N320   N     0.26916   0.86678   0.09329   0.00000  Uiso   1.00
N321   N     0.77913   0.18274   0.98296   0.00000  Uiso   1.00
N322   N     0.43051   0.54845   0.12777   0.00000  Uiso   1.00
C323   C     0.37690   0.85419   0.60575   0.00000  Uiso   1.00
C324   C     0.47072   0.93262   0.60340   0.00000  Uiso   1.00
C325   C     0.48292   0.02596   0.62075   0.00000  Uiso   1.00
C326   C     0.57440   0.08686   0.61515   0.00000  Uiso   1.00
C327   C     0.70842   0.21344   0.61486   0.00000  Uiso   1.00
C328   C     0.33016   0.84556   0.57299   0.00000  Uiso   1.00
C329   C     0.22419   0.86568   0.56477   0.00000  Uiso   1.00
C330   C     0.19735   0.85327   0.53356   0.00000  Uiso   1.00
C331   C     0.11314   0.84461   0.48607   0.00000  Uiso   1.00
C332   C     0.42626   0.74478   0.61290   0.00000  Uiso   1.00
C333   C     0.40106   0.68015   0.63823   0.00000  Uiso   1.00
C334   C     0.45510   0.58288   0.64063   0.00000  Uiso   1.00
C335   C     0.52009   0.41775   0.65510   0.00000  Uiso   1.00
C336   C     0.51764   0.79636   0.56497   0.00000  Uiso   1.00
C337   C     0.54716   0.90120   0.58125   0.00000  Uiso   1.00
C338   C     0.63864   0.96197   0.57562   0.00000  Uiso   1.00
C339   C     0.65098   0.05539   0.59295   0.00000  Uiso   1.00
C340   C     0.40660   0.81414   0.55084   0.00000  Uiso   1.00
C341   C     0.37991   0.80169   0.51964   0.00000  Uiso   1.00
C342   C     0.27393   0.82180   0.51137   0.00000  Uiso   1.00
C343   C     0.50270   0.71336   0.59075   0.00000  Uiso   1.00
C344   C     0.55678   0.61617   0.59311   0.00000  Uiso   1.00
C345   C     0.53169   0.55141   0.61844   0.00000  Uiso   1.00
H346   H     0.31738   0.87865   0.62300   0.00000  Uiso   1.00
H347   H     0.42374   0.05025   0.63789   0.00000  Uiso   1.00
H348   H     0.16505   0.88998   0.58192   0.00000  Uiso   1.00
H349   H     0.34190   0.70449   0.65537   0.00000  Uiso   1.00
H350   H     0.57536   0.22667   0.64462   0.00000  Uiso   1.00
H351   H     0.02989   0.88870   0.52660   0.00000  Uiso   1.00
H352   H     0.40280   0.49755   0.68150   0.00000  Uiso   1.00
H353   H     0.57716   0.77190   0.54772   0.00000  Uiso   1.00
H354   H     0.69778   0.93764   0.55848   0.00000  Uiso   1.00
H355   H     0.43909   0.77737   0.50251   0.00000  Uiso   1.00
H356   H     0.61594   0.59188   0.57596   0.00000  Uiso   1.00
H357   H     0.79778   0.13527   0.58016   0.00000  Uiso   1.00
H358   H     0.25230   0.79730   0.46215   0.00000  Uiso   1.00
H359   H     0.62522   0.40615   0.61704   0.00000  Uiso   1.00
O360   O     0.76121   0.29194   0.62082   0.00000  Uiso   1.00
O361   O     0.04557   0.84852   0.46599   0.00000  Uiso   1.00
O362   O     0.53483   0.33535   0.66921   0.00000  Uiso   1.00
N363   N     0.61116   0.18240   0.62798   0.00000  Uiso   1.00
N364   N     0.10118   0.86644   0.51764   0.00000  Uiso   1.00
N365   N     0.44981   0.50073   0.66245   0.00000  Uiso   1.00
N366   N     0.73084   0.13322   0.59329   0.00000  Uiso   1.00
N367   N     0.22087   0.81726   0.48296   0.00000  Uiso   1.00
N368   N     0.56949   0.45155   0.62777   0.00000  Uiso   1.00
