data_job_03301
_audit_creation_date              2018-12-19
_audit_creation_method            'Materials Studio'
_symmetry_space_group_name_H-M    'P1'
_symmetry_Int_Tables_number       1
_symmetry_cell_setting            triclinic
loop_
_symmetry_equiv_pos_as_xyz
  x,y,z
_cell_length_a                    18.5073
_cell_length_b                    12.4640
_cell_length_c                    22.6080
_cell_angle_alpha                 90.0000
_cell_angle_beta                  79.0829
_cell_angle_gamma                 90.0000
loop_
_atom_site_label
_atom_site_type_symbol
_atom_site_fract_x
_atom_site_fract_y
_atom_site_fract_z
_atom_site_U_iso_or_equiv
_atom_site_adp_type
_atom_site_occupancy
C1     C     0.19406   0.40609   0.08597   0.00000  Uiso   1.00
C2     C     0.22472   0.49115   0.03946   0.00000  Uiso   1.00
C3     C     0.19290   0.59009   0.03264   0.00000  Uiso   1.00
C4     C     0.22951   0.65655   0.98743   0.00000  Uiso   1.00
C5     C     0.26706   0.79338   0.92083   0.00000  Uiso   1.00
C6     C     0.18595   0.30425   0.05042   0.00000  Uiso   1.00
C7     C     0.12153   0.24605   0.05282   0.00000  Uiso   1.00
C8     C     0.12550   0.15517   0.01683   0.00000  Uiso   1.00
C9     C     0.10287   0.00180   0.96728   0.00000  Uiso   1.00
C10    C     0.25483   0.38317   0.12130   0.00000  Uiso   1.00
C11    C     0.24832   0.39130   0.18331   0.00000  Uiso   1.00
C12    C     0.31028   0.36684   0.20701   0.00000  Uiso   1.00
C13    C     0.39460   0.33602   0.26752   0.00000  Uiso   1.00
C14    C     0.31566   0.34816   0.01780   0.00000  Uiso   1.00
C15    C     0.29077   0.45968   0.00243   0.00000  Uiso   1.00
C16    C     0.32744   0.52600   0.95722   0.00000  Uiso   1.00
C17    C     0.29568   0.62503   0.95034   0.00000  Uiso   1.00
C18    C     0.25200   0.27278   0.01339   0.00000  Uiso   1.00
C19    C     0.25607   0.18196   0.97740   0.00000  Uiso   1.00
C20    C     0.19167   0.12364   0.97974   0.00000  Uiso   1.00
C21    C     0.32088   0.35171   0.08428   0.00000  Uiso   1.00
C22    C     0.38286   0.32722   0.10789   0.00000  Uiso   1.00
C23    C     0.37645   0.33532   0.16992   0.00000  Uiso   1.00
H24    H     0.14263   0.43058   0.11479   0.00000  Uiso   1.00
H25    H     0.14178   0.61441   0.06130   0.00000  Uiso   1.00
H26    H     0.07043   0.27041   0.08148   0.00000  Uiso   1.00
H27    H     0.19720   0.41565   0.21195   0.00000  Uiso   1.00
H28    H     0.16995   0.80432   0.98565   0.00000  Uiso   1.00
H29    H     0.01950   0.07897   0.02821   0.00000  Uiso   1.00
H30    H     0.28683   0.38523   0.30334   0.00000  Uiso   1.00
H31    H     0.36709   0.32366   0.98897   0.00000  Uiso   1.00
H32    H     0.37856   0.50163   0.92858   0.00000  Uiso   1.00
H33    H     0.30719   0.15763   0.94875   0.00000  Uiso   1.00
H34    H     0.43397   0.30288   0.07922   0.00000  Uiso   1.00
H35    H     0.36212   0.71279   0.87793   0.00000  Uiso   1.00
H36    H     0.21166   0.98743   0.92049   0.00000  Uiso   1.00
H37    H     0.47900   0.29370   0.19561   0.00000  Uiso   1.00
O38    O     0.26952   0.87754   0.89432   0.00000  Uiso   1.00
O39    O     0.07213   0.92590   0.95017   0.00000  Uiso   1.00
O40    O     0.42286   0.32772   0.31112   0.00000  Uiso   1.00
N41    N     0.21362   0.75836   0.96860   0.00000  Uiso   1.00
N42    N     0.07294   0.08021   0.00838   0.00000  Uiso   1.00
N43    N     0.32287   0.36652   0.26560   0.00000  Uiso   1.00
N44    N     0.31702   0.70911   0.91063   0.00000  Uiso   1.00
N45    N     0.17635   0.03096   0.95041   0.00000  Uiso   1.00
N46    N     0.42627   0.31726   0.20764   0.00000  Uiso   1.00
C47    C     0.80594   0.40609   0.41403   0.00000  Uiso   1.00
C48    C     0.77528   0.49115   0.46054   0.00000  Uiso   1.00
C49    C     0.80710   0.59009   0.46736   0.00000  Uiso   1.00
C50    C     0.77049   0.65655   0.51257   0.00000  Uiso   1.00
C51    C     0.73294   0.79338   0.57917   0.00000  Uiso   1.00
C52    C     0.81405   0.30425   0.44958   0.00000  Uiso   1.00
C53    C     0.87847   0.24605   0.44718   0.00000  Uiso   1.00
C54    C     0.87450   0.15517   0.48317   0.00000  Uiso   1.00
C55    C     0.89713   0.00180   0.53272   0.00000  Uiso   1.00
C56    C     0.74517   0.38317   0.37870   0.00000  Uiso   1.00
C57    C     0.75168   0.39130   0.31669   0.00000  Uiso   1.00
C58    C     0.68972   0.36684   0.29299   0.00000  Uiso   1.00
C59    C     0.60540   0.33602   0.23248   0.00000  Uiso   1.00
C60    C     0.68434   0.34816   0.48220   0.00000  Uiso   1.00
C61    C     0.70923   0.45968   0.49757   0.00000  Uiso   1.00
C62    C     0.67256   0.52600   0.54278   0.00000  Uiso   1.00
C63    C     0.70432   0.62503   0.54966   0.00000  Uiso   1.00
C64    C     0.74800   0.27278   0.48661   0.00000  Uiso   1.00
C65    C     0.74393   0.18196   0.52260   0.00000  Uiso   1.00
C66    C     0.80833   0.12364   0.52026   0.00000  Uiso   1.00
C67    C     0.67912   0.35171   0.41572   0.00000  Uiso   1.00
C68    C     0.61714   0.32722   0.39211   0.00000  Uiso   1.00
C69    C     0.62355   0.33532   0.33008   0.00000  Uiso   1.00
H70    H     0.85737   0.43058   0.38521   0.00000  Uiso   1.00
H71    H     0.85822   0.61441   0.43870   0.00000  Uiso   1.00
H72    H     0.92957   0.27041   0.41852   0.00000  Uiso   1.00
H73    H     0.80280   0.41565   0.28805   0.00000  Uiso   1.00
H74    H     0.83005   0.80432   0.51435   0.00000  Uiso   1.00
H75    H     0.98050   0.07897   0.47179   0.00000  Uiso   1.00
H76    H     0.71317   0.38523   0.19666   0.00000  Uiso   1.00
H77    H     0.63291   0.32366   0.51103   0.00000  Uiso   1.00
H78    H     0.62144   0.50163   0.57142   0.00000  Uiso   1.00
H79    H     0.69281   0.15763   0.55125   0.00000  Uiso   1.00
H80    H     0.56603   0.30288   0.42078   0.00000  Uiso   1.00
H81    H     0.63788   0.71279   0.62207   0.00000  Uiso   1.00
H82    H     0.78834   0.98743   0.57951   0.00000  Uiso   1.00
H83    H     0.52100   0.29370   0.30439   0.00000  Uiso   1.00
O84    O     0.73048   0.87754   0.60568   0.00000  Uiso   1.00
O85    O     0.92787   0.92590   0.54983   0.00000  Uiso   1.00
O86    O     0.57714   0.32772   0.18888   0.00000  Uiso   1.00
N87    N     0.78638   0.75836   0.53140   0.00000  Uiso   1.00
N88    N     0.92706   0.08021   0.49162   0.00000  Uiso   1.00
N89    N     0.67713   0.36652   0.23440   0.00000  Uiso   1.00
N90    N     0.68298   0.70911   0.58937   0.00000  Uiso   1.00
N91    N     0.82365   0.03096   0.54959   0.00000  Uiso   1.00
N92    N     0.57373   0.31726   0.29236   0.00000  Uiso   1.00
C93    C     0.80594   0.59391   0.91403   0.00000  Uiso   1.00
C94    C     0.77528   0.50885   0.96054   0.00000  Uiso   1.00
C95    C     0.80710   0.40991   0.96736   0.00000  Uiso   1.00
C96    C     0.77049   0.34345   0.01257   0.00000  Uiso   1.00
C97    C     0.73294   0.20662   0.07917   0.00000  Uiso   1.00
C98    C     0.81405   0.69575   0.94958   0.00000  Uiso   1.00
C99    C     0.87847   0.75395   0.94718   0.00000  Uiso   1.00
C100   C     0.87450   0.84483   0.98317   0.00000  Uiso   1.00
C101   C     0.89713   0.99820   0.03272   0.00000  Uiso   1.00
C102   C     0.74517   0.61683   0.87870   0.00000  Uiso   1.00
C103   C     0.75168   0.60870   0.81669   0.00000  Uiso   1.00
C104   C     0.68972   0.63316   0.79299   0.00000  Uiso   1.00
C105   C     0.60540   0.66398   0.73248   0.00000  Uiso   1.00
C106   C     0.68434   0.65184   0.98220   0.00000  Uiso   1.00
C107   C     0.70923   0.54032   0.99757   0.00000  Uiso   1.00
C108   C     0.67256   0.47400   0.04278   0.00000  Uiso   1.00
C109   C     0.70432   0.37497   0.04966   0.00000  Uiso   1.00
C110   C     0.74800   0.72722   0.98661   0.00000  Uiso   1.00
C111   C     0.74393   0.81804   0.02260   0.00000  Uiso   1.00
C112   C     0.80833   0.87636   0.02026   0.00000  Uiso   1.00
C113   C     0.67912   0.64829   0.91572   0.00000  Uiso   1.00
C114   C     0.61714   0.67278   0.89211   0.00000  Uiso   1.00
C115   C     0.62355   0.66468   0.83008   0.00000  Uiso   1.00
H116   H     0.85737   0.56942   0.88521   0.00000  Uiso   1.00
H117   H     0.85822   0.38559   0.93870   0.00000  Uiso   1.00
H118   H     0.92957   0.72959   0.91852   0.00000  Uiso   1.00
H119   H     0.80280   0.58435   0.78805   0.00000  Uiso   1.00
H120   H     0.83005   0.19568   0.01435   0.00000  Uiso   1.00
H121   H     0.98050   0.92103   0.97179   0.00000  Uiso   1.00
H122   H     0.71317   0.61477   0.69666   0.00000  Uiso   1.00
H123   H     0.63291   0.67634   0.01103   0.00000  Uiso   1.00
H124   H     0.62144   0.49837   0.07142   0.00000  Uiso   1.00
H125   H     0.69281   0.84237   0.05125   0.00000  Uiso   1.00
H126   H     0.56603   0.69712   0.92078   0.00000  Uiso   1.00
H127   H     0.63788   0.28721   0.12207   0.00000  Uiso   1.00
H128   H     0.78834   0.01257   0.07951   0.00000  Uiso   1.00
H129   H     0.52100   0.70630   0.80439   0.00000  Uiso   1.00
O130   O     0.73048   0.12246   0.10568   0.00000  Uiso   1.00
O131   O     0.92787   0.07410   0.04983   0.00000  Uiso   1.00
O132   O     0.57714   0.67228   0.68888   0.00000  Uiso   1.00
N133   N     0.78638   0.24164   0.03140   0.00000  Uiso   1.00
N134   N     0.92706   0.91979   0.99162   0.00000  Uiso   1.00
N135   N     0.67713   0.63348   0.73440   0.00000  Uiso   1.00
N136   N     0.68298   0.29089   0.08937   0.00000  Uiso   1.00
N137   N     0.82365   0.96904   0.04959   0.00000  Uiso   1.00
N138   N     0.57373   0.68274   0.79236   0.00000  Uiso   1.00
C139   C     0.19406   0.59391   0.58597   0.00000  Uiso   1.00
C140   C     0.22472   0.50885   0.53946   0.00000  Uiso   1.00
C141   C     0.19290   0.40991   0.53264   0.00000  Uiso   1.00
C142   C     0.22951   0.34345   0.48743   0.00000  Uiso   1.00
C143   C     0.26706   0.20662   0.42083   0.00000  Uiso   1.00
C144   C     0.18595   0.69575   0.55042   0.00000  Uiso   1.00
C145   C     0.12153   0.75395   0.55282   0.00000  Uiso   1.00
C146   C     0.12550   0.84483   0.51683   0.00000  Uiso   1.00
C147   C     0.10287   0.99820   0.46728   0.00000  Uiso   1.00
C148   C     0.25483   0.61683   0.62130   0.00000  Uiso   1.00
C149   C     0.24832   0.60870   0.68331   0.00000  Uiso   1.00
C150   C     0.31028   0.63316   0.70701   0.00000  Uiso   1.00
C151   C     0.39460   0.66398   0.76752   0.00000  Uiso   1.00
C152   C     0.31566   0.65184   0.51780   0.00000  Uiso   1.00
C153   C     0.29077   0.54032   0.50243   0.00000  Uiso   1.00
C154   C     0.32744   0.47400   0.45722   0.00000  Uiso   1.00
C155   C     0.29568   0.37497   0.45034   0.00000  Uiso   1.00
C156   C     0.25200   0.72722   0.51339   0.00000  Uiso   1.00
C157   C     0.25607   0.81804   0.47740   0.00000  Uiso   1.00
C158   C     0.19167   0.87636   0.47974   0.00000  Uiso   1.00
C159   C     0.32088   0.64829   0.58428   0.00000  Uiso   1.00
C160   C     0.38286   0.67278   0.60789   0.00000  Uiso   1.00
C161   C     0.37645   0.66468   0.66992   0.00000  Uiso   1.00
H162   H     0.14263   0.56942   0.61479   0.00000  Uiso   1.00
H163   H     0.14178   0.38559   0.56130   0.00000  Uiso   1.00
H164   H     0.07043   0.72959   0.58148   0.00000  Uiso   1.00
H165   H     0.19720   0.58435   0.71195   0.00000  Uiso   1.00
H166   H     0.16995   0.19568   0.48565   0.00000  Uiso   1.00
H167   H     0.01950   0.92103   0.52821   0.00000  Uiso   1.00
H168   H     0.28683   0.61477   0.80334   0.00000  Uiso   1.00
H169   H     0.36709   0.67634   0.48897   0.00000  Uiso   1.00
H170   H     0.37856   0.49837   0.42858   0.00000  Uiso   1.00
H171   H     0.30719   0.84237   0.44875   0.00000  Uiso   1.00
H172   H     0.43397   0.69712   0.57922   0.00000  Uiso   1.00
H173   H     0.36212   0.28721   0.37793   0.00000  Uiso   1.00
H174   H     0.21166   0.01257   0.42049   0.00000  Uiso   1.00
H175   H     0.47900   0.70630   0.69561   0.00000  Uiso   1.00
O176   O     0.26952   0.12246   0.39432   0.00000  Uiso   1.00
O177   O     0.07213   0.07410   0.45017   0.00000  Uiso   1.00
O178   O     0.42286   0.67228   0.81112   0.00000  Uiso   1.00
N179   N     0.21362   0.24164   0.46860   0.00000  Uiso   1.00
N180   N     0.07294   0.91979   0.50838   0.00000  Uiso   1.00
N181   N     0.32287   0.63348   0.76560   0.00000  Uiso   1.00
N182   N     0.31702   0.29089   0.41063   0.00000  Uiso   1.00
N183   N     0.17635   0.96904   0.45041   0.00000  Uiso   1.00
N184   N     0.42627   0.68274   0.70764   0.00000  Uiso   1.00
