data_job_00798
_audit_creation_date              2018-12-19
_audit_creation_method            'Materials Studio'
_symmetry_space_group_name_H-M    'P1'
_symmetry_Int_Tables_number       1
_symmetry_cell_setting            triclinic
loop_
_symmetry_equiv_pos_as_xyz
  x,y,z
_cell_length_a                    11.4629
_cell_length_b                    11.7203
_cell_length_c                    11.7404
_cell_angle_alpha                 100.3431
_cell_angle_beta                  116.2023
_cell_angle_gamma                 63.8983
loop_
_atom_site_label
_atom_site_type_symbol
_atom_site_fract_x
_atom_site_fract_y
_atom_site_fract_z
_atom_site_U_iso_or_equiv
_atom_site_adp_type
_atom_site_occupancy
C1     C     0.23722   0.82197   0.36680   0.00000  Uiso   1.00
C2     C     0.28163   0.68538   0.40180   0.00000  Uiso   1.00
C3     C     0.34843   0.57724   0.34527   0.00000  Uiso   1.00
C4     C     0.38027   0.46098   0.39083   0.00000  Uiso   1.00
C5     C     0.45430   0.25006   0.43014   0.00000  Uiso   1.00
C6     C     0.07794   0.88949   0.33403   0.00000  Uiso   1.00
C7     C     0.97349   0.95297   0.22053   0.00000  Uiso   1.00
C8     C     0.83387   0.00855   0.20906   0.00000  Uiso   1.00
C9     C     0.59169   0.11459   0.14319   0.00000  Uiso   1.00
C10    C     0.30943   0.88135   0.48890   0.00000  Uiso   1.00
C11    C     0.39958   0.93804   0.50561   0.00000  Uiso   1.00
C12    C     0.45483   0.98679   0.62452   0.00000  Uiso   1.00
C13    C     0.57206   0.08020   0.79911   0.00000  Uiso   1.00
C14    C     0.17499   0.80781   0.54825   0.00000  Uiso   1.00
C15    C     0.24782   0.67769   0.50035   0.00000  Uiso   1.00
C16    C     0.27958   0.56157   0.54602   0.00000  Uiso   1.00
C17    C     0.34641   0.45327   0.48957   0.00000  Uiso   1.00
C18    C     0.04414   0.88180   0.43258   0.00000  Uiso   1.00
C19    C     0.90464   0.93730   0.42128   0.00000  Uiso   1.00
C20    C     0.80000   0.00085   0.30779   0.00000  Uiso   1.00
C21    C     0.27563   0.87366   0.58746   0.00000  Uiso   1.00
C22    C     0.33073   0.92235   0.70636   0.00000  Uiso   1.00
C23    C     0.42096   0.97909   0.72325   0.00000  Uiso   1.00
H24    H     0.26352   0.82797   0.29007   0.00000  Uiso   1.00
H25    H     0.37455   0.58323   0.26899   0.00000  Uiso   1.00
H26    H     0.99968   0.95892   0.14428   0.00000  Uiso   1.00
H27    H     0.42571   0.94397   0.42932   0.00000  Uiso   1.00
H28    H     0.48270   0.30851   0.28906   0.00000  Uiso   1.00
H29    H     0.69226   0.10070   0.02612   0.00000  Uiso   1.00
H30    H     0.59063   0.06918   0.62717   0.00000  Uiso   1.00
H31    H     0.14867   0.80182   0.62498   0.00000  Uiso   1.00
H32    H     0.25341   0.55564   0.62229   0.00000  Uiso   1.00
H33    H     0.87852   0.93134   0.49757   0.00000  Uiso   1.00
H34    H     0.30456   0.91638   0.78261   0.00000  Uiso   1.00
H35    H     0.38436   0.28611   0.57580   0.00000  Uiso   1.00
H36    H     0.59392   0.07832   0.31286   0.00000  Uiso   1.00
H37    H     0.49229   0.04679   0.91392   0.00000  Uiso   1.00
O38    O     0.50446   0.13584   0.42459   0.00000  Uiso   1.00
O39    O     0.46744   0.17519   0.07963   0.00000  Uiso   1.00
O40    O     0.64608   0.13383   0.86820   0.00000  Uiso   1.00
N41    N     0.44521   0.33702   0.35693   0.00000  Uiso   1.00
N42    N     0.70619   0.07766   0.11109   0.00000  Uiso   1.00
N43    N     0.54606   0.04822   0.67301   0.00000  Uiso   1.00
N44    N     0.39230   0.32497   0.51123   0.00000  Uiso   1.00
N45    N     0.65328   0.06561   0.26538   0.00000  Uiso   1.00
N46    N     0.49315   0.03617   0.82731   0.00000  Uiso   1.00
C47    C     0.65990   0.67537   0.13919   0.00000  Uiso   1.00
C48    C     0.70642   0.63971   0.27594   0.00000  Uiso   1.00
C49    C     0.77349   0.69668   0.38364   0.00000  Uiso   1.00
C50    C     0.80739   0.65037   0.50013   0.00000  Uiso   1.00
C51    C     0.88444   0.61021   0.71119   0.00000  Uiso   1.00
C52    C     0.50081   0.70679   0.07293   0.00000  Uiso   1.00
C53    C     0.39502   0.82016   0.00993   0.00000  Uiso   1.00
C54    C     0.25584   0.83032   0.95550   0.00000  Uiso   1.00
C55    C     0.01370   0.89427   0.85131   0.00000  Uiso   1.00
C56    C     0.73197   0.55383   0.07922   0.00000  Uiso   1.00
C57    C     0.82050   0.53860   0.02148   0.00000  Uiso   1.00
C58    C     0.87592   0.41997   0.97234   0.00000  Uiso   1.00
C59    C     0.99268   0.24643   0.87792   0.00000  Uiso   1.00
C60    C     0.60083   0.49182   0.15454   0.00000  Uiso   1.00
C61    C     0.67433   0.54001   0.28427   0.00000  Uiso   1.00
C62    C     0.70814   0.49360   0.40063   0.00000  Uiso   1.00
C63    C     0.77526   0.55049   0.50849   0.00000  Uiso   1.00
C64    C     0.46872   0.60710   0.08126   0.00000  Uiso   1.00
C65    C     0.32967   0.61709   0.02691   0.00000  Uiso   1.00
C66    C     0.22370   0.73044   0.96386   0.00000  Uiso   1.00
C67    C     0.69989   0.45413   0.08756   0.00000  Uiso   1.00
C68    C     0.75516   0.33552   0.03848   0.00000  Uiso   1.00
C69    C     0.84377   0.32010   0.98069   0.00000  Uiso   1.00
H70    H     0.68486   0.75299   0.13269   0.00000  Uiso   1.00
H71    H     0.79829   0.77384   0.37715   0.00000  Uiso   1.00
H72    H     0.41988   0.89729   0.00348   0.00000  Uiso   1.00
H73    H     0.84531   0.61577   0.01505   0.00000  Uiso   1.00
H74    H     0.90985   0.75302   0.65185   0.00000  Uiso   1.00
H75    H     0.11196   0.01331   0.86391   0.00000  Uiso   1.00
H76    H     0.00905   0.41966   0.88830   0.00000  Uiso   1.00
H77    H     0.57585   0.41420   0.16103   0.00000  Uiso   1.00
H78    H     0.68330   0.41645   0.40705   0.00000  Uiso   1.00
H79    H     0.30489   0.53991   0.03338   0.00000  Uiso   1.00
H80    H     0.73031   0.25839   0.04495   0.00000  Uiso   1.00
H81    H     0.81651   0.46295   0.67612   0.00000  Uiso   1.00
H82    H     0.01862   0.72325   0.88818   0.00000  Uiso   1.00
H83    H     0.91571   0.12959   0.91257   0.00000  Uiso   1.00
O84    O     0.93579   0.61561   0.82531   0.00000  Uiso   1.00
O85    O     0.88899   0.95710   0.79155   0.00000  Uiso   1.00
O86    O     0.06596   0.17824   0.82356   0.00000  Uiso   1.00
N87    N     0.87316   0.68442   0.62380   0.00000  Uiso   1.00
N88    N     0.12718   0.92779   0.88714   0.00000  Uiso   1.00
N89    N     0.96585   0.37279   0.90992   0.00000  Uiso   1.00
N90    N     0.82294   0.52834   0.63686   0.00000  Uiso   1.00
N91    N     0.07696   0.77171   0.90020   0.00000  Uiso   1.00
N92    N     0.91563   0.21671   0.92298   0.00000  Uiso   1.00
