data_job_06752
_audit_creation_date              2018-12-19
_audit_creation_method            'Materials Studio'
_symmetry_space_group_name_H-M    'P1'
_symmetry_Int_Tables_number       1
_symmetry_cell_setting            triclinic
loop_
_symmetry_equiv_pos_as_xyz
  x,y,z
_cell_length_a                    19.7652
_cell_length_b                    22.9319
_cell_length_c                    23.9175
_cell_angle_alpha                 82.1470
_cell_angle_beta                  113.1570
_cell_angle_gamma                 73.8617
loop_
_atom_site_label
_atom_site_type_symbol
_atom_site_fract_x
_atom_site_fract_y
_atom_site_fract_z
_atom_site_U_iso_or_equiv
_atom_site_adp_type
_atom_site_occupancy
C1     C     0.29663   0.38978   0.94695   0.00000  Uiso   1.00
C2     C     0.33181   0.36522   0.90450   0.00000  Uiso   1.00
C3     C     0.40187   0.31466   0.92448   0.00000  Uiso   1.00
C4     C     0.42391   0.29961   0.87830   0.00000  Uiso   1.00
C5     C     0.48561   0.25628   0.82210   0.00000  Uiso   1.00
C6     C     0.28591   0.45954   0.93562   0.00000  Uiso   1.00
C7     C     0.31737   0.48827   0.98178   0.00000  Uiso   1.00
C8     C     0.30075   0.55261   0.96181   0.00000  Uiso   1.00
C9     C     0.29115   0.65572   0.95393   0.00000  Uiso   1.00
C10    C     0.21362   0.38787   0.92018   0.00000  Uiso   1.00
C11    C     0.18429   0.35636   0.95336   0.00000  Uiso   1.00
C12    C     0.10680   0.36037   0.92038   0.00000  Uiso   1.00
C13    C     0.98496   0.35221   0.88854   0.00000  Uiso   1.00
C14    C     0.21118   0.45296   0.82941   0.00000  Uiso   1.00
C15    C     0.28540   0.39954   0.84065   0.00000  Uiso   1.00
C16    C     0.30733   0.38456   0.79443   0.00000  Uiso   1.00
C17    C     0.37741   0.33398   0.81434   0.00000  Uiso   1.00
C18    C     0.23950   0.49385   0.87178   0.00000  Uiso   1.00
C19    C     0.22283   0.55817   0.85173   0.00000  Uiso   1.00
C20    C     0.25425   0.58699   0.89784   0.00000  Uiso   1.00
C21    C     0.16721   0.42219   0.85634   0.00000  Uiso   1.00
C22    C     0.08975   0.42626   0.82331   0.00000  Uiso   1.00
C23    C     0.06030   0.39475   0.85642   0.00000  Uiso   1.00
H24    H     0.33277   0.36306   0.99666   0.00000  Uiso   1.00
H25    H     0.43778   0.28812   0.97389   0.00000  Uiso   1.00
H26    H     0.35328   0.46170   0.03119   0.00000  Uiso   1.00
H27    H     0.22022   0.32981   0.00276   0.00000  Uiso   1.00
H28    H     0.53375   0.22018   0.92050   0.00000  Uiso   1.00
H29    H     0.35556   0.58619   0.04131   0.00000  Uiso   1.00
H30    H     0.07498   0.30807   0.98138   0.00000  Uiso   1.00
H31    H     0.17504   0.47968   0.77970   0.00000  Uiso   1.00
H32    H     0.27140   0.41113   0.74503   0.00000  Uiso   1.00
H33    H     0.18690   0.58471   0.80232   0.00000  Uiso   1.00
H34    H     0.05384   0.45282   0.77390   0.00000  Uiso   1.00
H35    H     0.39871   0.32002   0.73475   0.00000  Uiso   1.00
H36    H     0.22051   0.68603   0.85555   0.00000  Uiso   1.00
H37    H     0.93994   0.40791   0.79562   0.00000  Uiso   1.00
O38    O     0.53248   0.22291   0.80873   0.00000  Uiso   1.00
O39    O     0.29868   0.70311   0.96723   0.00000  Uiso   1.00
O40    O     0.93057   0.33821   0.88860   0.00000  Uiso   1.00
N41    N     0.48874   0.25307   0.88154   0.00000  Uiso   1.00
N42    N     0.32215   0.59527   0.99449   0.00000  Uiso   1.00
N43    N     0.05982   0.33526   0.93846   0.00000  Uiso   1.00
N44    N     0.41607   0.30680   0.78159   0.00000  Uiso   1.00
N45    N     0.24948   0.64900   0.89453   0.00000  Uiso   1.00
N46    N     0.98716   0.38899   0.83851   0.00000  Uiso   1.00
C47    C     0.85474   0.04418   0.48451   0.00000  Uiso   1.00
C48    C     0.89801   0.00038   0.55174   0.00000  Uiso   1.00
C49    C     0.90963   0.01920   0.60647   0.00000  Uiso   1.00
C50    C     0.95071   0.97189   0.66341   0.00000  Uiso   1.00
C51    C     0.01360   0.91358   0.76749   0.00000  Uiso   1.00
C52    C     0.91295   0.03003   0.45668   0.00000  Uiso   1.00
C53    C     0.93713   0.07378   0.43149   0.00000  Uiso   1.00
C54    C     0.99077   0.05143   0.40840   0.00000  Uiso   1.00
C55    C     0.07682   0.03916   0.36486   0.00000  Uiso   1.00
C56    C     0.78910   0.02163   0.44770   0.00000  Uiso   1.00
C57    C     0.70915   0.05832   0.41493   0.00000  Uiso   1.00
C58    C     0.65852   0.02890   0.38426   0.00000  Uiso   1.00
C59    C     0.55227   0.00359   0.32677   0.00000  Uiso   1.00
C60    C     0.90700   0.92669   0.48829   0.00000  Uiso   1.00
C61    C     0.92639   0.93656   0.55379   0.00000  Uiso   1.00
C62    C     0.96746   0.88921   0.61065   0.00000  Uiso   1.00
C63    C     0.97914   0.90796   0.66546   0.00000  Uiso   1.00
C64    C     0.94133   0.96621   0.45873   0.00000  Uiso   1.00
C65    C     0.99495   0.94379   0.43567   0.00000  Uiso   1.00
C66    C     0.01921   0.98749   0.41046   0.00000  Uiso   1.00
C67    C     0.81748   0.95781   0.44975   0.00000  Uiso   1.00
C68    C     0.76697   0.92833   0.41912   0.00000  Uiso   1.00
C69    C     0.68696   0.96497   0.38632   0.00000  Uiso   1.00
H70    H     0.83264   0.09387   0.48291   0.00000  Uiso   1.00
H71    H     0.88766   0.06860   0.60487   0.00000  Uiso   1.00
H72    H     0.91514   0.12316   0.42990   0.00000  Uiso   1.00
H73    H     0.68720   0.10771   0.41335   0.00000  Uiso   1.00
H74    H     0.96121   0.01243   0.74098   0.00000  Uiso   1.00
H75    H     0.01913   0.12750   0.37205   0.00000  Uiso   1.00
H76    H     0.53846   0.09491   0.33715   0.00000  Uiso   1.00
H77    H     0.92911   0.87700   0.48988   0.00000  Uiso   1.00
H78    H     0.98942   0.83983   0.61223   0.00000  Uiso   1.00
H79    H     0.01690   0.89440   0.43727   0.00000  Uiso   1.00
H80    H     0.78896   0.87894   0.42072   0.00000  Uiso   1.00
H81    H     0.04380   0.82676   0.74696   0.00000  Uiso   1.00
H82    H     0.10172   0.94182   0.37802   0.00000  Uiso   1.00
H83    H     0.62106   0.90923   0.34312   0.00000  Uiso   1.00
O84    O     0.04046   0.89905   0.82433   0.00000  Uiso   1.00
O85    O     0.11644   0.05002   0.34029   0.00000  Uiso   1.00
O86    O     0.48582   0.00726   0.29450   0.00000  Uiso   1.00
N87    N     0.97235   0.97383   0.72560   0.00000  Uiso   1.00
N88    N     0.02652   0.08141   0.38067   0.00000  Uiso   1.00
N89    N     0.57714   0.05095   0.34803   0.00000  Uiso   1.00
N90    N     0.01679   0.87392   0.72881   0.00000  Uiso   1.00
N91    N     0.07096   0.98150   0.38389   0.00000  Uiso   1.00
N92    N     0.62158   0.95104   0.35125   0.00000  Uiso   1.00
C93    C     0.39519   0.49666   0.44463   0.00000  Uiso   1.00
C94    C     0.32889   0.56143   0.41425   0.00000  Uiso   1.00
C95    C     0.32965   0.61428   0.37884   0.00000  Uiso   1.00
C96    C     0.26324   0.66911   0.35513   0.00000  Uiso   1.00
C97    C     0.17016   0.76940   0.30627   0.00000  Uiso   1.00
C98    C     0.41679   0.48099   0.51496   0.00000  Uiso   1.00
C99    C     0.49146   0.46619   0.56421   0.00000  Uiso   1.00
C100   C     0.49905   0.45330   0.62527   0.00000  Uiso   1.00
C101   C     0.54246   0.42867   0.73275   0.00000  Uiso   1.00
C102   C     0.35815   0.44990   0.41898   0.00000  Uiso   1.00
C103   C     0.38352   0.40895   0.38755   0.00000  Uiso   1.00
C104   C     0.34175   0.36987   0.36782   0.00000  Uiso   1.00
C105   C     0.29411   0.29697   0.32628   0.00000  Uiso   1.00
C106   C     0.27590   0.50006   0.46549   0.00000  Uiso   1.00
C107   C     0.26410   0.56328   0.42559   0.00000  Uiso   1.00
C108   C     0.19767   0.61804   0.40192   0.00000  Uiso   1.00
C109   C     0.19833   0.67096   0.36648   0.00000  Uiso   1.00
C110   C     0.35200   0.48284   0.52629   0.00000  Uiso   1.00
C111   C     0.35949   0.46996   0.58729   0.00000  Uiso   1.00
C112   C     0.43415   0.45515   0.63662   0.00000  Uiso   1.00
C113   C     0.29335   0.45175   0.43031   0.00000  Uiso   1.00
C114   C     0.25154   0.41272   0.41063   0.00000  Uiso   1.00
C115   C     0.27685   0.37172   0.37917   0.00000  Uiso   1.00
H116   H     0.44563   0.49522   0.43581   0.00000  Uiso   1.00
H117   H     0.37980   0.61283   0.37009   0.00000  Uiso   1.00
H118   H     0.54159   0.46476   0.55543   0.00000  Uiso   1.00
H119   H     0.43366   0.40754   0.37879   0.00000  Uiso   1.00
H120   H     0.27825   0.74404   0.30224   0.00000  Uiso   1.00
H121   H     0.61940   0.43181   0.69304   0.00000  Uiso   1.00
H122   H     0.39182   0.31113   0.32056   0.00000  Uiso   1.00
H123   H     0.22546   0.50150   0.47432   0.00000  Uiso   1.00
H124   H     0.14754   0.61946   0.41070   0.00000  Uiso   1.00
H125   H     0.30933   0.47139   0.59604   0.00000  Uiso   1.00
H126   H     0.20141   0.41416   0.41940   0.00000  Uiso   1.00
H127   H     0.08974   0.74942   0.33520   0.00000  Uiso   1.00
H128   H     0.43090   0.43719   0.72600   0.00000  Uiso   1.00
H129   H     0.20331   0.31651   0.35353   0.00000  Uiso   1.00
O130   O     0.13673   0.82422   0.27620   0.00000  Uiso   1.00
O131   O     0.58430   0.41458   0.78891   0.00000  Uiso   1.00
O132   O     0.28572   0.25625   0.30023   0.00000  Uiso   1.00
N133   N     0.24457   0.72912   0.31872   0.00000  Uiso   1.00
N134   N     0.56353   0.43721   0.68409   0.00000  Uiso   1.00
N135   N     0.35077   0.32437   0.33587   0.00000  Uiso   1.00
N136   N     0.14314   0.73201   0.33645   0.00000  Uiso   1.00
N137   N     0.46209   0.44011   0.70183   0.00000  Uiso   1.00
N138   N     0.24933   0.32727   0.35361   0.00000  Uiso   1.00
C139   C     0.44099   0.91129   0.53743   0.00000  Uiso   1.00
C140   C     0.41444   0.98266   0.51179   0.00000  Uiso   1.00
C141   C     0.41560   0.02568   0.54739   0.00000  Uiso   1.00
C142   C     0.38886   0.08895   0.51509   0.00000  Uiso   1.00
C143   C     0.35176   0.19681   0.48524   0.00000  Uiso   1.00
C144   C     0.50405   0.88204   0.51741   0.00000  Uiso   1.00
C145   C     0.58056   0.84045   0.55774   0.00000  Uiso   1.00
C146   C     0.62925   0.81902   0.53016   0.00000  Uiso   1.00
C147   C     0.73126   0.77062   0.50905   0.00000  Uiso   1.00
C148   C     0.37052   0.89373   0.50039   0.00000  Uiso   1.00
C149   C     0.33476   0.86197   0.52642   0.00000  Uiso   1.00
C150   C     0.27104   0.85036   0.48452   0.00000  Uiso   1.00
C151   C     0.16573   0.82013   0.43698   0.00000  Uiso   1.00
C152   C     0.39143   0.94714   0.41674   0.00000  Uiso   1.00
C153   C     0.38752   0.00213   0.44623   0.00000  Uiso   1.00
C154   C     0.36077   0.06535   0.41387   0.00000  Uiso   1.00
C155   C     0.36189   0.10846   0.44942   0.00000  Uiso   1.00
C156   C     0.47714   0.90151   0.45186   0.00000  Uiso   1.00
C157   C     0.52573   0.88013   0.42421   0.00000  Uiso   1.00
C158   C     0.60229   0.83853   0.46449   0.00000  Uiso   1.00
C159   C     0.34360   0.91321   0.43484   0.00000  Uiso   1.00
C160   C     0.27993   0.90165   0.39289   0.00000  Uiso   1.00
C161   C     0.24408   0.86987   0.41885   0.00000  Uiso   1.00
H162   H     0.46195   0.89612   0.58847   0.00000  Uiso   1.00
H163   H     0.43644   0.01059   0.59812   0.00000  Uiso   1.00
H164   H     0.60137   0.82539   0.60847   0.00000  Uiso   1.00
H165   H     0.35561   0.84690   0.57715   0.00000  Uiso   1.00
H166   H     0.39632   0.14608   0.57992   0.00000  Uiso   1.00
H167   H     0.74406   0.75556   0.60173   0.00000  Uiso   1.00
H168   H     0.22584   0.80093   0.53569   0.00000  Uiso   1.00
H169   H     0.37048   0.96231   0.36571   0.00000  Uiso   1.00
H170   H     0.33995   0.08041   0.36314   0.00000  Uiso   1.00
H171   H     0.50488   0.89521   0.37348   0.00000  Uiso   1.00
H172   H     0.25912   0.91673   0.34217   0.00000  Uiso   1.00
H173   H     0.31800   0.20276   0.38920   0.00000  Uiso   1.00
H174   H     0.66575   0.81223   0.41101   0.00000  Uiso   1.00
H175   H     0.14752   0.85760   0.34497   0.00000  Uiso   1.00
O176   O     0.33875   0.25092   0.48689   0.00000  Uiso   1.00
O177   O     0.79498   0.73855   0.51551   0.00000  Uiso   1.00
O178   O     0.11508   0.79808   0.42887   0.00000  Uiso   1.00
N179   N     0.38206   0.14322   0.53539   0.00000  Uiso   1.00
N180   N     0.70719   0.77810   0.55578   0.00000  Uiso   1.00
N181   N     0.22270   0.82050   0.49404   0.00000  Uiso   1.00
N182   N     0.33992   0.17371   0.43276   0.00000  Uiso   1.00
N183   N     0.66505   0.80860   0.45315   0.00000  Uiso   1.00
N184   N     0.18056   0.85100   0.39141   0.00000  Uiso   1.00
C185   C     0.38443   0.00548   0.90373   0.00000  Uiso   1.00
C186   C     0.42499   0.99277   0.97550   0.00000  Uiso   1.00
C187   C     0.50579   0.97313   0.01351   0.00000  Uiso   1.00
C188   C     0.53118   0.96412   0.07812   0.00000  Uiso   1.00
C189   C     0.60230   0.94285   0.18567   0.00000  Uiso   1.00
C190   C     0.32516   0.07325   0.87773   0.00000  Uiso   1.00
C191   C     0.32201   0.12127   0.83352   0.00000  Uiso   1.00
C192   C     0.26335   0.18001   0.81582   0.00000  Uiso   1.00
C193   C     0.17944   0.28368   0.77154   0.00000  Uiso   1.00
C194   C     0.33559   0.96339   0.89027   0.00000  Uiso   1.00
C195   C     0.34120   0.91905   0.85659   0.00000  Uiso   1.00
C196   C     0.29131   0.88531   0.84944   0.00000  Uiso   1.00
C197   C     0.22361   0.81841   0.82462   0.00000  Uiso   1.00
C198   C     0.28586   0.02441   0.95088   0.00000  Uiso   1.00
C199   C     0.37145   0.00305   0.00111   0.00000  Uiso   1.00
C200   C     0.39673   0.99407   0.06568   0.00000  Uiso   1.00
C201   C     0.47754   0.97441   0.10378   0.00000  Uiso   1.00
C202   C     0.27162   0.08353   0.90333   0.00000  Uiso   1.00
C203   C     0.21295   0.14222   0.88569   0.00000  Uiso   1.00
C204   C     0.20971   0.19031   0.84148   0.00000  Uiso   1.00
C205   C     0.28205   0.97367   0.91588   0.00000  Uiso   1.00
C206   C     0.23214   0.94000   0.90876   0.00000  Uiso   1.00
C207   C     0.23767   0.89561   0.87509   0.00000  Uiso   1.00
H208   H     0.42611   0.99748   0.88379   0.00000  Uiso   1.00
H209   H     0.54720   0.96518   0.99368   0.00000  Uiso   1.00
H210   H     0.36344   0.11330   0.81371   0.00000  Uiso   1.00
H211   H     0.38264   0.91111   0.83678   0.00000  Uiso   1.00
H212   H     0.65784   0.93393   0.12680   0.00000  Uiso   1.00
H213   H     0.27035   0.24624   0.74732   0.00000  Uiso   1.00
H214   H     0.31083   0.81989   0.79596   0.00000  Uiso   1.00
H215   H     0.24417   0.03241   0.97081   0.00000  Uiso   1.00
H216   H     0.35528   0.00203   0.08548   0.00000  Uiso   1.00
H217   H     0.17152   0.15015   0.90551   0.00000  Uiso   1.00
H218   H     0.19072   0.94796   0.92858   0.00000  Uiso   1.00
H219   H     0.50207   0.96384   0.20131   0.00000  Uiso   1.00
H220   H     0.11458   0.27616   0.82182   0.00000  Uiso   1.00
H221   H     0.15506   0.84980   0.87047   0.00000  Uiso   1.00
O222   O     0.65632   0.92829   0.23791   0.00000  Uiso   1.00
O223   O     0.14795   0.33803   0.74004   0.00000  Uiso   1.00
O224   O     0.20106   0.77866   0.80387   0.00000  Uiso   1.00
N225   N     0.60593   0.94513   0.12860   0.00000  Uiso   1.00
N226   N     0.24366   0.23712   0.77381   0.00000  Uiso   1.00
N227   N     0.28149   0.83853   0.81928   0.00000  Uiso   1.00
N228   N     0.52211   0.96122   0.16869   0.00000  Uiso   1.00
N229   N     0.15984   0.25322   0.81391   0.00000  Uiso   1.00
N230   N     0.19767   0.85463   0.85937   0.00000  Uiso   1.00
C231   C     0.85589   0.56535   0.02619   0.00000  Uiso   1.00
C232   C     0.90281   0.56435   0.98848   0.00000  Uiso   1.00
C233   C     0.92161   0.61430   0.96760   0.00000  Uiso   1.00
C234   C     0.96500   0.60393   0.93384   0.00000  Uiso   1.00
C235   C     0.03429   0.61122   0.87721   0.00000  Uiso   1.00
C236   C     0.90846   0.51084   0.08640   0.00000  Uiso   1.00
C237   C     0.93200   0.51581   0.14784   0.00000  Uiso   1.00
C238   C     0.98014   0.46039   0.19651   0.00000  Uiso   1.00
C239   C     0.05815   0.38460   0.29189   0.00000  Uiso   1.00
C240   C     0.78630   0.54737   0.98805   0.00000  Uiso   1.00
C241   C     0.70712   0.58304   0.96681   0.00000  Uiso   1.00
C242   C     0.65240   0.55836   0.93268   0.00000  Uiso   1.00
C243   C     0.54074   0.53930   0.87537   0.00000  Uiso   1.00
C244   C     0.89952   0.45810   0.00338   0.00000  Uiso   1.00
C245   C     0.92651   0.50609   0.97610   0.00000  Uiso   1.00
C246   C     0.96988   0.49564   0.94236   0.00000  Uiso   1.00
C247   C     0.98874   0.54557   0.92143   0.00000  Uiso   1.00
C248   C     0.93217   0.45259   0.07401   0.00000  Uiso   1.00
C249   C     0.98027   0.39715   0.12260   0.00000  Uiso   1.00
C250   C     0.00388   0.40203   0.18410   0.00000  Uiso   1.00
C251   C     0.81000   0.48911   0.97566   0.00000  Uiso   1.00
C252   C     0.75540   0.46438   0.94157   0.00000  Uiso   1.00
C253   C     0.67615   0.50001   0.92027   0.00000  Uiso   1.00
H254   H     0.83744   0.61070   0.03583   0.00000  Uiso   1.00
H255   H     0.90326   0.65937   0.97720   0.00000  Uiso   1.00
H256   H     0.91364   0.56089   0.15741   0.00000  Uiso   1.00
H257   H     0.68880   0.62811   0.97640   0.00000  Uiso   1.00
H258   H     0.98671   0.68763   0.90674   0.00000  Uiso   1.00
H259   H     0.00858   0.47998   0.28673   0.00000  Uiso   1.00
H260   H     0.53445   0.62173   0.90505   0.00000  Uiso   1.00
H261   H     0.91798   0.41275   0.99373   0.00000  Uiso   1.00
H262   H     0.98822   0.45055   0.93278   0.00000  Uiso   1.00
H263   H     0.99860   0.35208   0.11300   0.00000  Uiso   1.00
H264   H     0.77376   0.41930   0.93199   0.00000  Uiso   1.00
H265   H     0.05567   0.51815   0.87070   0.00000  Uiso   1.00
H266   H     0.07754   0.31050   0.25069   0.00000  Uiso   1.00
H267   H     0.60341   0.45225   0.86900   0.00000  Uiso   1.00
O268   O     0.06597   0.63133   0.84940   0.00000  Uiso   1.00
O269   O     0.09464   0.35890   0.34793   0.00000  Uiso   1.00
O270   O     0.47260   0.54487   0.84717   0.00000  Uiso   1.00
N271   N     0.99329   0.64256   0.90661   0.00000  Uiso   1.00
N272   N     0.01374   0.44842   0.26188   0.00000  Uiso   1.00
N273   N     0.57047   0.58094   0.90505   0.00000  Uiso   1.00
N274   N     0.03039   0.55136   0.88722   0.00000  Uiso   1.00
N275   N     0.05085   0.35722   0.24248   0.00000  Uiso   1.00
N276   N     0.60758   0.48974   0.88565   0.00000  Uiso   1.00
C277   C     0.57183   0.71531   0.06045   0.00000  Uiso   1.00
C278   C     0.60950   0.73177   0.12226   0.00000  Uiso   1.00
C279   C     0.56914   0.76507   0.15096   0.00000  Uiso   1.00
C280   C     0.61436   0.77527   0.20737   0.00000  Uiso   1.00
C281   C     0.66029   0.80420   0.29930   0.00000  Uiso   1.00
C282   C     0.60856   0.64363   0.07586   0.00000  Uiso   1.00
C283   C     0.56741   0.60283   0.06553   0.00000  Uiso   1.00
C284   C     0.61184   0.53883   0.08286   0.00000  Uiso   1.00
C285   C     0.65631   0.43092   0.10270   0.00000  Uiso   1.00
C286   C     0.60164   0.74235   0.01692   0.00000  Uiso   1.00
C287   C     0.55468   0.78454   0.95702   0.00000  Uiso   1.00
C288   C     0.59328   0.80365   0.92472   0.00000  Uiso   1.00
C289   C     0.62700   0.84903   0.85305   0.00000  Uiso   1.00
C290   C     0.72390   0.67420   0.10959   0.00000  Uiso   1.00
C291   C     0.69210   0.70944   0.14895   0.00000  Uiso   1.00
C292   C     0.73739   0.71959   0.20533   0.00000  Uiso   1.00
C293   C     0.69710   0.75290   0.23411   0.00000  Uiso   1.00
C294   C     0.69116   0.62130   0.10254   0.00000  Uiso   1.00
C295   C     0.73566   0.55735   0.11989   0.00000  Uiso   1.00
C296   C     0.69459   0.51646   0.10959   0.00000  Uiso   1.00
C297   C     0.68424   0.72002   0.04361   0.00000  Uiso   1.00
C298   C     0.72292   0.73907   0.01139   0.00000  Uiso   1.00
C299   C     0.67602   0.78128   0.95146   0.00000  Uiso   1.00
H300   H     0.50753   0.73268   0.03967   0.00000  Uiso   1.00
H301   H     0.50522   0.78233   0.13030   0.00000  Uiso   1.00
H302   H     0.50350   0.62012   0.04487   0.00000  Uiso   1.00
H303   H     0.49076   0.80181   0.93638   0.00000  Uiso   1.00
H304   H     0.53909   0.82751   0.24255   0.00000  Uiso   1.00
H305   H     0.53545   0.48547   0.06240   0.00000  Uiso   1.00
H306   H     0.50859   0.86860   0.83364   0.00000  Uiso   1.00
H307   H     0.78821   0.65682   0.13037   0.00000  Uiso   1.00
H308   H     0.80131   0.70231   0.22597   0.00000  Uiso   1.00
H309   H     0.79957   0.54009   0.14054   0.00000  Uiso   1.00
H310   H     0.78684   0.72178   0.03206   0.00000  Uiso   1.00
H311   H     0.77941   0.76256   0.32021   0.00000  Uiso   1.00
H312   H     0.77576   0.42052   0.14005   0.00000  Uiso   1.00
H313   H     0.74890   0.80365   0.91129   0.00000  Uiso   1.00
O314   O     0.66280   0.82631   0.34264   0.00000  Uiso   1.00
O315   O     0.65802   0.37757   0.10627   0.00000  Uiso   1.00
O316   O     0.62278   0.88023   0.80615   0.00000  Uiso   1.00
N317   N     0.59385   0.80600   0.24770   0.00000  Uiso   1.00
N318   N     0.59044   0.48621   0.07927   0.00000  Uiso   1.00
N319   N     0.56534   0.84439   0.86540   0.00000  Uiso   1.00
N320   N     0.72316   0.77105   0.28949   0.00000  Uiso   1.00
N321   N     0.71975   0.45126   0.12106   0.00000  Uiso   1.00
N322   N     0.69465   0.80944   0.90718   0.00000  Uiso   1.00
C323   C     0.26698   0.05759   0.62496   0.00000  Uiso   1.00
C324   C     0.22980   0.10504   0.56015   0.00000  Uiso   1.00
C325   C     0.21275   0.09033   0.50294   0.00000  Uiso   1.00
C326   C     0.17878   0.14051   0.44888   0.00000  Uiso   1.00
C327   C     0.12350   0.20465   0.34777   0.00000  Uiso   1.00
C328   C     0.20978   0.07729   0.65297   0.00000  Uiso   1.00
C329   C     0.17590   0.03925   0.67382   0.00000  Uiso   1.00
C330   C     0.12508   0.06606   0.69791   0.00000  Uiso   1.00
C331   C     0.03876   0.08711   0.74094   0.00000  Uiso   1.00
C332   C     0.34077   0.06944   0.66568   0.00000  Uiso   1.00
C333   C     0.41704   0.02481   0.69724   0.00000  Uiso   1.00
C334   C     0.47650   0.04502   0.73204   0.00000  Uiso   1.00
C335   C     0.59356   0.05389   0.79482   0.00000  Uiso   1.00
C336   C     0.23696   0.17285   0.63068   0.00000  Uiso   1.00
C337   C     0.21349   0.16764   0.56326   0.00000  Uiso   1.00
C338   C     0.17954   0.21785   0.50927   0.00000  Uiso   1.00
C339   C     0.16245   0.20322   0.45200   0.00000  Uiso   1.00
C340   C     0.19347   0.13989   0.65608   0.00000  Uiso   1.00
C341   C     0.14269   0.16677   0.68015   0.00000  Uiso   1.00
C342   C     0.10875   0.12878   0.70102   0.00000  Uiso   1.00
C343   C     0.32447   0.13205   0.66879   0.00000  Uiso   1.00
C344   C     0.38382   0.15233   0.70356   0.00000  Uiso   1.00
C345   C     0.46016   0.10773   0.73516   0.00000  Uiso   1.00
H346   H     0.27967   0.00885   0.62254   0.00000  Uiso   1.00
H347   H     0.22537   0.04188   0.50055   0.00000  Uiso   1.00
H348   H     0.18854   0.99080   0.67141   0.00000  Uiso   1.00
H349   H     0.42963   0.97636   0.69482   0.00000  Uiso   1.00
H350   H     0.15796   0.10610   0.36668   0.00000  Uiso   1.00
H351   H     0.08032   0.99840   0.72695   0.00000  Uiso   1.00
H352   H     0.58871   0.96795   0.77632   0.00000  Uiso   1.00
H353   H     0.22426   0.22159   0.63310   0.00000  Uiso   1.00
H354   H     0.16693   0.26629   0.51169   0.00000  Uiso   1.00
H355   H     0.13009   0.21521   0.68255   0.00000  Uiso   1.00
H356   H     0.37118   0.20078   0.70596   0.00000  Uiso   1.00
H357   H     0.11052   0.28824   0.37572   0.00000  Uiso   1.00
H358   H     0.03288   0.18054   0.73600   0.00000  Uiso   1.00
H359   H     0.54127   0.15009   0.78536   0.00000  Uiso   1.00
O360   O     0.09750   0.22274   0.29114   0.00000  Uiso   1.00
O361   O     0.99565   0.08143   0.76382   0.00000  Uiso   1.00
O362   O     0.66264   0.04149   0.82858   0.00000  Uiso   1.00
N363   N     0.15468   0.14283   0.38547   0.00000  Uiso   1.00
N364   N     0.08208   0.04214   0.72230   0.00000  Uiso   1.00
N365   N     0.55737   0.01367   0.76847   0.00000  Uiso   1.00
N366   N     0.12915   0.24084   0.39033   0.00000  Uiso   1.00
N367   N     0.05655   0.14015   0.72716   0.00000  Uiso   1.00
N368   N     0.53185   0.11168   0.77333   0.00000  Uiso   1.00
C369   C     0.69206   0.56836   0.66863   0.00000  Uiso   1.00
C370   C     0.76026   0.51347   0.67289   0.00000  Uiso   1.00
C371   C     0.77801   0.44992   0.69855   0.00000  Uiso   1.00
C372   C     0.84284   0.40697   0.69798   0.00000  Uiso   1.00
C373   C     0.94180   0.31870   0.70842   0.00000  Uiso   1.00
C374   C     0.64402   0.60519   0.59880   0.00000  Uiso   1.00
C375   C     0.56403   0.61876   0.56218   0.00000  Uiso   1.00
C376   C     0.53101   0.65303   0.49926   0.00000  Uiso   1.00
C377   C     0.44949   0.70720   0.39469   0.00000  Uiso   1.00
C378   C     0.72916   0.61160   0.70222   0.00000  Uiso   1.00
C379   C     0.72075   0.63058   0.75255   0.00000  Uiso   1.00
C380   C     0.75940   0.67026   0.77669   0.00000  Uiso   1.00
C381   C     0.81009   0.73438   0.83270   0.00000  Uiso   1.00
C382   C     0.77562   0.60511   0.62199   0.00000  Uiso   1.00
C383   C     0.80564   0.53343   0.64755   0.00000  Uiso   1.00
C384   C     0.87046   0.49057   0.64695   0.00000  Uiso   1.00
C385   C     0.88831   0.42696   0.67261   0.00000  Uiso   1.00
C386   C     0.68940   0.62515   0.57347   0.00000  Uiso   1.00
C387   C     0.65648   0.65941   0.51058   0.00000  Uiso   1.00
C388   C     0.57647   0.67302   0.47388   0.00000  Uiso   1.00
C389   C     0.77455   0.63156   0.67689   0.00000  Uiso   1.00
C390   C     0.81321   0.67123   0.70095   0.00000  Uiso   1.00
C391   C     0.80486   0.69025   0.75131   0.00000  Uiso   1.00
H392   H     0.65672   0.55283   0.68834   0.00000  Uiso   1.00
H393   H     0.74287   0.43449   0.71814   0.00000  Uiso   1.00
H394   H     0.52893   0.60331   0.58180   0.00000  Uiso   1.00
H395   H     0.68563   0.61512   0.77214   0.00000  Uiso   1.00
H396   H     0.85838   0.31209   0.73999   0.00000  Uiso   1.00
H397   H     0.40726   0.66808   0.45251   0.00000  Uiso   1.00
H398   H     0.73769   0.69299   0.85388   0.00000  Uiso   1.00
H399   H     0.81095   0.62065   0.60226   0.00000  Uiso   1.00
H400   H     0.90557   0.50603   0.62734   0.00000  Uiso   1.00
H401   H     0.69162   0.67485   0.49100   0.00000  Uiso   1.00
H402   H     0.84832   0.68666   0.68133   0.00000  Uiso   1.00
H403   H     0.99043   0.37016   0.66629   0.00000  Uiso   1.00
H404   H     0.53931   0.72615   0.37881   0.00000  Uiso   1.00
H405   H     0.86974   0.75106   0.78017   0.00000  Uiso   1.00
O406   O     0.98385   0.26450   0.72117   0.00000  Uiso   1.00
O407   O     0.39199   0.73155   0.34402   0.00000  Uiso   1.00
O408   O     0.82552   0.76423   0.87059   0.00000  Uiso   1.00
N409   N     0.87648   0.34149   0.71921   0.00000  Uiso   1.00
N410   N     0.45471   0.67431   0.45044   0.00000  Uiso   1.00
N411   N     0.76363   0.69761   0.82567   0.00000  Uiso   1.00
N412   N     0.94754   0.37273   0.67956   0.00000  Uiso   1.00
N413   N     0.52577   0.70555   0.41078   0.00000  Uiso   1.00
N414   N     0.83468   0.72885   0.78601   0.00000  Uiso   1.00
C415   C     0.65417   0.15577   0.54792   0.00000  Uiso   1.00
C416   C     0.69578   0.08561   0.58329   0.00000  Uiso   1.00
C417   C     0.68568   0.03623   0.55739   0.00000  Uiso   1.00
C418   C     0.72915   0.97537   0.59759   0.00000  Uiso   1.00
C419   C     0.78586   0.86812   0.64281   0.00000  Uiso   1.00
C420   C     0.61246   0.18579   0.58433   0.00000  Uiso   1.00
C421   C     0.53231   0.22065   0.55931   0.00000  Uiso   1.00
C422   C     0.50564   0.24413   0.60039   0.00000  Uiso   1.00
C423   C     0.43301   0.29245   0.64722   0.00000  Uiso   1.00
C424   C     0.71947   0.18199   0.55665   0.00000  Uiso   1.00
C425   C     0.72930   0.21368   0.50834   0.00000  Uiso   1.00
C426   C     0.79272   0.23397   0.52612   0.00000  Uiso   1.00
C427   C     0.88624   0.27639   0.52995   0.00000  Uiso   1.00
C428   C     0.74931   0.13549   0.66539   0.00000  Uiso   1.00
C429   C     0.74745   0.07460   0.64709   0.00000  Uiso   1.00
C430   C     0.79095   0.01380   0.68735   0.00000  Uiso   1.00
C431   C     0.78092   0.96434   0.66151   0.00000  Uiso   1.00
C432   C     0.66413   0.17478   0.64814   0.00000  Uiso   1.00
C433   C     0.63757   0.19822   0.68927   0.00000  Uiso   1.00
C434   C     0.55741   0.23310   0.66431   0.00000  Uiso   1.00
C435   C     0.77115   0.17098   0.62045   0.00000  Uiso   1.00
C436   C     0.83456   0.19124   0.63831   0.00000  Uiso   1.00
C437   C     0.84449   0.22294   0.59004   0.00000  Uiso   1.00
H438   H     0.61393   0.16434   0.49825   0.00000  Uiso   1.00
H439   H     0.64568   0.04478   0.50801   0.00000  Uiso   1.00
H440   H     0.49234   0.22917   0.50993   0.00000  Uiso   1.00
H441   H     0.68929   0.22219   0.45897   0.00000  Uiso   1.00
H442   H     0.70364   0.90736   0.54697   0.00000  Uiso   1.00
H443   H     0.38032   0.29619   0.55101   0.00000  Uiso   1.00
H444   H     0.79564   0.28147   0.44355   0.00000  Uiso   1.00
H445   H     0.78954   0.12691   0.71507   0.00000  Uiso   1.00
H446   H     0.83093   0.00529   0.73673   0.00000  Uiso   1.00
H447   H     0.67758   0.18969   0.73864   0.00000  Uiso   1.00
H448   H     0.87454   0.18270   0.68769   0.00000  Uiso   1.00
H449   H     0.85400   0.87531   0.73261   0.00000  Uiso   1.00
H450   H     0.53067   0.26414   0.73665   0.00000  Uiso   1.00
H451   H     0.94599   0.24942   0.62919   0.00000  Uiso   1.00
O452   O     0.80286   0.81200   0.65013   0.00000  Uiso   1.00
O453   O     0.37866   0.32214   0.65543   0.00000  Uiso   1.00
O454   O     0.92356   0.30282   0.51445   0.00000  Uiso   1.00
N455   N     0.73336   0.91651   0.58768   0.00000  Uiso   1.00
N456   N     0.43107   0.28003   0.59147   0.00000  Uiso   1.00
N457   N     0.81934   0.26628   0.49100   0.00000  Uiso   1.00
N458   N     0.81427   0.89926   0.68757   0.00000  Uiso   1.00
N459   N     0.51197   0.26279   0.69135   0.00000  Uiso   1.00
N460   N     0.90025   0.24904   0.59089   0.00000  Uiso   1.00
C461   C     0.79784   0.06809   0.11061   0.00000  Uiso   1.00
C462   C     0.83352   0.04555   0.06776   0.00000  Uiso   1.00
C463   C     0.79138   0.04650   0.00534   0.00000  Uiso   1.00
C464   C     0.83495   0.02378   0.97422   0.00000  Uiso   1.00
C465   C     0.87776   0.99222   0.90309   0.00000  Uiso   1.00
C466   C     0.83353   0.01208   0.16892   0.00000  Uiso   1.00
C467   C     0.79140   0.98491   0.19156   0.00000  Uiso   1.00
C468   C     0.83497   0.93402   0.24561   0.00000  Uiso   1.00
C469   C     0.87781   0.85054   0.33156   0.00000  Uiso   1.00
C470   C     0.83084   0.11781   0.13333   0.00000  Uiso   1.00
C471   C     0.78645   0.17954   0.12606   0.00000  Uiso   1.00
C472   C     0.82776   0.21767   0.15016   0.00000  Uiso   1.00
C473   C     0.86642   0.29836   0.18085   0.00000  Uiso   1.00
C474   C     0.95015   0.02604   0.16633   0.00000  Uiso   1.00
C475   C     0.91625   0.02271   0.09803   0.00000  Uiso   1.00
C476   C     0.95989   0.99998   0.06699   0.00000  Uiso   1.00
C477   C     0.91782   0.00090   0.00454   0.00000  Uiso   1.00
C478   C     0.91626   0.98924   0.19919   0.00000  Uiso   1.00
C479   C     0.95990   0.93839   0.25321   0.00000  Uiso   1.00
C480   C     0.91785   0.91114   0.27593   0.00000  Uiso   1.00
C481   C     0.91357   0.09498   0.16360   0.00000  Uiso   1.00
C482   C     0.95496   0.13302   0.18771   0.00000  Uiso   1.00
C483   C     0.91063   0.19479   0.18048   0.00000  Uiso   1.00
H484   H     0.73344   0.08586   0.08705   0.00000  Uiso   1.00
H485   H     0.72736   0.06417   0.98194   0.00000  Uiso   1.00
H486   H     0.72738   0.00260   0.16814   0.00000  Uiso   1.00
H487   H     0.72244   0.19720   0.10264   0.00000  Uiso   1.00
H488   H     0.75711   0.03003   0.87876   0.00000  Uiso   1.00
H489   H     0.75714   0.90021   0.27138   0.00000  Uiso   1.00
H490   H     0.74671   0.31056   0.13327   0.00000  Uiso   1.00
H491   H     0.01455   0.00826   0.18990   0.00000  Uiso   1.00
H492   H     0.02390   0.98231   0.09043   0.00000  Uiso   1.00
H493   H     0.02392   0.92073   0.27663   0.00000  Uiso   1.00
H494   H     0.01897   0.11533   0.21113   0.00000  Uiso   1.00
H495   H     0.99779   0.96358   0.96681   0.00000  Uiso   1.00
H496   H     0.99783   0.83376   0.35944   0.00000  Uiso   1.00
H497   H     0.98740   0.24411   0.22133   0.00000  Uiso   1.00
O498   O     0.87853   0.98111   0.85550   0.00000  Uiso   1.00
O499   O     0.87857   0.81080   0.37061   0.00000  Uiso   1.00
O500   O     0.86489   0.34917   0.18942   0.00000  Uiso   1.00
N501   N     0.81247   0.01796   0.91313   0.00000  Uiso   1.00
N502   N     0.81250   0.89658   0.28020   0.00000  Uiso   1.00
N503   N     0.80275   0.28022   0.15110   0.00000  Uiso   1.00
N504   N     0.94198   0.98221   0.96051   0.00000  Uiso   1.00
N505   N     0.94201   0.86083   0.32758   0.00000  Uiso   1.00
N506   N     0.93226   0.24447   0.19848   0.00000  Uiso   1.00
C507   C     0.19644   0.68471   0.12307   0.00000  Uiso   1.00
C508   C     0.15378   0.67083   0.16131   0.00000  Uiso   1.00
C509   C     0.16445   0.61127   0.19344   0.00000  Uiso   1.00
C510   C     0.11979   0.60855   0.22562   0.00000  Uiso   1.00
C511   C     0.06163   0.57864   0.28497   0.00000  Uiso   1.00
C512   C     0.13197   0.72345   0.05674   0.00000  Uiso   1.00
C513   C     0.12432   0.70813   0.00094   0.00000  Uiso   1.00
C514   C     0.06130   0.74972   0.94511   0.00000  Uiso   1.00
C515   C     0.96932   0.80152   0.84210   0.00000  Uiso   1.00
C516   C     0.23622   0.72914   0.15119   0.00000  Uiso   1.00
C517   C     0.31623   0.71863   0.17479   0.00000  Uiso   1.00
C518   C     0.34099   0.76502   0.19845   0.00000  Uiso   1.00
C519   C     0.41088   0.82567   0.24209   0.00000  Uiso   1.00
C520   C     0.09815   0.78581   0.12312   0.00000  Uiso   1.00
C521   C     0.10039   0.72574   0.16134   0.00000  Uiso   1.00
C522   C     0.05570   0.72312   0.19349   0.00000  Uiso   1.00
C523   C     0.06631   0.66356   0.22565   0.00000  Uiso   1.00
C524   C     0.07858   0.77836   0.05677   0.00000  Uiso   1.00
C525   C     0.01557   0.81999   0.00100   0.00000  Uiso   1.00
C526   C     0.00782   0.80473   0.94513   0.00000  Uiso   1.00
C527   C     0.18284   0.78406   0.15122   0.00000  Uiso   1.00
C528   C     0.20748   0.83048   0.17484   0.00000  Uiso   1.00
C529   C     0.28750   0.82003   0.19848   0.00000  Uiso   1.00
H530   H     0.23800   0.64196   0.12305   0.00000  Uiso   1.00
H531   H     0.20577   0.56878   0.19340   0.00000  Uiso   1.00
H532   H     0.16564   0.66564   0.00094   0.00000  Uiso   1.00
H533   H     0.35752   0.67613   0.17476   0.00000  Uiso   1.00
H534   H     0.14646   0.51186   0.27139   0.00000  Uiso   1.00
H535   H     0.06187   0.71610   0.86558   0.00000  Uiso   1.00
H536   H     0.46649   0.73822   0.23210   0.00000  Uiso   1.00
H537   H     0.05659   0.82857   0.12314   0.00000  Uiso   1.00
H538   H     0.01439   0.76562   0.19350   0.00000  Uiso   1.00
H539   H     0.97427   0.86248   0.00104   0.00000  Uiso   1.00
H540   H     0.16615   0.87297   0.17485   0.00000  Uiso   1.00
H541   H     0.99113   0.67162   0.27147   0.00000  Uiso   1.00
H542   H     0.90655   0.87586   0.86565   0.00000  Uiso   1.00
H543   H     0.31116   0.89798   0.23218   0.00000  Uiso   1.00
O544   O     0.04430   0.54697   0.31769   0.00000  Uiso   1.00
O545   O     0.93333   0.81492   0.78528   0.00000  Uiso   1.00
O546   O     0.46417   0.84395   0.26616   0.00000  Uiso   1.00
N547   N     0.11571   0.55810   0.26176   0.00000  Uiso   1.00
N548   N     0.03661   0.74904   0.88235   0.00000  Uiso   1.00
N549   N     0.41489   0.76973   0.22501   0.00000  Uiso   1.00
N550   N     0.03213   0.64407   0.26180   0.00000  Uiso   1.00
N551   N     0.95303   0.83501   0.88239   0.00000  Uiso   1.00
N552   N     0.33131   0.85570   0.22505   0.00000  Uiso   1.00
