data_job_02501
_audit_creation_date              2018-12-19
_audit_creation_method            'Materials Studio'
_symmetry_space_group_name_H-M    'P1'
_symmetry_Int_Tables_number       1
_symmetry_cell_setting            triclinic
loop_
_symmetry_equiv_pos_as_xyz
  x,y,z
_cell_length_a                    15.2264
_cell_length_b                    9.9684
_cell_length_c                    26.8036
_cell_angle_alpha                 90.0000
_cell_angle_beta                  131.0153
_cell_angle_gamma                 90.0000
loop_
_atom_site_label
_atom_site_type_symbol
_atom_site_fract_x
_atom_site_fract_y
_atom_site_fract_z
_atom_site_U_iso_or_equiv
_atom_site_adp_type
_atom_site_occupancy
C1     C     0.27148   0.98611   0.79172   0.00000  Uiso   1.00
C2     C     0.19245   0.92860   0.72186   0.00000  Uiso   1.00
C3     C     0.10775   0.99902   0.66427   0.00000  Uiso   1.00
C4     C     0.04462   0.92833   0.60525   0.00000  Uiso   1.00
C5     C     0.91869   0.85973   0.49698   0.00000  Uiso   1.00
C6     C     0.25259   0.89903   0.83074   0.00000  Uiso   1.00
C7     C     0.21846   0.94460   0.86471   0.00000  Uiso   1.00
C8     C     0.20598   0.84901   0.89735   0.00000  Uiso   1.00
C9     C     0.17349   0.73452   0.95817   0.00000  Uiso   1.00
C10    C     0.39578   0.95884   0.82089   0.00000  Uiso   1.00
C11    C     0.48208   0.05470   0.84659   0.00000  Uiso   1.00
C12    C     0.59017   0.00946   0.87095   0.00000  Uiso   1.00
C13    C     0.78002   0.98784   0.91647   0.00000  Uiso   1.00
C14    C     0.31000   0.73533   0.78930   0.00000  Uiso   1.00
C15    C     0.21337   0.79238   0.72055   0.00000  Uiso   1.00
C16    C     0.15036   0.72156   0.66159   0.00000  Uiso   1.00
C17    C     0.06558   0.79187   0.60393   0.00000  Uiso   1.00
C18    C     0.27351   0.76282   0.82943   0.00000  Uiso   1.00
C19    C     0.26108   0.66714   0.86203   0.00000  Uiso   1.00
C20    C     0.22694   0.71255   0.89604   0.00000  Uiso   1.00
C21    C     0.41671   0.82263   0.81958   0.00000  Uiso   1.00
C22    C     0.52469   0.77723   0.84391   0.00000  Uiso   1.00
C23    C     0.61113   0.87300   0.86964   0.00000  Uiso   1.00
H24    H     0.25519   0.09215   0.79275   0.00000  Uiso   1.00
H25    H     0.09157   0.10443   0.66531   0.00000  Uiso   1.00
H26    H     0.20229   0.05002   0.86573   0.00000  Uiso   1.00
H27    H     0.46586   0.16010   0.84760   0.00000  Uiso   1.00
H28    H     0.91938   0.05796   0.52345   0.00000  Uiso   1.00
H29    H     0.15286   0.94324   0.94605   0.00000  Uiso   1.00
H30    H     0.70865   0.17536   0.90784   0.00000  Uiso   1.00
H31    H     0.32628   0.62927   0.78827   0.00000  Uiso   1.00
H32    H     0.16657   0.61615   0.66059   0.00000  Uiso   1.00
H33    H     0.27728   0.56174   0.86101   0.00000  Uiso   1.00
H34    H     0.54085   0.67182   0.84288   0.00000  Uiso   1.00
H35    H     0.98024   0.66165   0.51962   0.00000  Uiso   1.00
H36    H     0.21373   0.54693   0.94222   0.00000  Uiso   1.00
H37    H     0.76951   0.77905   0.90401   0.00000  Uiso   1.00
O38    O     0.84344   0.85952   0.43762   0.00000  Uiso   1.00
O39    O     0.14978   0.70901   0.99207   0.00000  Uiso   1.00
O40    O     0.87895   0.01355   0.94193   0.00000  Uiso   1.00
N41    N     0.95564   0.96650   0.54007   0.00000  Uiso   1.00
N42    N     0.17391   0.85923   0.93517   0.00000  Uiso   1.00
N43    N     0.69353   0.07625   0.89946   0.00000  Uiso   1.00
N44    N     0.98839   0.75325   0.53801   0.00000  Uiso   1.00
N45    N     0.20666   0.64598   0.93311   0.00000  Uiso   1.00
N46    N     0.72628   0.86300   0.89740   0.00000  Uiso   1.00
C47    C     0.72852   0.48611   0.70828   0.00000  Uiso   1.00
C48    C     0.80755   0.42860   0.77814   0.00000  Uiso   1.00
C49    C     0.89225   0.49902   0.83573   0.00000  Uiso   1.00
C50    C     0.95538   0.42833   0.89475   0.00000  Uiso   1.00
C51    C     0.08131   0.35973   0.00302   0.00000  Uiso   1.00
C52    C     0.74741   0.39903   0.66926   0.00000  Uiso   1.00
C53    C     0.78154   0.44460   0.63529   0.00000  Uiso   1.00
C54    C     0.79402   0.34901   0.60265   0.00000  Uiso   1.00
C55    C     0.82651   0.23452   0.54183   0.00000  Uiso   1.00
C56    C     0.60422   0.45884   0.67911   0.00000  Uiso   1.00
C57    C     0.51792   0.55470   0.65341   0.00000  Uiso   1.00
C58    C     0.40983   0.50946   0.62905   0.00000  Uiso   1.00
C59    C     0.21998   0.48784   0.58353   0.00000  Uiso   1.00
C60    C     0.69000   0.23533   0.71070   0.00000  Uiso   1.00
C61    C     0.78663   0.29238   0.77945   0.00000  Uiso   1.00
C62    C     0.84964   0.22156   0.83841   0.00000  Uiso   1.00
C63    C     0.93442   0.29187   0.89607   0.00000  Uiso   1.00
C64    C     0.72649   0.26282   0.67057   0.00000  Uiso   1.00
C65    C     0.73892   0.16714   0.63797   0.00000  Uiso   1.00
C66    C     0.77306   0.21255   0.60396   0.00000  Uiso   1.00
C67    C     0.58329   0.32263   0.68042   0.00000  Uiso   1.00
C68    C     0.47531   0.27723   0.65609   0.00000  Uiso   1.00
C69    C     0.38887   0.37300   0.63036   0.00000  Uiso   1.00
H70    H     0.74481   0.59215   0.70725   0.00000  Uiso   1.00
H71    H     0.90843   0.60443   0.83469   0.00000  Uiso   1.00
H72    H     0.79771   0.55002   0.63427   0.00000  Uiso   1.00
H73    H     0.53414   0.66010   0.65240   0.00000  Uiso   1.00
H74    H     0.08062   0.55796   0.97655   0.00000  Uiso   1.00
H75    H     0.84714   0.44324   0.55395   0.00000  Uiso   1.00
H76    H     0.29135   0.67536   0.59216   0.00000  Uiso   1.00
H77    H     0.67372   0.12927   0.71173   0.00000  Uiso   1.00
H78    H     0.83343   0.11615   0.83941   0.00000  Uiso   1.00
H79    H     0.72272   0.06174   0.63899   0.00000  Uiso   1.00
H80    H     0.45915   0.17182   0.65712   0.00000  Uiso   1.00
H81    H     0.01976   0.16165   0.98038   0.00000  Uiso   1.00
H82    H     0.78627   0.04693   0.55778   0.00000  Uiso   1.00
H83    H     0.23049   0.27905   0.59599   0.00000  Uiso   1.00
O84    O     0.15656   0.35952   0.06238   0.00000  Uiso   1.00
O85    O     0.85022   0.20901   0.50793   0.00000  Uiso   1.00
O86    O     0.12105   0.51355   0.55807   0.00000  Uiso   1.00
N87    N     0.04436   0.46650   0.95993   0.00000  Uiso   1.00
N88    N     0.82609   0.35923   0.56483   0.00000  Uiso   1.00
N89    N     0.30647   0.57625   0.60054   0.00000  Uiso   1.00
N90    N     0.01161   0.25325   0.96199   0.00000  Uiso   1.00
N91    N     0.79334   0.14598   0.56689   0.00000  Uiso   1.00
N92    N     0.27372   0.36300   0.60260   0.00000  Uiso   1.00
C93    C     0.72852   0.01389   0.20828   0.00000  Uiso   1.00
C94    C     0.80755   0.07140   0.27814   0.00000  Uiso   1.00
C95    C     0.89225   0.00098   0.33573   0.00000  Uiso   1.00
C96    C     0.95538   0.07167   0.39475   0.00000  Uiso   1.00
C97    C     0.08131   0.14027   0.50302   0.00000  Uiso   1.00
C98    C     0.74741   0.10097   0.16926   0.00000  Uiso   1.00
C99    C     0.78154   0.05540   0.13529   0.00000  Uiso   1.00
C100   C     0.79402   0.15099   0.10265   0.00000  Uiso   1.00
C101   C     0.82651   0.26548   0.04183   0.00000  Uiso   1.00
C102   C     0.60422   0.04116   0.17911   0.00000  Uiso   1.00
C103   C     0.51792   0.94530   0.15341   0.00000  Uiso   1.00
C104   C     0.40983   0.99054   0.12905   0.00000  Uiso   1.00
C105   C     0.21998   0.01216   0.08353   0.00000  Uiso   1.00
C106   C     0.69000   0.26467   0.21070   0.00000  Uiso   1.00
C107   C     0.78663   0.20762   0.27945   0.00000  Uiso   1.00
C108   C     0.84964   0.27844   0.33841   0.00000  Uiso   1.00
C109   C     0.93442   0.20813   0.39607   0.00000  Uiso   1.00
C110   C     0.72649   0.23718   0.17057   0.00000  Uiso   1.00
C111   C     0.73892   0.33286   0.13797   0.00000  Uiso   1.00
C112   C     0.77306   0.28745   0.10396   0.00000  Uiso   1.00
C113   C     0.58329   0.17737   0.18042   0.00000  Uiso   1.00
C114   C     0.47531   0.22277   0.15609   0.00000  Uiso   1.00
C115   C     0.38887   0.12700   0.13036   0.00000  Uiso   1.00
H116   H     0.74481   0.90785   0.20725   0.00000  Uiso   1.00
H117   H     0.90843   0.89557   0.33469   0.00000  Uiso   1.00
H118   H     0.79771   0.94998   0.13427   0.00000  Uiso   1.00
H119   H     0.53414   0.83990   0.15240   0.00000  Uiso   1.00
H120   H     0.08062   0.94204   0.47655   0.00000  Uiso   1.00
H121   H     0.84714   0.05676   0.05395   0.00000  Uiso   1.00
H122   H     0.29135   0.82464   0.09216   0.00000  Uiso   1.00
H123   H     0.67372   0.37073   0.21173   0.00000  Uiso   1.00
H124   H     0.83343   0.38385   0.33941   0.00000  Uiso   1.00
H125   H     0.72272   0.43826   0.13899   0.00000  Uiso   1.00
H126   H     0.45915   0.32818   0.15712   0.00000  Uiso   1.00
H127   H     0.01976   0.33835   0.48038   0.00000  Uiso   1.00
H128   H     0.78627   0.45307   0.05778   0.00000  Uiso   1.00
H129   H     0.23049   0.22095   0.09599   0.00000  Uiso   1.00
O130   O     0.15656   0.14048   0.56238   0.00000  Uiso   1.00
O131   O     0.85022   0.29099   0.00793   0.00000  Uiso   1.00
O132   O     0.12105   0.98645   0.05807   0.00000  Uiso   1.00
N133   N     0.04436   0.03350   0.45993   0.00000  Uiso   1.00
N134   N     0.82609   0.14077   0.06483   0.00000  Uiso   1.00
N135   N     0.30647   0.92375   0.10054   0.00000  Uiso   1.00
N136   N     0.01161   0.24675   0.46199   0.00000  Uiso   1.00
N137   N     0.79334   0.35402   0.06689   0.00000  Uiso   1.00
N138   N     0.27372   0.13700   0.10260   0.00000  Uiso   1.00
C139   C     0.27148   0.51389   0.29172   0.00000  Uiso   1.00
C140   C     0.19245   0.57140   0.22186   0.00000  Uiso   1.00
C141   C     0.10775   0.50098   0.16427   0.00000  Uiso   1.00
C142   C     0.04462   0.57167   0.10525   0.00000  Uiso   1.00
C143   C     0.91869   0.64027   0.99698   0.00000  Uiso   1.00
C144   C     0.25259   0.60097   0.33074   0.00000  Uiso   1.00
C145   C     0.21846   0.55540   0.36471   0.00000  Uiso   1.00
C146   C     0.20598   0.65099   0.39735   0.00000  Uiso   1.00
C147   C     0.17349   0.76548   0.45817   0.00000  Uiso   1.00
C148   C     0.39578   0.54116   0.32089   0.00000  Uiso   1.00
C149   C     0.48208   0.44530   0.34659   0.00000  Uiso   1.00
C150   C     0.59017   0.49054   0.37095   0.00000  Uiso   1.00
C151   C     0.78002   0.51216   0.41647   0.00000  Uiso   1.00
C152   C     0.31000   0.76467   0.28930   0.00000  Uiso   1.00
C153   C     0.21337   0.70762   0.22055   0.00000  Uiso   1.00
C154   C     0.15036   0.77844   0.16159   0.00000  Uiso   1.00
C155   C     0.06558   0.70813   0.10393   0.00000  Uiso   1.00
C156   C     0.27351   0.73718   0.32943   0.00000  Uiso   1.00
C157   C     0.26108   0.83286   0.36203   0.00000  Uiso   1.00
C158   C     0.22694   0.78745   0.39604   0.00000  Uiso   1.00
C159   C     0.41671   0.67737   0.31958   0.00000  Uiso   1.00
C160   C     0.52469   0.72277   0.34391   0.00000  Uiso   1.00
C161   C     0.61113   0.62700   0.36964   0.00000  Uiso   1.00
H162   H     0.25519   0.40785   0.29275   0.00000  Uiso   1.00
H163   H     0.09157   0.39557   0.16531   0.00000  Uiso   1.00
H164   H     0.20229   0.44998   0.36573   0.00000  Uiso   1.00
H165   H     0.46586   0.33990   0.34760   0.00000  Uiso   1.00
H166   H     0.91938   0.44204   0.02345   0.00000  Uiso   1.00
H167   H     0.15286   0.55676   0.44605   0.00000  Uiso   1.00
H168   H     0.70865   0.32464   0.40784   0.00000  Uiso   1.00
H169   H     0.32628   0.87073   0.28827   0.00000  Uiso   1.00
H170   H     0.16657   0.88385   0.16059   0.00000  Uiso   1.00
H171   H     0.27728   0.93826   0.36101   0.00000  Uiso   1.00
H172   H     0.54085   0.82818   0.34288   0.00000  Uiso   1.00
H173   H     0.98024   0.83835   0.01962   0.00000  Uiso   1.00
H174   H     0.21373   0.95307   0.44222   0.00000  Uiso   1.00
H175   H     0.76951   0.72095   0.40401   0.00000  Uiso   1.00
O176   O     0.84344   0.64048   0.93762   0.00000  Uiso   1.00
O177   O     0.14978   0.79099   0.49207   0.00000  Uiso   1.00
O178   O     0.87895   0.48645   0.44193   0.00000  Uiso   1.00
N179   N     0.95564   0.53350   0.04007   0.00000  Uiso   1.00
N180   N     0.17391   0.64077   0.43517   0.00000  Uiso   1.00
N181   N     0.69353   0.42375   0.39946   0.00000  Uiso   1.00
N182   N     0.98839   0.74675   0.03801   0.00000  Uiso   1.00
N183   N     0.20666   0.85402   0.43311   0.00000  Uiso   1.00
N184   N     0.72628   0.63700   0.39740   0.00000  Uiso   1.00
