data_job_05465
_audit_creation_date              2018-12-19
_audit_creation_method            'Materials Studio'
_symmetry_space_group_name_H-M    'P1'
_symmetry_Int_Tables_number       1
_symmetry_cell_setting            triclinic
loop_
_symmetry_equiv_pos_as_xyz
  x,y,z
_cell_length_a                    9.8781
_cell_length_b                    37.8553
_cell_length_c                    17.2600
_cell_angle_alpha                 90.0000
_cell_angle_beta                  90.0000
_cell_angle_gamma                 90.0000
loop_
_atom_site_label
_atom_site_type_symbol
_atom_site_fract_x
_atom_site_fract_y
_atom_site_fract_z
_atom_site_U_iso_or_equiv
_atom_site_adp_type
_atom_site_occupancy
C1     C     0.70784   0.83379   0.81055   0.00000  Uiso   1.00
C2     C     0.68594   0.80545   0.87208   0.00000  Uiso   1.00
C3     C     0.60710   0.77535   0.86364   0.00000  Uiso   1.00
C4     C     0.59997   0.75267   0.92672   0.00000  Uiso   1.00
C5     C     0.55537   0.70759   0.01178   0.00000  Uiso   1.00
C6     C     0.66438   0.86857   0.84751   0.00000  Uiso   1.00
C7     C     0.56743   0.89155   0.81840   0.00000  Uiso   1.00
C8     C     0.54217   0.92201   0.86081   0.00000  Uiso   1.00
C9     C     0.46417   0.97494   0.90769   0.00000  Uiso   1.00
C10    C     0.86058   0.83642   0.79914   0.00000  Uiso   1.00
C11    C     0.92861   0.83237   0.72935   0.00000  Uiso   1.00
C12    C     0.06853   0.83577   0.73101   0.00000  Uiso   1.00
C13    C     0.29517   0.83877   0.70278   0.00000  Uiso   1.00
C14    C     0.83536   0.84704   0.93761   0.00000  Uiso   1.00
C15    C     0.75520   0.81265   0.94109   0.00000  Uiso   1.00
C16    C     0.74819   0.79001   0.00421   0.00000  Uiso   1.00
C17    C     0.66936   0.75988   0.99586   0.00000  Uiso   1.00
C18    C     0.73364   0.87577   0.91652   0.00000  Uiso   1.00
C19    C     0.70852   0.90621   0.95898   0.00000  Uiso   1.00
C20    C     0.61156   0.92922   0.92994   0.00000  Uiso   1.00
C21    C     0.92985   0.84361   0.86815   0.00000  Uiso   1.00
C22    C     0.06970   0.84702   0.86992   0.00000  Uiso   1.00
C23    C     0.13792   0.84298   0.80015   0.00000  Uiso   1.00
H24    H     0.65391   0.82819   0.75682   0.00000  Uiso   1.00
H25    H     0.55350   0.76979   0.81022   0.00000  Uiso   1.00
H26    H     0.51385   0.88598   0.76499   0.00000  Uiso   1.00
H27    H     0.87497   0.82680   0.67595   0.00000  Uiso   1.00
H28    H     0.47269   0.70823   0.89987   0.00000  Uiso   1.00
H29    H     0.38912   0.95322   0.80449   0.00000  Uiso   1.00
H30    H     0.15060   0.82844   0.61672   0.00000  Uiso   1.00
H31    H     0.88929   0.85264   0.99134   0.00000  Uiso   1.00
H32    H     0.80181   0.79558   0.05761   0.00000  Uiso   1.00
H33    H     0.76215   0.91177   0.01238   0.00000  Uiso   1.00
H34    H     0.12327   0.85259   0.92334   0.00000  Uiso   1.00
H35    H     0.67422   0.72916   0.10066   0.00000  Uiso   1.00
H36    H     0.59065   0.97415   0.00527   0.00000  Uiso   1.00
H37    H     0.35213   0.84937   0.81751   0.00000  Uiso   1.00
O38    O     0.51162   0.68073   0.03963   0.00000  Uiso   1.00
O39    O     0.40200   0.00215   0.91448   0.00000  Uiso   1.00
O40    O     0.40104   0.83844   0.66815   0.00000  Uiso   1.00
N41    N     0.53215   0.72098   0.93802   0.00000  Uiso   1.00
N42    N     0.45400   0.95003   0.84885   0.00000  Uiso   1.00
N43    N     0.16592   0.83338   0.67331   0.00000  Uiso   1.00
N44    N     0.64059   0.73225   0.04607   0.00000  Uiso   1.00
N45    N     0.56244   0.96129   0.95690   0.00000  Uiso   1.00
N46    N     0.27436   0.84464   0.78135   0.00000  Uiso   1.00
C47    C     0.79216   0.16621   0.81055   0.00000  Uiso   1.00
C48    C     0.81406   0.19455   0.87208   0.00000  Uiso   1.00
C49    C     0.89290   0.22465   0.86364   0.00000  Uiso   1.00
C50    C     0.90003   0.24733   0.92672   0.00000  Uiso   1.00
C51    C     0.94463   0.29241   0.01178   0.00000  Uiso   1.00
C52    C     0.83562   0.13143   0.84751   0.00000  Uiso   1.00
C53    C     0.93257   0.10845   0.81840   0.00000  Uiso   1.00
C54    C     0.95783   0.07799   0.86081   0.00000  Uiso   1.00
C55    C     0.03583   0.02506   0.90769   0.00000  Uiso   1.00
C56    C     0.63942   0.16358   0.79914   0.00000  Uiso   1.00
C57    C     0.57139   0.16763   0.72935   0.00000  Uiso   1.00
C58    C     0.43147   0.16423   0.73101   0.00000  Uiso   1.00
C59    C     0.20483   0.16123   0.70278   0.00000  Uiso   1.00
C60    C     0.66464   0.15296   0.93761   0.00000  Uiso   1.00
C61    C     0.74480   0.18735   0.94109   0.00000  Uiso   1.00
C62    C     0.75181   0.20999   0.00421   0.00000  Uiso   1.00
C63    C     0.83064   0.24012   0.99586   0.00000  Uiso   1.00
C64    C     0.76636   0.12423   0.91652   0.00000  Uiso   1.00
C65    C     0.79148   0.09379   0.95898   0.00000  Uiso   1.00
C66    C     0.88844   0.07078   0.92994   0.00000  Uiso   1.00
C67    C     0.57015   0.15639   0.86815   0.00000  Uiso   1.00
C68    C     0.43030   0.15298   0.86992   0.00000  Uiso   1.00
C69    C     0.36208   0.15702   0.80015   0.00000  Uiso   1.00
H70    H     0.84609   0.17181   0.75682   0.00000  Uiso   1.00
H71    H     0.94650   0.23021   0.81022   0.00000  Uiso   1.00
H72    H     0.98615   0.11402   0.76499   0.00000  Uiso   1.00
H73    H     0.62503   0.17320   0.67595   0.00000  Uiso   1.00
H74    H     0.02731   0.29177   0.89987   0.00000  Uiso   1.00
H75    H     0.11088   0.04678   0.80449   0.00000  Uiso   1.00
H76    H     0.34940   0.17156   0.61672   0.00000  Uiso   1.00
H77    H     0.61071   0.14736   0.99134   0.00000  Uiso   1.00
H78    H     0.69819   0.20442   0.05761   0.00000  Uiso   1.00
H79    H     0.73785   0.08823   0.01238   0.00000  Uiso   1.00
H80    H     0.37673   0.14741   0.92334   0.00000  Uiso   1.00
H81    H     0.82578   0.27084   0.10066   0.00000  Uiso   1.00
H82    H     0.90935   0.02585   0.00527   0.00000  Uiso   1.00
H83    H     0.14787   0.15063   0.81751   0.00000  Uiso   1.00
O84    O     0.98838   0.31927   0.03963   0.00000  Uiso   1.00
O85    O     0.09800   0.99785   0.91448   0.00000  Uiso   1.00
O86    O     0.09896   0.16156   0.66815   0.00000  Uiso   1.00
N87    N     0.96785   0.27902   0.93802   0.00000  Uiso   1.00
N88    N     0.04600   0.04997   0.84885   0.00000  Uiso   1.00
N89    N     0.33408   0.16662   0.67331   0.00000  Uiso   1.00
N90    N     0.85941   0.26775   0.04607   0.00000  Uiso   1.00
N91    N     0.93756   0.03871   0.95690   0.00000  Uiso   1.00
N92    N     0.22564   0.15536   0.78135   0.00000  Uiso   1.00
C93    C     0.79216   0.33379   0.68945   0.00000  Uiso   1.00
C94    C     0.81406   0.30545   0.62792   0.00000  Uiso   1.00
C95    C     0.89290   0.27535   0.63636   0.00000  Uiso   1.00
C96    C     0.90003   0.25267   0.57328   0.00000  Uiso   1.00
C97    C     0.94463   0.20759   0.48822   0.00000  Uiso   1.00
C98    C     0.83562   0.36857   0.65249   0.00000  Uiso   1.00
C99    C     0.93257   0.39155   0.68160   0.00000  Uiso   1.00
C100   C     0.95783   0.42201   0.63919   0.00000  Uiso   1.00
C101   C     0.03583   0.47494   0.59231   0.00000  Uiso   1.00
C102   C     0.63942   0.33642   0.70086   0.00000  Uiso   1.00
C103   C     0.57139   0.33237   0.77065   0.00000  Uiso   1.00
C104   C     0.43147   0.33577   0.76899   0.00000  Uiso   1.00
C105   C     0.20483   0.33877   0.79722   0.00000  Uiso   1.00
C106   C     0.66464   0.34704   0.56239   0.00000  Uiso   1.00
C107   C     0.74480   0.31265   0.55891   0.00000  Uiso   1.00
C108   C     0.75181   0.29001   0.49579   0.00000  Uiso   1.00
C109   C     0.83064   0.25988   0.50414   0.00000  Uiso   1.00
C110   C     0.76636   0.37577   0.58348   0.00000  Uiso   1.00
C111   C     0.79148   0.40621   0.54102   0.00000  Uiso   1.00
C112   C     0.88844   0.42922   0.57006   0.00000  Uiso   1.00
C113   C     0.57015   0.34361   0.63185   0.00000  Uiso   1.00
C114   C     0.43030   0.34702   0.63008   0.00000  Uiso   1.00
C115   C     0.36208   0.34298   0.69985   0.00000  Uiso   1.00
H116   H     0.84609   0.32819   0.74318   0.00000  Uiso   1.00
H117   H     0.94650   0.26979   0.68978   0.00000  Uiso   1.00
H118   H     0.98615   0.38598   0.73501   0.00000  Uiso   1.00
H119   H     0.62503   0.32680   0.82405   0.00000  Uiso   1.00
H120   H     0.02731   0.20823   0.60013   0.00000  Uiso   1.00
H121   H     0.11088   0.45322   0.69551   0.00000  Uiso   1.00
H122   H     0.34940   0.32844   0.88328   0.00000  Uiso   1.00
H123   H     0.61071   0.35264   0.50866   0.00000  Uiso   1.00
H124   H     0.69819   0.29558   0.44239   0.00000  Uiso   1.00
H125   H     0.73785   0.41177   0.48762   0.00000  Uiso   1.00
H126   H     0.37673   0.35259   0.57666   0.00000  Uiso   1.00
H127   H     0.82578   0.22916   0.39934   0.00000  Uiso   1.00
H128   H     0.90935   0.47415   0.49473   0.00000  Uiso   1.00
H129   H     0.14787   0.34937   0.68249   0.00000  Uiso   1.00
O130   O     0.98838   0.18073   0.46037   0.00000  Uiso   1.00
O131   O     0.09800   0.50215   0.58552   0.00000  Uiso   1.00
O132   O     0.09896   0.33844   0.83185   0.00000  Uiso   1.00
N133   N     0.96785   0.22098   0.56198   0.00000  Uiso   1.00
N134   N     0.04600   0.45003   0.65115   0.00000  Uiso   1.00
N135   N     0.33408   0.33338   0.82669   0.00000  Uiso   1.00
N136   N     0.85941   0.23225   0.45393   0.00000  Uiso   1.00
N137   N     0.93756   0.46129   0.54310   0.00000  Uiso   1.00
N138   N     0.22564   0.34464   0.71865   0.00000  Uiso   1.00
C139   C     0.70784   0.66621   0.68945   0.00000  Uiso   1.00
C140   C     0.68594   0.69455   0.62792   0.00000  Uiso   1.00
C141   C     0.60710   0.72465   0.63636   0.00000  Uiso   1.00
C142   C     0.59997   0.74733   0.57328   0.00000  Uiso   1.00
C143   C     0.55537   0.79241   0.48822   0.00000  Uiso   1.00
C144   C     0.66438   0.63143   0.65249   0.00000  Uiso   1.00
C145   C     0.56743   0.60845   0.68160   0.00000  Uiso   1.00
C146   C     0.54217   0.57799   0.63919   0.00000  Uiso   1.00
C147   C     0.46417   0.52506   0.59231   0.00000  Uiso   1.00
C148   C     0.86058   0.66358   0.70086   0.00000  Uiso   1.00
C149   C     0.92861   0.66763   0.77065   0.00000  Uiso   1.00
C150   C     0.06853   0.66423   0.76899   0.00000  Uiso   1.00
C151   C     0.29517   0.66123   0.79722   0.00000  Uiso   1.00
C152   C     0.83536   0.65296   0.56239   0.00000  Uiso   1.00
C153   C     0.75520   0.68735   0.55891   0.00000  Uiso   1.00
C154   C     0.74819   0.70999   0.49579   0.00000  Uiso   1.00
C155   C     0.66936   0.74012   0.50414   0.00000  Uiso   1.00
C156   C     0.73364   0.62423   0.58348   0.00000  Uiso   1.00
C157   C     0.70852   0.59379   0.54102   0.00000  Uiso   1.00
C158   C     0.61156   0.57078   0.57006   0.00000  Uiso   1.00
C159   C     0.92985   0.65639   0.63185   0.00000  Uiso   1.00
C160   C     0.06970   0.65298   0.63008   0.00000  Uiso   1.00
C161   C     0.13792   0.65702   0.69985   0.00000  Uiso   1.00
H162   H     0.65391   0.67181   0.74318   0.00000  Uiso   1.00
H163   H     0.55350   0.73021   0.68978   0.00000  Uiso   1.00
H164   H     0.51385   0.61402   0.73501   0.00000  Uiso   1.00
H165   H     0.87497   0.67320   0.82405   0.00000  Uiso   1.00
H166   H     0.47269   0.79177   0.60013   0.00000  Uiso   1.00
H167   H     0.38912   0.54678   0.69551   0.00000  Uiso   1.00
H168   H     0.15060   0.67156   0.88328   0.00000  Uiso   1.00
H169   H     0.88929   0.64736   0.50866   0.00000  Uiso   1.00
H170   H     0.80181   0.70442   0.44239   0.00000  Uiso   1.00
H171   H     0.76215   0.58823   0.48762   0.00000  Uiso   1.00
H172   H     0.12327   0.64741   0.57666   0.00000  Uiso   1.00
H173   H     0.67422   0.77084   0.39934   0.00000  Uiso   1.00
H174   H     0.59065   0.52585   0.49473   0.00000  Uiso   1.00
H175   H     0.35213   0.65063   0.68249   0.00000  Uiso   1.00
O176   O     0.51162   0.81927   0.46037   0.00000  Uiso   1.00
O177   O     0.40200   0.49785   0.58552   0.00000  Uiso   1.00
O178   O     0.40104   0.66156   0.83185   0.00000  Uiso   1.00
N179   N     0.53215   0.77902   0.56198   0.00000  Uiso   1.00
N180   N     0.45400   0.54997   0.65115   0.00000  Uiso   1.00
N181   N     0.16592   0.66662   0.82669   0.00000  Uiso   1.00
N182   N     0.64059   0.76775   0.45393   0.00000  Uiso   1.00
N183   N     0.56244   0.53871   0.54310   0.00000  Uiso   1.00
N184   N     0.27436   0.65536   0.71865   0.00000  Uiso   1.00
C185   C     0.29216   0.16621   0.18945   0.00000  Uiso   1.00
C186   C     0.31406   0.19455   0.12792   0.00000  Uiso   1.00
C187   C     0.39290   0.22465   0.13636   0.00000  Uiso   1.00
C188   C     0.40003   0.24733   0.07328   0.00000  Uiso   1.00
C189   C     0.44463   0.29241   0.98822   0.00000  Uiso   1.00
C190   C     0.33562   0.13143   0.15249   0.00000  Uiso   1.00
C191   C     0.43257   0.10845   0.18160   0.00000  Uiso   1.00
C192   C     0.45783   0.07799   0.13919   0.00000  Uiso   1.00
C193   C     0.53583   0.02506   0.09231   0.00000  Uiso   1.00
C194   C     0.13942   0.16358   0.20086   0.00000  Uiso   1.00
C195   C     0.07139   0.16763   0.27065   0.00000  Uiso   1.00
C196   C     0.93147   0.16423   0.26899   0.00000  Uiso   1.00
C197   C     0.70483   0.16123   0.29722   0.00000  Uiso   1.00
C198   C     0.16464   0.15296   0.06239   0.00000  Uiso   1.00
C199   C     0.24480   0.18735   0.05891   0.00000  Uiso   1.00
C200   C     0.25181   0.20999   0.99579   0.00000  Uiso   1.00
C201   C     0.33064   0.24012   0.00414   0.00000  Uiso   1.00
C202   C     0.26636   0.12423   0.08348   0.00000  Uiso   1.00
C203   C     0.29148   0.09379   0.04102   0.00000  Uiso   1.00
C204   C     0.38844   0.07078   0.07006   0.00000  Uiso   1.00
C205   C     0.07015   0.15639   0.13185   0.00000  Uiso   1.00
C206   C     0.93030   0.15298   0.13008   0.00000  Uiso   1.00
C207   C     0.86208   0.15702   0.19985   0.00000  Uiso   1.00
H208   H     0.34609   0.17181   0.24318   0.00000  Uiso   1.00
H209   H     0.44650   0.23021   0.18978   0.00000  Uiso   1.00
H210   H     0.48615   0.11402   0.23501   0.00000  Uiso   1.00
H211   H     0.12503   0.17320   0.32405   0.00000  Uiso   1.00
H212   H     0.52731   0.29177   0.10013   0.00000  Uiso   1.00
H213   H     0.61088   0.04678   0.19551   0.00000  Uiso   1.00
H214   H     0.84940   0.17156   0.38328   0.00000  Uiso   1.00
H215   H     0.11071   0.14736   0.00866   0.00000  Uiso   1.00
H216   H     0.19819   0.20442   0.94239   0.00000  Uiso   1.00
H217   H     0.23785   0.08823   0.98762   0.00000  Uiso   1.00
H218   H     0.87673   0.14741   0.07666   0.00000  Uiso   1.00
H219   H     0.32578   0.27084   0.89934   0.00000  Uiso   1.00
H220   H     0.40935   0.02585   0.99473   0.00000  Uiso   1.00
H221   H     0.64787   0.15063   0.18249   0.00000  Uiso   1.00
O222   O     0.48838   0.31927   0.96037   0.00000  Uiso   1.00
O223   O     0.59800   0.99785   0.08552   0.00000  Uiso   1.00
O224   O     0.59896   0.16156   0.33185   0.00000  Uiso   1.00
N225   N     0.46785   0.27902   0.06198   0.00000  Uiso   1.00
N226   N     0.54600   0.04997   0.15115   0.00000  Uiso   1.00
N227   N     0.83408   0.16662   0.32669   0.00000  Uiso   1.00
N228   N     0.35941   0.26775   0.95393   0.00000  Uiso   1.00
N229   N     0.43756   0.03871   0.04310   0.00000  Uiso   1.00
N230   N     0.72564   0.15536   0.21865   0.00000  Uiso   1.00
C231   C     0.20784   0.83379   0.18945   0.00000  Uiso   1.00
C232   C     0.18594   0.80545   0.12792   0.00000  Uiso   1.00
C233   C     0.10710   0.77535   0.13636   0.00000  Uiso   1.00
C234   C     0.09997   0.75267   0.07328   0.00000  Uiso   1.00
C235   C     0.05537   0.70759   0.98822   0.00000  Uiso   1.00
C236   C     0.16438   0.86857   0.15249   0.00000  Uiso   1.00
C237   C     0.06743   0.89155   0.18160   0.00000  Uiso   1.00
C238   C     0.04217   0.92201   0.13919   0.00000  Uiso   1.00
C239   C     0.96417   0.97494   0.09231   0.00000  Uiso   1.00
C240   C     0.36058   0.83642   0.20086   0.00000  Uiso   1.00
C241   C     0.42861   0.83237   0.27065   0.00000  Uiso   1.00
C242   C     0.56853   0.83577   0.26899   0.00000  Uiso   1.00
C243   C     0.79517   0.83877   0.29722   0.00000  Uiso   1.00
C244   C     0.33536   0.84704   0.06239   0.00000  Uiso   1.00
C245   C     0.25520   0.81265   0.05891   0.00000  Uiso   1.00
C246   C     0.24819   0.79001   0.99579   0.00000  Uiso   1.00
C247   C     0.16936   0.75988   0.00414   0.00000  Uiso   1.00
C248   C     0.23364   0.87577   0.08348   0.00000  Uiso   1.00
C249   C     0.20852   0.90621   0.04102   0.00000  Uiso   1.00
C250   C     0.11156   0.92922   0.07006   0.00000  Uiso   1.00
C251   C     0.42985   0.84361   0.13185   0.00000  Uiso   1.00
C252   C     0.56970   0.84702   0.13008   0.00000  Uiso   1.00
C253   C     0.63792   0.84298   0.19985   0.00000  Uiso   1.00
H254   H     0.15391   0.82819   0.24318   0.00000  Uiso   1.00
H255   H     0.05350   0.76979   0.18978   0.00000  Uiso   1.00
H256   H     0.01385   0.88598   0.23501   0.00000  Uiso   1.00
H257   H     0.37497   0.82680   0.32405   0.00000  Uiso   1.00
H258   H     0.97269   0.70823   0.10013   0.00000  Uiso   1.00
H259   H     0.88912   0.95322   0.19551   0.00000  Uiso   1.00
H260   H     0.65060   0.82844   0.38328   0.00000  Uiso   1.00
H261   H     0.38929   0.85264   0.00866   0.00000  Uiso   1.00
H262   H     0.30181   0.79558   0.94239   0.00000  Uiso   1.00
H263   H     0.26215   0.91177   0.98762   0.00000  Uiso   1.00
H264   H     0.62327   0.85259   0.07666   0.00000  Uiso   1.00
H265   H     0.17422   0.72916   0.89934   0.00000  Uiso   1.00
H266   H     0.09065   0.97415   0.99473   0.00000  Uiso   1.00
H267   H     0.85213   0.84937   0.18249   0.00000  Uiso   1.00
O268   O     0.01162   0.68073   0.96037   0.00000  Uiso   1.00
O269   O     0.90200   0.00215   0.08552   0.00000  Uiso   1.00
O270   O     0.90104   0.83844   0.33185   0.00000  Uiso   1.00
N271   N     0.03215   0.72098   0.06198   0.00000  Uiso   1.00
N272   N     0.95400   0.95003   0.15115   0.00000  Uiso   1.00
N273   N     0.66592   0.83338   0.32669   0.00000  Uiso   1.00
N274   N     0.14059   0.73225   0.95393   0.00000  Uiso   1.00
N275   N     0.06244   0.96129   0.04310   0.00000  Uiso   1.00
N276   N     0.77436   0.84464   0.21865   0.00000  Uiso   1.00
C277   C     0.20784   0.66621   0.31055   0.00000  Uiso   1.00
C278   C     0.18594   0.69455   0.37208   0.00000  Uiso   1.00
C279   C     0.10710   0.72465   0.36364   0.00000  Uiso   1.00
C280   C     0.09997   0.74733   0.42672   0.00000  Uiso   1.00
C281   C     0.05537   0.79241   0.51178   0.00000  Uiso   1.00
C282   C     0.16438   0.63143   0.34751   0.00000  Uiso   1.00
C283   C     0.06743   0.60845   0.31840   0.00000  Uiso   1.00
C284   C     0.04217   0.57799   0.36081   0.00000  Uiso   1.00
C285   C     0.96417   0.52506   0.40769   0.00000  Uiso   1.00
C286   C     0.36058   0.66358   0.29914   0.00000  Uiso   1.00
C287   C     0.42861   0.66763   0.22935   0.00000  Uiso   1.00
C288   C     0.56853   0.66423   0.23101   0.00000  Uiso   1.00
C289   C     0.79517   0.66123   0.20278   0.00000  Uiso   1.00
C290   C     0.33536   0.65296   0.43761   0.00000  Uiso   1.00
C291   C     0.25520   0.68735   0.44109   0.00000  Uiso   1.00
C292   C     0.24819   0.70999   0.50421   0.00000  Uiso   1.00
C293   C     0.16936   0.74012   0.49586   0.00000  Uiso   1.00
C294   C     0.23364   0.62423   0.41652   0.00000  Uiso   1.00
C295   C     0.20852   0.59379   0.45898   0.00000  Uiso   1.00
C296   C     0.11156   0.57078   0.42994   0.00000  Uiso   1.00
C297   C     0.42985   0.65639   0.36815   0.00000  Uiso   1.00
C298   C     0.56970   0.65298   0.36992   0.00000  Uiso   1.00
C299   C     0.63792   0.65702   0.30015   0.00000  Uiso   1.00
H300   H     0.15391   0.67181   0.25682   0.00000  Uiso   1.00
H301   H     0.05350   0.73021   0.31022   0.00000  Uiso   1.00
H302   H     0.01385   0.61402   0.26499   0.00000  Uiso   1.00
H303   H     0.37497   0.67320   0.17595   0.00000  Uiso   1.00
H304   H     0.97269   0.79177   0.39987   0.00000  Uiso   1.00
H305   H     0.88912   0.54678   0.30449   0.00000  Uiso   1.00
H306   H     0.65060   0.67156   0.11672   0.00000  Uiso   1.00
H307   H     0.38929   0.64736   0.49134   0.00000  Uiso   1.00
H308   H     0.30181   0.70442   0.55761   0.00000  Uiso   1.00
H309   H     0.26215   0.58823   0.51238   0.00000  Uiso   1.00
H310   H     0.62327   0.64741   0.42334   0.00000  Uiso   1.00
H311   H     0.17422   0.77084   0.60066   0.00000  Uiso   1.00
H312   H     0.09065   0.52585   0.50527   0.00000  Uiso   1.00
H313   H     0.85213   0.65063   0.31751   0.00000  Uiso   1.00
O314   O     0.01162   0.81927   0.53963   0.00000  Uiso   1.00
O315   O     0.90200   0.49785   0.41448   0.00000  Uiso   1.00
O316   O     0.90104   0.66156   0.16815   0.00000  Uiso   1.00
N317   N     0.03215   0.77902   0.43802   0.00000  Uiso   1.00
N318   N     0.95400   0.54997   0.34885   0.00000  Uiso   1.00
N319   N     0.66592   0.66662   0.17331   0.00000  Uiso   1.00
N320   N     0.14059   0.76775   0.54607   0.00000  Uiso   1.00
N321   N     0.06244   0.53871   0.45690   0.00000  Uiso   1.00
N322   N     0.77436   0.65536   0.28135   0.00000  Uiso   1.00
C323   C     0.29216   0.33379   0.31055   0.00000  Uiso   1.00
C324   C     0.31406   0.30545   0.37208   0.00000  Uiso   1.00
C325   C     0.39290   0.27535   0.36364   0.00000  Uiso   1.00
C326   C     0.40003   0.25267   0.42672   0.00000  Uiso   1.00
C327   C     0.44463   0.20759   0.51178   0.00000  Uiso   1.00
C328   C     0.33562   0.36857   0.34751   0.00000  Uiso   1.00
C329   C     0.43257   0.39155   0.31840   0.00000  Uiso   1.00
C330   C     0.45783   0.42201   0.36081   0.00000  Uiso   1.00
C331   C     0.53583   0.47494   0.40769   0.00000  Uiso   1.00
C332   C     0.13942   0.33642   0.29914   0.00000  Uiso   1.00
C333   C     0.07139   0.33237   0.22935   0.00000  Uiso   1.00
C334   C     0.93147   0.33577   0.23101   0.00000  Uiso   1.00
C335   C     0.70483   0.33877   0.20278   0.00000  Uiso   1.00
C336   C     0.16464   0.34704   0.43761   0.00000  Uiso   1.00
C337   C     0.24480   0.31265   0.44109   0.00000  Uiso   1.00
C338   C     0.25181   0.29001   0.50421   0.00000  Uiso   1.00
C339   C     0.33064   0.25988   0.49586   0.00000  Uiso   1.00
C340   C     0.26636   0.37577   0.41652   0.00000  Uiso   1.00
C341   C     0.29148   0.40621   0.45898   0.00000  Uiso   1.00
C342   C     0.38844   0.42922   0.42994   0.00000  Uiso   1.00
C343   C     0.07015   0.34361   0.36815   0.00000  Uiso   1.00
C344   C     0.93030   0.34702   0.36992   0.00000  Uiso   1.00
C345   C     0.86208   0.34298   0.30015   0.00000  Uiso   1.00
H346   H     0.34609   0.32819   0.25682   0.00000  Uiso   1.00
H347   H     0.44650   0.26979   0.31022   0.00000  Uiso   1.00
H348   H     0.48615   0.38598   0.26499   0.00000  Uiso   1.00
H349   H     0.12503   0.32680   0.17595   0.00000  Uiso   1.00
H350   H     0.52731   0.20823   0.39987   0.00000  Uiso   1.00
H351   H     0.61088   0.45322   0.30449   0.00000  Uiso   1.00
H352   H     0.84940   0.32844   0.11672   0.00000  Uiso   1.00
H353   H     0.11071   0.35264   0.49134   0.00000  Uiso   1.00
H354   H     0.19819   0.29558   0.55761   0.00000  Uiso   1.00
H355   H     0.23785   0.41177   0.51238   0.00000  Uiso   1.00
H356   H     0.87673   0.35259   0.42334   0.00000  Uiso   1.00
H357   H     0.32578   0.22916   0.60066   0.00000  Uiso   1.00
H358   H     0.40935   0.47415   0.50527   0.00000  Uiso   1.00
H359   H     0.64787   0.34937   0.31751   0.00000  Uiso   1.00
O360   O     0.48838   0.18073   0.53963   0.00000  Uiso   1.00
O361   O     0.59800   0.50215   0.41448   0.00000  Uiso   1.00
O362   O     0.59896   0.33844   0.16815   0.00000  Uiso   1.00
N363   N     0.46785   0.22098   0.43802   0.00000  Uiso   1.00
N364   N     0.54600   0.45003   0.34885   0.00000  Uiso   1.00
N365   N     0.83408   0.33338   0.17331   0.00000  Uiso   1.00
N366   N     0.35941   0.23225   0.54607   0.00000  Uiso   1.00
N367   N     0.43756   0.46129   0.45690   0.00000  Uiso   1.00
N368   N     0.72564   0.34464   0.28135   0.00000  Uiso   1.00
