data_job_04848
_audit_creation_date              2018-12-19
_audit_creation_method            'Materials Studio'
_symmetry_space_group_name_H-M    'P1'
_symmetry_Int_Tables_number       1
_symmetry_cell_setting            triclinic
loop_
_symmetry_equiv_pos_as_xyz
  x,y,z
_cell_length_a                    11.6843
_cell_length_b                    42.2703
_cell_length_c                    7.0032
_cell_angle_alpha                 90.0000
_cell_angle_beta                  90.0000
_cell_angle_gamma                 90.0000
loop_
_atom_site_label
_atom_site_type_symbol
_atom_site_fract_x
_atom_site_fract_y
_atom_site_fract_z
_atom_site_U_iso_or_equiv
_atom_site_adp_type
_atom_site_occupancy
C1     C     0.52399   0.08848   0.48551   0.00000  Uiso   1.00
C2     C     0.45301   0.06885   0.34639   0.00000  Uiso   1.00
C3     C     0.35982   0.05009   0.39403   0.00000  Uiso   1.00
C4     C     0.30636   0.03398   0.24605   0.00000  Uiso   1.00
C5     C     0.19033   0.00310   0.05876   0.00000  Uiso   1.00
C6     C     0.64741   0.07748   0.46089   0.00000  Uiso   1.00
C7     C     0.71767   0.06598   0.60481   0.00000  Uiso   1.00
C8     C     0.82786   0.05714   0.55321   0.00000  Uiso   1.00
C9     C     0.01367   0.03967   0.54371   0.00000  Uiso   1.00
C10    C     0.52007   0.12236   0.41111   0.00000  Uiso   1.00
C11    C     0.48328   0.14860   0.51319   0.00000  Uiso   1.00
C12    C     0.48628   0.17755   0.41969   0.00000  Uiso   1.00
C13    C     0.47436   0.22978   0.33290   0.00000  Uiso   1.00
C14    C     0.59477   0.09324   0.13799   0.00000  Uiso   1.00
C15    C     0.49146   0.07143   0.15763   0.00000  Uiso   1.00
C16    C     0.43812   0.05536   0.00953   0.00000  Uiso   1.00
C17    C     0.34486   0.03657   0.05695   0.00000  Uiso   1.00
C18    C     0.68586   0.08006   0.27213   0.00000  Uiso   1.00
C19    C     0.79597   0.07124   0.22031   0.00000  Uiso   1.00
C20    C     0.86638   0.05973   0.36411   0.00000  Uiso   1.00
C21    C     0.55851   0.12495   0.22234   0.00000  Uiso   1.00
C22    C     0.56157   0.15387   0.12868   0.00000  Uiso   1.00
C23    C     0.52479   0.18015   0.23059   0.00000  Uiso   1.00
H24    H     0.49407   0.08646   0.63247   0.00000  Uiso   1.00
H25    H     0.33010   0.04809   0.54013   0.00000  Uiso   1.00
H26    H     0.68790   0.06398   0.75087   0.00000  Uiso   1.00
H27    H     0.45354   0.14659   0.65926   0.00000  Uiso   1.00
H28    H     0.16529   0.00668   0.35452   0.00000  Uiso   1.00
H29    H     0.91974   0.04019   0.79890   0.00000  Uiso   1.00
H30    H     0.42554   0.21440   0.60571   0.00000  Uiso   1.00
H31    H     0.62470   0.09525   0.99102   0.00000  Uiso   1.00
H32    H     0.46789   0.05736   0.86347   0.00000  Uiso   1.00
H33    H     0.82569   0.07325   0.07423   0.00000  Uiso   1.00
H34    H     0.59133   0.15586   0.98261   0.00000  Uiso   1.00
H35    H     0.27712   0.01420   0.80532   0.00000  Uiso   1.00
H36    H     0.03158   0.04772   0.24971   0.00000  Uiso   1.00
H37    H     0.53738   0.22192   0.05651   0.00000  Uiso   1.00
O38    O     0.11572   0.98535   0.00760   0.00000  Uiso   1.00
O39    O     0.10554   0.02932   0.59062   0.00000  Uiso   1.00
O40    O     0.45715   0.25787   0.33715   0.00000  Uiso   1.00
N41    N     0.21311   0.01366   0.24276   0.00000  Uiso   1.00
N42    N     0.91848   0.04498   0.65823   0.00000  Uiso   1.00
N43    N     0.45647   0.20785   0.47763   0.00000  Uiso   1.00
N44    N     0.27329   0.01770   0.94724   0.00000  Uiso   1.00
N45    N     0.97866   0.04903   0.36271   0.00000  Uiso   1.00
N46    N     0.51665   0.21190   0.18211   0.00000  Uiso   1.00
C47    C     0.47601   0.91152   0.48551   0.00000  Uiso   1.00
C48    C     0.54699   0.93115   0.34639   0.00000  Uiso   1.00
C49    C     0.64018   0.94991   0.39403   0.00000  Uiso   1.00
C50    C     0.69364   0.96602   0.24605   0.00000  Uiso   1.00
C51    C     0.80967   0.99690   0.05876   0.00000  Uiso   1.00
C52    C     0.35259   0.92252   0.46089   0.00000  Uiso   1.00
C53    C     0.28233   0.93402   0.60481   0.00000  Uiso   1.00
C54    C     0.17214   0.94286   0.55321   0.00000  Uiso   1.00
C55    C     0.98633   0.96033   0.54371   0.00000  Uiso   1.00
C56    C     0.47993   0.87764   0.41111   0.00000  Uiso   1.00
C57    C     0.51672   0.85140   0.51319   0.00000  Uiso   1.00
C58    C     0.51372   0.82245   0.41969   0.00000  Uiso   1.00
C59    C     0.52564   0.77022   0.33290   0.00000  Uiso   1.00
C60    C     0.40523   0.90676   0.13799   0.00000  Uiso   1.00
C61    C     0.50854   0.92857   0.15763   0.00000  Uiso   1.00
C62    C     0.56188   0.94464   0.00953   0.00000  Uiso   1.00
C63    C     0.65514   0.96343   0.05695   0.00000  Uiso   1.00
C64    C     0.31414   0.91994   0.27213   0.00000  Uiso   1.00
C65    C     0.20403   0.92876   0.22031   0.00000  Uiso   1.00
C66    C     0.13362   0.94027   0.36411   0.00000  Uiso   1.00
C67    C     0.44149   0.87505   0.22234   0.00000  Uiso   1.00
C68    C     0.43843   0.84613   0.12868   0.00000  Uiso   1.00
C69    C     0.47521   0.81985   0.23059   0.00000  Uiso   1.00
H70    H     0.50593   0.91354   0.63247   0.00000  Uiso   1.00
H71    H     0.66990   0.95191   0.54013   0.00000  Uiso   1.00
H72    H     0.31210   0.93602   0.75087   0.00000  Uiso   1.00
H73    H     0.54646   0.85341   0.65926   0.00000  Uiso   1.00
H74    H     0.83471   0.99332   0.35452   0.00000  Uiso   1.00
H75    H     0.08026   0.95981   0.79890   0.00000  Uiso   1.00
H76    H     0.57446   0.78560   0.60571   0.00000  Uiso   1.00
H77    H     0.37530   0.90475   0.99102   0.00000  Uiso   1.00
H78    H     0.53211   0.94264   0.86347   0.00000  Uiso   1.00
H79    H     0.17431   0.92675   0.07423   0.00000  Uiso   1.00
H80    H     0.40867   0.84414   0.98261   0.00000  Uiso   1.00
H81    H     0.72288   0.98580   0.80532   0.00000  Uiso   1.00
H82    H     0.96842   0.95228   0.24971   0.00000  Uiso   1.00
H83    H     0.46262   0.77808   0.05651   0.00000  Uiso   1.00
O84    O     0.88428   0.01465   0.00760   0.00000  Uiso   1.00
O85    O     0.89446   0.97068   0.59062   0.00000  Uiso   1.00
O86    O     0.54285   0.74213   0.33715   0.00000  Uiso   1.00
N87    N     0.78689   0.98634   0.24276   0.00000  Uiso   1.00
N88    N     0.08152   0.95502   0.65823   0.00000  Uiso   1.00
N89    N     0.54353   0.79215   0.47763   0.00000  Uiso   1.00
N90    N     0.72671   0.98230   0.94724   0.00000  Uiso   1.00
N91    N     0.02134   0.95097   0.36271   0.00000  Uiso   1.00
N92    N     0.48335   0.78810   0.18211   0.00000  Uiso   1.00
C93    C     0.52399   0.41152   0.98551   0.00000  Uiso   1.00
C94    C     0.45301   0.43115   0.84639   0.00000  Uiso   1.00
C95    C     0.35982   0.44991   0.89403   0.00000  Uiso   1.00
C96    C     0.30636   0.46602   0.74605   0.00000  Uiso   1.00
C97    C     0.19033   0.49690   0.55876   0.00000  Uiso   1.00
C98    C     0.64741   0.42252   0.96089   0.00000  Uiso   1.00
C99    C     0.71767   0.43402   0.10481   0.00000  Uiso   1.00
C100   C     0.82786   0.44286   0.05321   0.00000  Uiso   1.00
C101   C     0.01367   0.46033   0.04371   0.00000  Uiso   1.00
C102   C     0.52007   0.37764   0.91111   0.00000  Uiso   1.00
C103   C     0.48328   0.35140   0.01319   0.00000  Uiso   1.00
C104   C     0.48628   0.32245   0.91969   0.00000  Uiso   1.00
C105   C     0.47436   0.27022   0.83290   0.00000  Uiso   1.00
C106   C     0.59477   0.40676   0.63799   0.00000  Uiso   1.00
C107   C     0.49146   0.42857   0.65763   0.00000  Uiso   1.00
C108   C     0.43812   0.44464   0.50953   0.00000  Uiso   1.00
C109   C     0.34486   0.46343   0.55695   0.00000  Uiso   1.00
C110   C     0.68586   0.41994   0.77213   0.00000  Uiso   1.00
C111   C     0.79597   0.42876   0.72031   0.00000  Uiso   1.00
C112   C     0.86638   0.44027   0.86411   0.00000  Uiso   1.00
C113   C     0.55851   0.37505   0.72234   0.00000  Uiso   1.00
C114   C     0.56157   0.34613   0.62868   0.00000  Uiso   1.00
C115   C     0.52479   0.31985   0.73059   0.00000  Uiso   1.00
H116   H     0.49407   0.41354   0.13247   0.00000  Uiso   1.00
H117   H     0.33010   0.45191   0.04013   0.00000  Uiso   1.00
H118   H     0.68790   0.43602   0.25087   0.00000  Uiso   1.00
H119   H     0.45354   0.35341   0.15926   0.00000  Uiso   1.00
H120   H     0.16529   0.49332   0.85452   0.00000  Uiso   1.00
H121   H     0.91974   0.45981   0.29890   0.00000  Uiso   1.00
H122   H     0.42554   0.28560   0.10571   0.00000  Uiso   1.00
H123   H     0.62470   0.40475   0.49102   0.00000  Uiso   1.00
H124   H     0.46789   0.44264   0.36347   0.00000  Uiso   1.00
H125   H     0.82569   0.42675   0.57423   0.00000  Uiso   1.00
H126   H     0.59133   0.34414   0.48261   0.00000  Uiso   1.00
H127   H     0.27712   0.48580   0.30532   0.00000  Uiso   1.00
H128   H     0.03158   0.45228   0.74971   0.00000  Uiso   1.00
H129   H     0.53738   0.27808   0.55651   0.00000  Uiso   1.00
O130   O     0.11572   0.51465   0.50760   0.00000  Uiso   1.00
O131   O     0.10554   0.47068   0.09062   0.00000  Uiso   1.00
O132   O     0.45715   0.24213   0.83715   0.00000  Uiso   1.00
N133   N     0.21311   0.48634   0.74276   0.00000  Uiso   1.00
N134   N     0.91848   0.45502   0.15823   0.00000  Uiso   1.00
N135   N     0.45647   0.29215   0.97763   0.00000  Uiso   1.00
N136   N     0.27329   0.48230   0.44724   0.00000  Uiso   1.00
N137   N     0.97866   0.45097   0.86271   0.00000  Uiso   1.00
N138   N     0.51665   0.28810   0.68211   0.00000  Uiso   1.00
C139   C     0.47601   0.58848   0.98551   0.00000  Uiso   1.00
C140   C     0.54699   0.56885   0.84639   0.00000  Uiso   1.00
C141   C     0.64018   0.55009   0.89403   0.00000  Uiso   1.00
C142   C     0.69364   0.53398   0.74605   0.00000  Uiso   1.00
C143   C     0.80967   0.50310   0.55876   0.00000  Uiso   1.00
C144   C     0.35259   0.57748   0.96089   0.00000  Uiso   1.00
C145   C     0.28233   0.56598   0.10481   0.00000  Uiso   1.00
C146   C     0.17214   0.55714   0.05321   0.00000  Uiso   1.00
C147   C     0.98633   0.53967   0.04371   0.00000  Uiso   1.00
C148   C     0.47993   0.62236   0.91111   0.00000  Uiso   1.00
C149   C     0.51672   0.64860   0.01319   0.00000  Uiso   1.00
C150   C     0.51372   0.67755   0.91969   0.00000  Uiso   1.00
C151   C     0.52564   0.72978   0.83290   0.00000  Uiso   1.00
C152   C     0.40523   0.59324   0.63799   0.00000  Uiso   1.00
C153   C     0.50854   0.57143   0.65763   0.00000  Uiso   1.00
C154   C     0.56188   0.55536   0.50953   0.00000  Uiso   1.00
C155   C     0.65514   0.53657   0.55695   0.00000  Uiso   1.00
C156   C     0.31414   0.58006   0.77213   0.00000  Uiso   1.00
C157   C     0.20403   0.57124   0.72031   0.00000  Uiso   1.00
C158   C     0.13362   0.55973   0.86411   0.00000  Uiso   1.00
C159   C     0.44149   0.62495   0.72234   0.00000  Uiso   1.00
C160   C     0.43843   0.65387   0.62868   0.00000  Uiso   1.00
C161   C     0.47521   0.68015   0.73059   0.00000  Uiso   1.00
H162   H     0.50593   0.58646   0.13247   0.00000  Uiso   1.00
H163   H     0.66990   0.54809   0.04013   0.00000  Uiso   1.00
H164   H     0.31210   0.56398   0.25087   0.00000  Uiso   1.00
H165   H     0.54646   0.64659   0.15926   0.00000  Uiso   1.00
H166   H     0.83471   0.50668   0.85452   0.00000  Uiso   1.00
H167   H     0.08026   0.54019   0.29890   0.00000  Uiso   1.00
H168   H     0.57446   0.71440   0.10571   0.00000  Uiso   1.00
H169   H     0.37530   0.59525   0.49102   0.00000  Uiso   1.00
H170   H     0.53211   0.55736   0.36347   0.00000  Uiso   1.00
H171   H     0.17431   0.57325   0.57423   0.00000  Uiso   1.00
H172   H     0.40867   0.65586   0.48261   0.00000  Uiso   1.00
H173   H     0.72288   0.51420   0.30532   0.00000  Uiso   1.00
H174   H     0.96842   0.54772   0.74971   0.00000  Uiso   1.00
H175   H     0.46262   0.72192   0.55651   0.00000  Uiso   1.00
O176   O     0.88428   0.48535   0.50760   0.00000  Uiso   1.00
O177   O     0.89446   0.52932   0.09062   0.00000  Uiso   1.00
O178   O     0.54285   0.75787   0.83715   0.00000  Uiso   1.00
N179   N     0.78689   0.51366   0.74276   0.00000  Uiso   1.00
N180   N     0.08152   0.54498   0.15823   0.00000  Uiso   1.00
N181   N     0.54353   0.70785   0.97763   0.00000  Uiso   1.00
N182   N     0.72671   0.51770   0.44724   0.00000  Uiso   1.00
N183   N     0.02134   0.54903   0.86271   0.00000  Uiso   1.00
N184   N     0.48335   0.71190   0.68211   0.00000  Uiso   1.00
