data_job_03076
_audit_creation_date              2018-12-19
_audit_creation_method            'Materials Studio'
_symmetry_space_group_name_H-M    'P1'
_symmetry_Int_Tables_number       1
_symmetry_cell_setting            triclinic
loop_
_symmetry_equiv_pos_as_xyz
  x,y,z
_cell_length_a                    19.5958
_cell_length_b                    9.6824
_cell_length_c                    26.7791
_cell_angle_alpha                 90.0000
_cell_angle_beta                  74.8537
_cell_angle_gamma                 90.0000
loop_
_atom_site_label
_atom_site_type_symbol
_atom_site_fract_x
_atom_site_fract_y
_atom_site_fract_z
_atom_site_U_iso_or_equiv
_atom_site_adp_type
_atom_site_occupancy
C1     C     0.42718   0.15442   0.40153   0.00000  Uiso   1.00
C2     C     0.36012   0.08306   0.43260   0.00000  Uiso   1.00
C3     C     0.31833   0.12582   0.48028   0.00000  Uiso   1.00
C4     C     0.25914   0.04648   0.50240   0.00000  Uiso   1.00
C5     C     0.15757   0.95357   0.55441   0.00000  Uiso   1.00
C6     C     0.48527   0.04529   0.39206   0.00000  Uiso   1.00
C7     C     0.54871   0.05631   0.40565   0.00000  Uiso   1.00
C8     C     0.59488   0.94516   0.39364   0.00000  Uiso   1.00
C9     C     0.68763   0.79366   0.38269   0.00000  Uiso   1.00
C10    C     0.41505   0.18621   0.34874   0.00000  Uiso   1.00
C11    C     0.41947   0.31571   0.32590   0.00000  Uiso   1.00
C12    C     0.40653   0.32321   0.27741   0.00000  Uiso   1.00
C13    C     0.39025   0.39050   0.19920   0.00000  Uiso   1.00
C14    C     0.39636   0.93746   0.35602   0.00000  Uiso   1.00
C15    C     0.34338   0.96522   0.40788   0.00000  Uiso   1.00
C16    C     0.28423   0.88579   0.42993   0.00000  Uiso   1.00
C17    C     0.24236   0.92842   0.47764   0.00000  Uiso   1.00
C18    C     0.46853   0.92745   0.36734   0.00000  Uiso   1.00
C19    C     0.51461   0.81627   0.35530   0.00000  Uiso   1.00
C20    C     0.57810   0.82711   0.36888   0.00000  Uiso   1.00
C21    C     0.39830   0.06837   0.32402   0.00000  Uiso   1.00
C22    C     0.38536   0.07567   0.27555   0.00000  Uiso   1.00
C23    C     0.38976   0.20515   0.25265   0.00000  Uiso   1.00
H24    H     0.44023   0.24616   0.42077   0.00000  Uiso   1.00
H25    H     0.33131   0.21702   0.49940   0.00000  Uiso   1.00
H26    H     0.56166   0.14752   0.42478   0.00000  Uiso   1.00
H27    H     0.43243   0.40688   0.34504   0.00000  Uiso   1.00
H28    H     0.20320   0.13272   0.57568   0.00000  Uiso   1.00
H29    H     0.68890   0.98619   0.41832   0.00000  Uiso   1.00
H30    H     0.41640   0.53310   0.25018   0.00000  Uiso   1.00
H31    H     0.38332   0.84571   0.33677   0.00000  Uiso   1.00
H32    H     0.27128   0.79460   0.41079   0.00000  Uiso   1.00
H33    H     0.50163   0.72509   0.33617   0.00000  Uiso   1.00
H34    H     0.37240   0.98445   0.25644   0.00000  Uiso   1.00
H35    H     0.15448   0.78986   0.50377   0.00000  Uiso   1.00
H36    H     0.64019   0.64333   0.34641   0.00000  Uiso   1.00
H37    H     0.36768   0.19024   0.17826   0.00000  Uiso   1.00
O38    O     0.10618   0.93486   0.58994   0.00000  Uiso   1.00
O39    O     0.74341   0.74264   0.38348   0.00000  Uiso   1.00
O40    O     0.38589   0.46017   0.16289   0.00000  Uiso   1.00
N41    N     0.20710   0.05906   0.54859   0.00000  Uiso   1.00
N42    N     0.66120   0.92205   0.40148   0.00000  Uiso   1.00
N43    N     0.40645   0.43336   0.24427   0.00000  Uiso   1.00
N44    N     0.18088   0.87457   0.50989   0.00000  Uiso   1.00
N45    N     0.63498   0.73756   0.36278   0.00000  Uiso   1.00
N46    N     0.38024   0.24887   0.20558   0.00000  Uiso   1.00
C47    C     0.92718   0.65442   0.40153   0.00000  Uiso   1.00
C48    C     0.86012   0.58306   0.43260   0.00000  Uiso   1.00
C49    C     0.81833   0.62582   0.48028   0.00000  Uiso   1.00
C50    C     0.75914   0.54648   0.50240   0.00000  Uiso   1.00
C51    C     0.65757   0.45357   0.55441   0.00000  Uiso   1.00
C52    C     0.98527   0.54529   0.39206   0.00000  Uiso   1.00
C53    C     0.04871   0.55631   0.40565   0.00000  Uiso   1.00
C54    C     0.09488   0.44516   0.39364   0.00000  Uiso   1.00
C55    C     0.18763   0.29366   0.38269   0.00000  Uiso   1.00
C56    C     0.91505   0.68621   0.34874   0.00000  Uiso   1.00
C57    C     0.91947   0.81571   0.32590   0.00000  Uiso   1.00
C58    C     0.90653   0.82321   0.27741   0.00000  Uiso   1.00
C59    C     0.89025   0.89050   0.19920   0.00000  Uiso   1.00
C60    C     0.89636   0.43746   0.35602   0.00000  Uiso   1.00
C61    C     0.84338   0.46522   0.40788   0.00000  Uiso   1.00
C62    C     0.78423   0.38579   0.42993   0.00000  Uiso   1.00
C63    C     0.74236   0.42842   0.47764   0.00000  Uiso   1.00
C64    C     0.96853   0.42745   0.36734   0.00000  Uiso   1.00
C65    C     0.01461   0.31627   0.35530   0.00000  Uiso   1.00
C66    C     0.07810   0.32711   0.36888   0.00000  Uiso   1.00
C67    C     0.89830   0.56837   0.32402   0.00000  Uiso   1.00
C68    C     0.88536   0.57567   0.27555   0.00000  Uiso   1.00
C69    C     0.88976   0.70515   0.25265   0.00000  Uiso   1.00
H70    H     0.94023   0.74616   0.42077   0.00000  Uiso   1.00
H71    H     0.83131   0.71702   0.49940   0.00000  Uiso   1.00
H72    H     0.06166   0.64752   0.42478   0.00000  Uiso   1.00
H73    H     0.93243   0.90688   0.34504   0.00000  Uiso   1.00
H74    H     0.70320   0.63272   0.57568   0.00000  Uiso   1.00
H75    H     0.18890   0.48619   0.41832   0.00000  Uiso   1.00
H76    H     0.91640   0.03310   0.25018   0.00000  Uiso   1.00
H77    H     0.88332   0.34571   0.33677   0.00000  Uiso   1.00
H78    H     0.77128   0.29460   0.41079   0.00000  Uiso   1.00
H79    H     0.00163   0.22509   0.33617   0.00000  Uiso   1.00
H80    H     0.87240   0.48445   0.25644   0.00000  Uiso   1.00
H81    H     0.65448   0.28986   0.50377   0.00000  Uiso   1.00
H82    H     0.14019   0.14333   0.34641   0.00000  Uiso   1.00
H83    H     0.86768   0.69024   0.17826   0.00000  Uiso   1.00
O84    O     0.60618   0.43486   0.58994   0.00000  Uiso   1.00
O85    O     0.24341   0.24264   0.38348   0.00000  Uiso   1.00
O86    O     0.88589   0.96017   0.16289   0.00000  Uiso   1.00
N87    N     0.70710   0.55906   0.54859   0.00000  Uiso   1.00
N88    N     0.16120   0.42205   0.40148   0.00000  Uiso   1.00
N89    N     0.90645   0.93336   0.24427   0.00000  Uiso   1.00
N90    N     0.68088   0.37457   0.50989   0.00000  Uiso   1.00
N91    N     0.13498   0.23756   0.36278   0.00000  Uiso   1.00
N92    N     0.88024   0.74887   0.20558   0.00000  Uiso   1.00
C93    C     0.57282   0.15442   0.09847   0.00000  Uiso   1.00
C94    C     0.63988   0.08306   0.06740   0.00000  Uiso   1.00
C95    C     0.68167   0.12582   0.01972   0.00000  Uiso   1.00
C96    C     0.74086   0.04648   0.99760   0.00000  Uiso   1.00
C97    C     0.84243   0.95357   0.94559   0.00000  Uiso   1.00
C98    C     0.51473   0.04529   0.10794   0.00000  Uiso   1.00
C99    C     0.45129   0.05631   0.09435   0.00000  Uiso   1.00
C100   C     0.40512   0.94516   0.10636   0.00000  Uiso   1.00
C101   C     0.31237   0.79366   0.11731   0.00000  Uiso   1.00
C102   C     0.58495   0.18621   0.15126   0.00000  Uiso   1.00
C103   C     0.58053   0.31571   0.17410   0.00000  Uiso   1.00
C104   C     0.59347   0.32321   0.22259   0.00000  Uiso   1.00
C105   C     0.60975   0.39050   0.30080   0.00000  Uiso   1.00
C106   C     0.60364   0.93746   0.14398   0.00000  Uiso   1.00
C107   C     0.65662   0.96522   0.09212   0.00000  Uiso   1.00
C108   C     0.71577   0.88579   0.07007   0.00000  Uiso   1.00
C109   C     0.75764   0.92842   0.02236   0.00000  Uiso   1.00
C110   C     0.53147   0.92745   0.13266   0.00000  Uiso   1.00
C111   C     0.48539   0.81627   0.14470   0.00000  Uiso   1.00
C112   C     0.42190   0.82711   0.13112   0.00000  Uiso   1.00
C113   C     0.60170   0.06837   0.17598   0.00000  Uiso   1.00
C114   C     0.61464   0.07567   0.22445   0.00000  Uiso   1.00
C115   C     0.61024   0.20515   0.24735   0.00000  Uiso   1.00
H116   H     0.55977   0.24616   0.07923   0.00000  Uiso   1.00
H117   H     0.66869   0.21702   0.00060   0.00000  Uiso   1.00
H118   H     0.43834   0.14752   0.07522   0.00000  Uiso   1.00
H119   H     0.56757   0.40688   0.15496   0.00000  Uiso   1.00
H120   H     0.79680   0.13272   0.92432   0.00000  Uiso   1.00
H121   H     0.31110   0.98619   0.08168   0.00000  Uiso   1.00
H122   H     0.58360   0.53310   0.24982   0.00000  Uiso   1.00
H123   H     0.61668   0.84571   0.16323   0.00000  Uiso   1.00
H124   H     0.72872   0.79460   0.08921   0.00000  Uiso   1.00
H125   H     0.49837   0.72509   0.16383   0.00000  Uiso   1.00
H126   H     0.62760   0.98445   0.24356   0.00000  Uiso   1.00
H127   H     0.84552   0.78986   0.99623   0.00000  Uiso   1.00
H128   H     0.35981   0.64333   0.15359   0.00000  Uiso   1.00
H129   H     0.63232   0.19024   0.32174   0.00000  Uiso   1.00
O130   O     0.89382   0.93486   0.91006   0.00000  Uiso   1.00
O131   O     0.25659   0.74264   0.11652   0.00000  Uiso   1.00
O132   O     0.61411   0.46017   0.33711   0.00000  Uiso   1.00
N133   N     0.79290   0.05906   0.95141   0.00000  Uiso   1.00
N134   N     0.33880   0.92205   0.09852   0.00000  Uiso   1.00
N135   N     0.59355   0.43336   0.25573   0.00000  Uiso   1.00
N136   N     0.81912   0.87457   0.99011   0.00000  Uiso   1.00
N137   N     0.36502   0.73756   0.13722   0.00000  Uiso   1.00
N138   N     0.61976   0.24887   0.29442   0.00000  Uiso   1.00
C139   C     0.07282   0.65442   0.09847   0.00000  Uiso   1.00
C140   C     0.13988   0.58306   0.06740   0.00000  Uiso   1.00
C141   C     0.18167   0.62582   0.01972   0.00000  Uiso   1.00
C142   C     0.24086   0.54648   0.99760   0.00000  Uiso   1.00
C143   C     0.34243   0.45357   0.94559   0.00000  Uiso   1.00
C144   C     0.01473   0.54529   0.10794   0.00000  Uiso   1.00
C145   C     0.95129   0.55631   0.09435   0.00000  Uiso   1.00
C146   C     0.90512   0.44516   0.10636   0.00000  Uiso   1.00
C147   C     0.81237   0.29366   0.11731   0.00000  Uiso   1.00
C148   C     0.08495   0.68621   0.15126   0.00000  Uiso   1.00
C149   C     0.08053   0.81571   0.17410   0.00000  Uiso   1.00
C150   C     0.09347   0.82321   0.22259   0.00000  Uiso   1.00
C151   C     0.10975   0.89050   0.30080   0.00000  Uiso   1.00
C152   C     0.10364   0.43746   0.14398   0.00000  Uiso   1.00
C153   C     0.15662   0.46522   0.09212   0.00000  Uiso   1.00
C154   C     0.21577   0.38579   0.07007   0.00000  Uiso   1.00
C155   C     0.25764   0.42842   0.02236   0.00000  Uiso   1.00
C156   C     0.03147   0.42745   0.13266   0.00000  Uiso   1.00
C157   C     0.98539   0.31627   0.14470   0.00000  Uiso   1.00
C158   C     0.92190   0.32711   0.13112   0.00000  Uiso   1.00
C159   C     0.10170   0.56837   0.17598   0.00000  Uiso   1.00
C160   C     0.11464   0.57567   0.22445   0.00000  Uiso   1.00
C161   C     0.11024   0.70515   0.24735   0.00000  Uiso   1.00
H162   H     0.05977   0.74616   0.07923   0.00000  Uiso   1.00
H163   H     0.16869   0.71702   0.00060   0.00000  Uiso   1.00
H164   H     0.93834   0.64752   0.07522   0.00000  Uiso   1.00
H165   H     0.06757   0.90688   0.15496   0.00000  Uiso   1.00
H166   H     0.29680   0.63272   0.92432   0.00000  Uiso   1.00
H167   H     0.81110   0.48619   0.08168   0.00000  Uiso   1.00
H168   H     0.08360   0.03310   0.24982   0.00000  Uiso   1.00
H169   H     0.11668   0.34571   0.16323   0.00000  Uiso   1.00
H170   H     0.22872   0.29460   0.08921   0.00000  Uiso   1.00
H171   H     0.99837   0.22509   0.16383   0.00000  Uiso   1.00
H172   H     0.12760   0.48445   0.24356   0.00000  Uiso   1.00
H173   H     0.34552   0.28986   0.99623   0.00000  Uiso   1.00
H174   H     0.85981   0.14333   0.15359   0.00000  Uiso   1.00
H175   H     0.13232   0.69024   0.32174   0.00000  Uiso   1.00
O176   O     0.39382   0.43486   0.91006   0.00000  Uiso   1.00
O177   O     0.75659   0.24264   0.11652   0.00000  Uiso   1.00
O178   O     0.11411   0.96017   0.33711   0.00000  Uiso   1.00
N179   N     0.29290   0.55906   0.95141   0.00000  Uiso   1.00
N180   N     0.83880   0.42205   0.09852   0.00000  Uiso   1.00
N181   N     0.09355   0.93336   0.25573   0.00000  Uiso   1.00
N182   N     0.31912   0.37457   0.99011   0.00000  Uiso   1.00
N183   N     0.86502   0.23756   0.13722   0.00000  Uiso   1.00
N184   N     0.11976   0.74887   0.29442   0.00000  Uiso   1.00
C185   C     0.57282   0.84558   0.59847   0.00000  Uiso   1.00
C186   C     0.63988   0.91694   0.56740   0.00000  Uiso   1.00
C187   C     0.68167   0.87418   0.51972   0.00000  Uiso   1.00
C188   C     0.74086   0.95352   0.49760   0.00000  Uiso   1.00
C189   C     0.84243   0.04643   0.44559   0.00000  Uiso   1.00
C190   C     0.51473   0.95471   0.60794   0.00000  Uiso   1.00
C191   C     0.45129   0.94369   0.59435   0.00000  Uiso   1.00
C192   C     0.40512   0.05484   0.60636   0.00000  Uiso   1.00
C193   C     0.31237   0.20634   0.61731   0.00000  Uiso   1.00
C194   C     0.58495   0.81379   0.65126   0.00000  Uiso   1.00
C195   C     0.58053   0.68429   0.67410   0.00000  Uiso   1.00
C196   C     0.59347   0.67679   0.72259   0.00000  Uiso   1.00
C197   C     0.60975   0.60950   0.80080   0.00000  Uiso   1.00
C198   C     0.60364   0.06254   0.64398   0.00000  Uiso   1.00
C199   C     0.65662   0.03478   0.59212   0.00000  Uiso   1.00
C200   C     0.71577   0.11421   0.57007   0.00000  Uiso   1.00
C201   C     0.75764   0.07158   0.52236   0.00000  Uiso   1.00
C202   C     0.53147   0.07255   0.63266   0.00000  Uiso   1.00
C203   C     0.48539   0.18373   0.64470   0.00000  Uiso   1.00
C204   C     0.42190   0.17289   0.63112   0.00000  Uiso   1.00
C205   C     0.60170   0.93163   0.67598   0.00000  Uiso   1.00
C206   C     0.61464   0.92433   0.72445   0.00000  Uiso   1.00
C207   C     0.61024   0.79485   0.74735   0.00000  Uiso   1.00
H208   H     0.55977   0.75384   0.57923   0.00000  Uiso   1.00
H209   H     0.66869   0.78298   0.50060   0.00000  Uiso   1.00
H210   H     0.43834   0.85248   0.57522   0.00000  Uiso   1.00
H211   H     0.56757   0.59312   0.65496   0.00000  Uiso   1.00
H212   H     0.79680   0.86728   0.42432   0.00000  Uiso   1.00
H213   H     0.31110   0.01381   0.58168   0.00000  Uiso   1.00
H214   H     0.58360   0.46690   0.74982   0.00000  Uiso   1.00
H215   H     0.61668   0.15429   0.66323   0.00000  Uiso   1.00
H216   H     0.72872   0.20540   0.58921   0.00000  Uiso   1.00
H217   H     0.49837   0.27491   0.66383   0.00000  Uiso   1.00
H218   H     0.62760   0.01555   0.74356   0.00000  Uiso   1.00
H219   H     0.84552   0.21014   0.49623   0.00000  Uiso   1.00
H220   H     0.35981   0.35667   0.65359   0.00000  Uiso   1.00
H221   H     0.63232   0.80976   0.82174   0.00000  Uiso   1.00
O222   O     0.89382   0.06514   0.41006   0.00000  Uiso   1.00
O223   O     0.25659   0.25736   0.61652   0.00000  Uiso   1.00
O224   O     0.61411   0.53983   0.83711   0.00000  Uiso   1.00
N225   N     0.79290   0.94094   0.45141   0.00000  Uiso   1.00
N226   N     0.33880   0.07795   0.59852   0.00000  Uiso   1.00
N227   N     0.59355   0.56664   0.75573   0.00000  Uiso   1.00
N228   N     0.81912   0.12543   0.49011   0.00000  Uiso   1.00
N229   N     0.36502   0.26244   0.63722   0.00000  Uiso   1.00
N230   N     0.61976   0.75113   0.79442   0.00000  Uiso   1.00
C231   C     0.07282   0.34558   0.59847   0.00000  Uiso   1.00
C232   C     0.13988   0.41694   0.56740   0.00000  Uiso   1.00
C233   C     0.18167   0.37418   0.51972   0.00000  Uiso   1.00
C234   C     0.24086   0.45352   0.49760   0.00000  Uiso   1.00
C235   C     0.34243   0.54643   0.44559   0.00000  Uiso   1.00
C236   C     0.01473   0.45471   0.60794   0.00000  Uiso   1.00
C237   C     0.95129   0.44369   0.59435   0.00000  Uiso   1.00
C238   C     0.90512   0.55484   0.60636   0.00000  Uiso   1.00
C239   C     0.81237   0.70634   0.61731   0.00000  Uiso   1.00
C240   C     0.08495   0.31379   0.65126   0.00000  Uiso   1.00
C241   C     0.08053   0.18429   0.67410   0.00000  Uiso   1.00
C242   C     0.09347   0.17679   0.72259   0.00000  Uiso   1.00
C243   C     0.10975   0.10950   0.80080   0.00000  Uiso   1.00
C244   C     0.10364   0.56254   0.64398   0.00000  Uiso   1.00
C245   C     0.15662   0.53478   0.59212   0.00000  Uiso   1.00
C246   C     0.21577   0.61421   0.57007   0.00000  Uiso   1.00
C247   C     0.25764   0.57158   0.52236   0.00000  Uiso   1.00
C248   C     0.03147   0.57255   0.63266   0.00000  Uiso   1.00
C249   C     0.98539   0.68373   0.64470   0.00000  Uiso   1.00
C250   C     0.92190   0.67289   0.63112   0.00000  Uiso   1.00
C251   C     0.10170   0.43163   0.67598   0.00000  Uiso   1.00
C252   C     0.11464   0.42433   0.72445   0.00000  Uiso   1.00
C253   C     0.11024   0.29485   0.74735   0.00000  Uiso   1.00
H254   H     0.05977   0.25384   0.57923   0.00000  Uiso   1.00
H255   H     0.16869   0.28298   0.50060   0.00000  Uiso   1.00
H256   H     0.93834   0.35248   0.57522   0.00000  Uiso   1.00
H257   H     0.06757   0.09312   0.65496   0.00000  Uiso   1.00
H258   H     0.29680   0.36728   0.42432   0.00000  Uiso   1.00
H259   H     0.81110   0.51381   0.58168   0.00000  Uiso   1.00
H260   H     0.08360   0.96690   0.74982   0.00000  Uiso   1.00
H261   H     0.11668   0.65429   0.66323   0.00000  Uiso   1.00
H262   H     0.22872   0.70540   0.58921   0.00000  Uiso   1.00
H263   H     0.99837   0.77491   0.66383   0.00000  Uiso   1.00
H264   H     0.12760   0.51555   0.74356   0.00000  Uiso   1.00
H265   H     0.34552   0.71014   0.49623   0.00000  Uiso   1.00
H266   H     0.85981   0.85667   0.65359   0.00000  Uiso   1.00
H267   H     0.13232   0.30976   0.82174   0.00000  Uiso   1.00
O268   O     0.39382   0.56514   0.41006   0.00000  Uiso   1.00
O269   O     0.75659   0.75736   0.61652   0.00000  Uiso   1.00
O270   O     0.11411   0.03983   0.83711   0.00000  Uiso   1.00
N271   N     0.29290   0.44094   0.45141   0.00000  Uiso   1.00
N272   N     0.83880   0.57795   0.59852   0.00000  Uiso   1.00
N273   N     0.09355   0.06664   0.75573   0.00000  Uiso   1.00
N274   N     0.31912   0.62543   0.49011   0.00000  Uiso   1.00
N275   N     0.86502   0.76244   0.63722   0.00000  Uiso   1.00
N276   N     0.11976   0.25113   0.79442   0.00000  Uiso   1.00
C277   C     0.42718   0.84558   0.90153   0.00000  Uiso   1.00
C278   C     0.36012   0.91694   0.93260   0.00000  Uiso   1.00
C279   C     0.31833   0.87418   0.98028   0.00000  Uiso   1.00
C280   C     0.25914   0.95352   0.00240   0.00000  Uiso   1.00
C281   C     0.15757   0.04643   0.05441   0.00000  Uiso   1.00
C282   C     0.48527   0.95471   0.89206   0.00000  Uiso   1.00
C283   C     0.54871   0.94369   0.90565   0.00000  Uiso   1.00
C284   C     0.59488   0.05484   0.89364   0.00000  Uiso   1.00
C285   C     0.68763   0.20634   0.88269   0.00000  Uiso   1.00
C286   C     0.41505   0.81379   0.84874   0.00000  Uiso   1.00
C287   C     0.41947   0.68429   0.82590   0.00000  Uiso   1.00
C288   C     0.40653   0.67679   0.77741   0.00000  Uiso   1.00
C289   C     0.39025   0.60950   0.69920   0.00000  Uiso   1.00
C290   C     0.39636   0.06254   0.85602   0.00000  Uiso   1.00
C291   C     0.34338   0.03478   0.90788   0.00000  Uiso   1.00
C292   C     0.28423   0.11421   0.92993   0.00000  Uiso   1.00
C293   C     0.24236   0.07158   0.97764   0.00000  Uiso   1.00
C294   C     0.46853   0.07255   0.86734   0.00000  Uiso   1.00
C295   C     0.51461   0.18373   0.85530   0.00000  Uiso   1.00
C296   C     0.57810   0.17289   0.86888   0.00000  Uiso   1.00
C297   C     0.39830   0.93163   0.82402   0.00000  Uiso   1.00
C298   C     0.38536   0.92433   0.77555   0.00000  Uiso   1.00
C299   C     0.38976   0.79485   0.75265   0.00000  Uiso   1.00
H300   H     0.44023   0.75384   0.92077   0.00000  Uiso   1.00
H301   H     0.33131   0.78298   0.99940   0.00000  Uiso   1.00
H302   H     0.56166   0.85248   0.92478   0.00000  Uiso   1.00
H303   H     0.43243   0.59312   0.84504   0.00000  Uiso   1.00
H304   H     0.20320   0.86728   0.07568   0.00000  Uiso   1.00
H305   H     0.68890   0.01381   0.91832   0.00000  Uiso   1.00
H306   H     0.41640   0.46690   0.75018   0.00000  Uiso   1.00
H307   H     0.38332   0.15429   0.83677   0.00000  Uiso   1.00
H308   H     0.27128   0.20540   0.91079   0.00000  Uiso   1.00
H309   H     0.50163   0.27491   0.83617   0.00000  Uiso   1.00
H310   H     0.37240   0.01555   0.75644   0.00000  Uiso   1.00
H311   H     0.15448   0.21014   0.00377   0.00000  Uiso   1.00
H312   H     0.64019   0.35667   0.84641   0.00000  Uiso   1.00
H313   H     0.36768   0.80976   0.67826   0.00000  Uiso   1.00
O314   O     0.10618   0.06514   0.08994   0.00000  Uiso   1.00
O315   O     0.74341   0.25736   0.88348   0.00000  Uiso   1.00
O316   O     0.38589   0.53983   0.66289   0.00000  Uiso   1.00
N317   N     0.20710   0.94094   0.04859   0.00000  Uiso   1.00
N318   N     0.66120   0.07795   0.90148   0.00000  Uiso   1.00
N319   N     0.40645   0.56664   0.74427   0.00000  Uiso   1.00
N320   N     0.18088   0.12543   0.00989   0.00000  Uiso   1.00
N321   N     0.63498   0.26244   0.86278   0.00000  Uiso   1.00
N322   N     0.38024   0.75113   0.70558   0.00000  Uiso   1.00
C323   C     0.92718   0.34558   0.90153   0.00000  Uiso   1.00
C324   C     0.86012   0.41694   0.93260   0.00000  Uiso   1.00
C325   C     0.81833   0.37418   0.98028   0.00000  Uiso   1.00
C326   C     0.75914   0.45352   0.00240   0.00000  Uiso   1.00
C327   C     0.65757   0.54643   0.05441   0.00000  Uiso   1.00
C328   C     0.98527   0.45471   0.89206   0.00000  Uiso   1.00
C329   C     0.04871   0.44369   0.90565   0.00000  Uiso   1.00
C330   C     0.09488   0.55484   0.89364   0.00000  Uiso   1.00
C331   C     0.18763   0.70634   0.88269   0.00000  Uiso   1.00
C332   C     0.91505   0.31379   0.84874   0.00000  Uiso   1.00
C333   C     0.91947   0.18429   0.82590   0.00000  Uiso   1.00
C334   C     0.90653   0.17679   0.77741   0.00000  Uiso   1.00
C335   C     0.89025   0.10950   0.69920   0.00000  Uiso   1.00
C336   C     0.89636   0.56254   0.85602   0.00000  Uiso   1.00
C337   C     0.84338   0.53478   0.90788   0.00000  Uiso   1.00
C338   C     0.78423   0.61421   0.92993   0.00000  Uiso   1.00
C339   C     0.74236   0.57158   0.97764   0.00000  Uiso   1.00
C340   C     0.96853   0.57255   0.86734   0.00000  Uiso   1.00
C341   C     0.01461   0.68373   0.85530   0.00000  Uiso   1.00
C342   C     0.07810   0.67289   0.86888   0.00000  Uiso   1.00
C343   C     0.89830   0.43163   0.82402   0.00000  Uiso   1.00
C344   C     0.88536   0.42433   0.77555   0.00000  Uiso   1.00
C345   C     0.88976   0.29485   0.75265   0.00000  Uiso   1.00
H346   H     0.94023   0.25384   0.92077   0.00000  Uiso   1.00
H347   H     0.83131   0.28298   0.99940   0.00000  Uiso   1.00
H348   H     0.06166   0.35248   0.92478   0.00000  Uiso   1.00
H349   H     0.93243   0.09312   0.84504   0.00000  Uiso   1.00
H350   H     0.70320   0.36728   0.07568   0.00000  Uiso   1.00
H351   H     0.18890   0.51381   0.91832   0.00000  Uiso   1.00
H352   H     0.91640   0.96690   0.75018   0.00000  Uiso   1.00
H353   H     0.88332   0.65429   0.83677   0.00000  Uiso   1.00
H354   H     0.77128   0.70540   0.91079   0.00000  Uiso   1.00
H355   H     0.00163   0.77491   0.83617   0.00000  Uiso   1.00
H356   H     0.87240   0.51555   0.75644   0.00000  Uiso   1.00
H357   H     0.65448   0.71014   0.00377   0.00000  Uiso   1.00
H358   H     0.14019   0.85667   0.84641   0.00000  Uiso   1.00
H359   H     0.86768   0.30976   0.67826   0.00000  Uiso   1.00
O360   O     0.60618   0.56514   0.08994   0.00000  Uiso   1.00
O361   O     0.24341   0.75736   0.88348   0.00000  Uiso   1.00
O362   O     0.88589   0.03983   0.66289   0.00000  Uiso   1.00
N363   N     0.70710   0.44094   0.04859   0.00000  Uiso   1.00
N364   N     0.16120   0.57795   0.90148   0.00000  Uiso   1.00
N365   N     0.90645   0.06664   0.74427   0.00000  Uiso   1.00
N366   N     0.68088   0.62543   0.00989   0.00000  Uiso   1.00
N367   N     0.13498   0.76244   0.86278   0.00000  Uiso   1.00
N368   N     0.88024   0.25113   0.70558   0.00000  Uiso   1.00
