data_job_05782
_audit_creation_date              2018-12-19
_audit_creation_method            'Materials Studio'
_symmetry_space_group_name_H-M    'P1'
_symmetry_Int_Tables_number       1
_symmetry_cell_setting            triclinic
loop_
_symmetry_equiv_pos_as_xyz
  x,y,z
_cell_length_a                    19.7667
_cell_length_b                    19.7667
_cell_length_c                    13.4632
_cell_angle_alpha                 90.0000
_cell_angle_beta                  90.0000
_cell_angle_gamma                 120.0000
loop_
_atom_site_label
_atom_site_type_symbol
_atom_site_fract_x
_atom_site_fract_y
_atom_site_fract_z
_atom_site_U_iso_or_equiv
_atom_site_adp_type
_atom_site_occupancy
C1     C     0.15248   0.77440   0.54688   0.00000  Uiso   1.00
C2     C     0.23218   0.82061   0.59661   0.00000  Uiso   1.00
C3     C     0.27170   0.78892   0.64551   0.00000  Uiso   1.00
C4     C     0.34394   0.84105   0.68607   0.00000  Uiso   1.00
C5     C     0.46288   0.90050   0.76457   0.00000  Uiso   1.00
C6     C     0.10087   0.80247   0.59448   0.00000  Uiso   1.00
C7     C     0.02998   0.75551   0.64158   0.00000  Uiso   1.00
C8     C     0.99168   0.79237   0.68033   0.00000  Uiso   1.00
C9     C     0.90673   0.82364   0.75545   0.00000  Uiso   1.00
C10    C     0.16414   0.80219   0.43932   0.00000  Uiso   1.00
C11    C     0.14645   0.75500   0.35595   0.00000  Uiso   1.00
C12    C     0.16140   0.79163   0.26406   0.00000  Uiso   1.00
C13    C     0.17470   0.82247   0.09828   0.00000  Uiso   1.00
C14    C     0.21049   0.92335   0.53195   0.00000  Uiso   1.00
C15    C     0.26368   0.90152   0.58851   0.00000  Uiso   1.00
C16    C     0.33588   0.95371   0.62899   0.00000  Uiso   1.00
C17    C     0.37551   0.92210   0.67795   0.00000  Uiso   1.00
C18    C     0.13237   0.88337   0.58637   0.00000  Uiso   1.00
C19    C     0.09416   0.92030   0.62506   0.00000  Uiso   1.00
C20    C     0.02324   0.87342   0.67220   0.00000  Uiso   1.00
C21    C     0.19565   0.88309   0.43121   0.00000  Uiso   1.00
C22    C     0.21063   0.91980   0.33943   0.00000  Uiso   1.00
C23    C     0.19297   0.87267   0.25594   0.00000  Uiso   1.00
H24    H     0.12795   0.71141   0.55320   0.00000  Uiso   1.00
H25    H     0.24730   0.72631   0.65178   0.00000  Uiso   1.00
H26    H     0.00561   0.69290   0.64783   0.00000  Uiso   1.00
H27    H     0.12207   0.69240   0.36226   0.00000  Uiso   1.00
H28    H     0.39350   0.77849   0.75754   0.00000  Uiso   1.00
H29    H     0.88389   0.70806   0.74918   0.00000  Uiso   1.00
H30    H     0.12944   0.70699   0.14698   0.00000  Uiso   1.00
H31    H     0.23501   0.98634   0.52563   0.00000  Uiso   1.00
H32    H     0.36025   0.01632   0.62271   0.00000  Uiso   1.00
H33    H     0.11856   0.98291   0.61876   0.00000  Uiso   1.00
H34    H     0.23501   0.98240   0.33319   0.00000  Uiso   1.00
H35    H     0.48517   0.01388   0.73394   0.00000  Uiso   1.00
H36    H     0.97555   0.94344   0.72559   0.00000  Uiso   1.00
H37    H     0.22112   0.94237   0.12339   0.00000  Uiso   1.00
O38    O     0.51978   0.91095   0.81013   0.00000  Uiso   1.00
O39    O     0.85117   0.81853   0.79915   0.00000  Uiso   1.00
O40    O     0.17334   0.81713   0.00908   0.00000  Uiso   1.00
N41    N     0.39790   0.82978   0.73865   0.00000  Uiso   1.00
N42    N     0.92144   0.76393   0.73085   0.00000  Uiso   1.00
N43    N     0.15100   0.76292   0.16784   0.00000  Uiso   1.00
N44    N     0.44723   0.95644   0.72595   0.00000  Uiso   1.00
N45    N     0.97077   0.89058   0.71815   0.00000  Uiso   1.00
N46    N     0.20033   0.88958   0.15515   0.00000  Uiso   1.00
C47    C     0.22560   0.37808   0.88021   0.00000  Uiso   1.00
C48    C     0.17939   0.41156   0.92995   0.00000  Uiso   1.00
C49    C     0.21108   0.48278   0.97885   0.00000  Uiso   1.00
C50    C     0.15895   0.50289   0.01941   0.00000  Uiso   1.00
C51    C     0.09950   0.56238   0.09791   0.00000  Uiso   1.00
C52    C     0.19753   0.29840   0.92782   0.00000  Uiso   1.00
C53    C     0.24449   0.27447   0.97491   0.00000  Uiso   1.00
C54    C     0.20763   0.19931   0.01366   0.00000  Uiso   1.00
C55    C     0.17636   0.08309   0.08879   0.00000  Uiso   1.00
C56    C     0.19781   0.36195   0.77266   0.00000  Uiso   1.00
C57    C     0.24500   0.39145   0.68928   0.00000  Uiso   1.00
C58    C     0.20837   0.36978   0.59740   0.00000  Uiso   1.00
C59    C     0.17753   0.35224   0.43162   0.00000  Uiso   1.00
C60    C     0.07665   0.28714   0.86528   0.00000  Uiso   1.00
C61    C     0.09848   0.36216   0.92184   0.00000  Uiso   1.00
C62    C     0.04629   0.38217   0.96233   0.00000  Uiso   1.00
C63    C     0.07790   0.45341   0.01128   0.00000  Uiso   1.00
C64    C     0.11663   0.24900   0.91971   0.00000  Uiso   1.00
C65    C     0.07970   0.17386   0.95839   0.00000  Uiso   1.00
C66    C     0.12658   0.14983   0.00554   0.00000  Uiso   1.00
C67    C     0.11691   0.31256   0.76454   0.00000  Uiso   1.00
C68    C     0.08020   0.29083   0.67277   0.00000  Uiso   1.00
C69    C     0.12733   0.32029   0.58927   0.00000  Uiso   1.00
H70    H     0.28859   0.41653   0.88653   0.00000  Uiso   1.00
H71    H     0.27369   0.52099   0.98512   0.00000  Uiso   1.00
H72    H     0.30710   0.31271   0.98117   0.00000  Uiso   1.00
H73    H     0.30760   0.42967   0.69559   0.00000  Uiso   1.00
H74    H     0.22151   0.61501   0.09087   0.00000  Uiso   1.00
H75    H     0.29194   0.17583   0.08252   0.00000  Uiso   1.00
H76    H     0.29301   0.42246   0.48032   0.00000  Uiso   1.00
H77    H     0.01366   0.24868   0.85897   0.00000  Uiso   1.00
H78    H     0.98368   0.34393   0.95604   0.00000  Uiso   1.00
H79    H     0.01709   0.13565   0.95210   0.00000  Uiso   1.00
H80    H     0.01760   0.25261   0.66652   0.00000  Uiso   1.00
H81    H     0.98612   0.47130   0.06728   0.00000  Uiso   1.00
H82    H     0.05656   0.03211   0.05892   0.00000  Uiso   1.00
H83    H     0.05763   0.27875   0.45672   0.00000  Uiso   1.00
O84    O     0.08905   0.60883   0.14346   0.00000  Uiso   1.00
O85    O     0.18147   0.03264   0.13248   0.00000  Uiso   1.00
O86    O     0.18287   0.35621   0.34241   0.00000  Uiso   1.00
N87    N     0.17022   0.56812   0.07198   0.00000  Uiso   1.00
N88    N     0.23607   0.15752   0.06418   0.00000  Uiso   1.00
N89    N     0.23708   0.38808   0.50118   0.00000  Uiso   1.00
N90    N     0.04356   0.49079   0.05928   0.00000  Uiso   1.00
N91    N     0.10942   0.08019   0.05149   0.00000  Uiso   1.00
N92    N     0.11042   0.31075   0.48848   0.00000  Uiso   1.00
C93    C     0.62192   0.84752   0.21355   0.00000  Uiso   1.00
C94    C     0.58844   0.76782   0.26328   0.00000  Uiso   1.00
C95    C     0.51722   0.72830   0.31218   0.00000  Uiso   1.00
C96    C     0.49711   0.65606   0.35274   0.00000  Uiso   1.00
C97    C     0.43762   0.53712   0.43124   0.00000  Uiso   1.00
C98    C     0.70160   0.89913   0.26115   0.00000  Uiso   1.00
C99    C     0.72553   0.97002   0.30824   0.00000  Uiso   1.00
C100   C     0.80069   0.00832   0.34700   0.00000  Uiso   1.00
C101   C     0.91691   0.09327   0.42212   0.00000  Uiso   1.00
C102   C     0.63805   0.83586   0.10599   0.00000  Uiso   1.00
C103   C     0.60855   0.85355   0.02262   0.00000  Uiso   1.00
C104   C     0.63022   0.83860   0.93073   0.00000  Uiso   1.00
C105   C     0.64776   0.82530   0.76495   0.00000  Uiso   1.00
C106   C     0.71286   0.78951   0.19862   0.00000  Uiso   1.00
C107   C     0.63784   0.73632   0.25517   0.00000  Uiso   1.00
C108   C     0.61783   0.66412   0.29566   0.00000  Uiso   1.00
C109   C     0.54659   0.62449   0.34461   0.00000  Uiso   1.00
C110   C     0.75100   0.86763   0.25304   0.00000  Uiso   1.00
C111   C     0.82614   0.90584   0.29172   0.00000  Uiso   1.00
C112   C     0.85017   0.97676   0.33887   0.00000  Uiso   1.00
C113   C     0.68744   0.80435   0.09788   0.00000  Uiso   1.00
C114   C     0.70917   0.78937   0.00610   0.00000  Uiso   1.00
C115   C     0.67971   0.80703   0.92261   0.00000  Uiso   1.00
H116   H     0.58347   0.87205   0.21986   0.00000  Uiso   1.00
H117   H     0.47901   0.75270   0.31845   0.00000  Uiso   1.00
H118   H     0.68729   0.99439   0.31450   0.00000  Uiso   1.00
H119   H     0.57033   0.87793   0.02892   0.00000  Uiso   1.00
H120   H     0.38499   0.60650   0.42421   0.00000  Uiso   1.00
H121   H     0.82417   0.11611   0.41585   0.00000  Uiso   1.00
H122   H     0.57754   0.87056   0.81365   0.00000  Uiso   1.00
H123   H     0.75132   0.76499   0.19230   0.00000  Uiso   1.00
H124   H     0.65607   0.63975   0.28937   0.00000  Uiso   1.00
H125   H     0.86435   0.88144   0.28543   0.00000  Uiso   1.00
H126   H     0.74739   0.76499   0.99985   0.00000  Uiso   1.00
H127   H     0.52870   0.51483   0.40061   0.00000  Uiso   1.00
H128   H     0.96789   0.02445   0.39225   0.00000  Uiso   1.00
H129   H     0.72125   0.77888   0.79006   0.00000  Uiso   1.00
O130   O     0.39117   0.48022   0.47679   0.00000  Uiso   1.00
O131   O     0.96736   0.14883   0.46581   0.00000  Uiso   1.00
O132   O     0.64379   0.82666   0.67575   0.00000  Uiso   1.00
N133   N     0.43188   0.60210   0.40531   0.00000  Uiso   1.00
N134   N     0.84248   0.07856   0.39752   0.00000  Uiso   1.00
N135   N     0.61192   0.84900   0.83451   0.00000  Uiso   1.00
N136   N     0.50921   0.55277   0.39262   0.00000  Uiso   1.00
N137   N     0.91981   0.02923   0.38482   0.00000  Uiso   1.00
N138   N     0.68925   0.79967   0.82181   0.00000  Uiso   1.00
C139   C     0.84752   0.22560   0.04688   0.00000  Uiso   1.00
C140   C     0.76782   0.17939   0.09661   0.00000  Uiso   1.00
C141   C     0.72830   0.21108   0.14551   0.00000  Uiso   1.00
C142   C     0.65606   0.15895   0.18607   0.00000  Uiso   1.00
C143   C     0.53712   0.09950   0.26457   0.00000  Uiso   1.00
C144   C     0.89913   0.19753   0.09448   0.00000  Uiso   1.00
C145   C     0.97002   0.24449   0.14158   0.00000  Uiso   1.00
C146   C     0.00832   0.20763   0.18033   0.00000  Uiso   1.00
C147   C     0.09327   0.17636   0.25545   0.00000  Uiso   1.00
C148   C     0.83586   0.19781   0.93932   0.00000  Uiso   1.00
C149   C     0.85355   0.24500   0.85595   0.00000  Uiso   1.00
C150   C     0.83860   0.20837   0.76406   0.00000  Uiso   1.00
C151   C     0.82530   0.17753   0.59828   0.00000  Uiso   1.00
C152   C     0.78951   0.07665   0.03195   0.00000  Uiso   1.00
C153   C     0.73632   0.09848   0.08851   0.00000  Uiso   1.00
C154   C     0.66412   0.04629   0.12899   0.00000  Uiso   1.00
C155   C     0.62449   0.07790   0.17795   0.00000  Uiso   1.00
C156   C     0.86763   0.11663   0.08637   0.00000  Uiso   1.00
C157   C     0.90584   0.07970   0.12506   0.00000  Uiso   1.00
C158   C     0.97676   0.12658   0.17220   0.00000  Uiso   1.00
C159   C     0.80435   0.11691   0.93121   0.00000  Uiso   1.00
C160   C     0.78937   0.08020   0.83943   0.00000  Uiso   1.00
C161   C     0.80703   0.12733   0.75594   0.00000  Uiso   1.00
H162   H     0.87205   0.28859   0.05320   0.00000  Uiso   1.00
H163   H     0.75270   0.27369   0.15178   0.00000  Uiso   1.00
H164   H     0.99439   0.30710   0.14783   0.00000  Uiso   1.00
H165   H     0.87793   0.30760   0.86226   0.00000  Uiso   1.00
H166   H     0.60650   0.22151   0.25754   0.00000  Uiso   1.00
H167   H     0.11611   0.29194   0.24918   0.00000  Uiso   1.00
H168   H     0.87056   0.29301   0.64698   0.00000  Uiso   1.00
H169   H     0.76499   0.01366   0.02563   0.00000  Uiso   1.00
H170   H     0.63975   0.98368   0.12271   0.00000  Uiso   1.00
H171   H     0.88144   0.01709   0.11876   0.00000  Uiso   1.00
H172   H     0.76499   0.01760   0.83319   0.00000  Uiso   1.00
H173   H     0.51483   0.98612   0.23394   0.00000  Uiso   1.00
H174   H     0.02445   0.05656   0.22559   0.00000  Uiso   1.00
H175   H     0.77888   0.05763   0.62339   0.00000  Uiso   1.00
O176   O     0.48022   0.08905   0.31013   0.00000  Uiso   1.00
O177   O     0.14883   0.18147   0.29915   0.00000  Uiso   1.00
O178   O     0.82666   0.18287   0.50908   0.00000  Uiso   1.00
N179   N     0.60210   0.17022   0.23865   0.00000  Uiso   1.00
N180   N     0.07856   0.23607   0.23085   0.00000  Uiso   1.00
N181   N     0.84900   0.23708   0.66784   0.00000  Uiso   1.00
N182   N     0.55277   0.04356   0.22595   0.00000  Uiso   1.00
N183   N     0.02923   0.10942   0.21815   0.00000  Uiso   1.00
N184   N     0.79967   0.11042   0.65515   0.00000  Uiso   1.00
C185   C     0.77440   0.62192   0.38021   0.00000  Uiso   1.00
C186   C     0.82061   0.58844   0.42995   0.00000  Uiso   1.00
C187   C     0.78892   0.51722   0.47885   0.00000  Uiso   1.00
C188   C     0.84105   0.49711   0.51941   0.00000  Uiso   1.00
C189   C     0.90050   0.43762   0.59791   0.00000  Uiso   1.00
C190   C     0.80247   0.70160   0.42782   0.00000  Uiso   1.00
C191   C     0.75551   0.72553   0.47491   0.00000  Uiso   1.00
C192   C     0.79237   0.80069   0.51366   0.00000  Uiso   1.00
C193   C     0.82364   0.91691   0.58879   0.00000  Uiso   1.00
C194   C     0.80219   0.63805   0.27266   0.00000  Uiso   1.00
C195   C     0.75500   0.60855   0.18928   0.00000  Uiso   1.00
C196   C     0.79163   0.63022   0.09740   0.00000  Uiso   1.00
C197   C     0.82247   0.64776   0.93162   0.00000  Uiso   1.00
C198   C     0.92335   0.71286   0.36528   0.00000  Uiso   1.00
C199   C     0.90152   0.63784   0.42184   0.00000  Uiso   1.00
C200   C     0.95371   0.61783   0.46233   0.00000  Uiso   1.00
C201   C     0.92210   0.54659   0.51128   0.00000  Uiso   1.00
C202   C     0.88337   0.75100   0.41971   0.00000  Uiso   1.00
C203   C     0.92030   0.82614   0.45839   0.00000  Uiso   1.00
C204   C     0.87342   0.85017   0.50554   0.00000  Uiso   1.00
C205   C     0.88309   0.68744   0.26454   0.00000  Uiso   1.00
C206   C     0.91980   0.70917   0.17277   0.00000  Uiso   1.00
C207   C     0.87267   0.67971   0.08927   0.00000  Uiso   1.00
H208   H     0.71141   0.58347   0.38653   0.00000  Uiso   1.00
H209   H     0.72631   0.47901   0.48512   0.00000  Uiso   1.00
H210   H     0.69290   0.68729   0.48117   0.00000  Uiso   1.00
H211   H     0.69240   0.57033   0.19559   0.00000  Uiso   1.00
H212   H     0.77849   0.38499   0.59087   0.00000  Uiso   1.00
H213   H     0.70806   0.82417   0.58252   0.00000  Uiso   1.00
H214   H     0.70699   0.57754   0.98032   0.00000  Uiso   1.00
H215   H     0.98634   0.75132   0.35897   0.00000  Uiso   1.00
H216   H     0.01632   0.65607   0.45604   0.00000  Uiso   1.00
H217   H     0.98291   0.86435   0.45210   0.00000  Uiso   1.00
H218   H     0.98240   0.74739   0.16652   0.00000  Uiso   1.00
H219   H     0.01388   0.52870   0.56728   0.00000  Uiso   1.00
H220   H     0.94344   0.96789   0.55892   0.00000  Uiso   1.00
H221   H     0.94237   0.72125   0.95672   0.00000  Uiso   1.00
O222   O     0.91095   0.39117   0.64346   0.00000  Uiso   1.00
O223   O     0.81853   0.96736   0.63248   0.00000  Uiso   1.00
O224   O     0.81713   0.64379   0.84241   0.00000  Uiso   1.00
N225   N     0.82978   0.43188   0.57198   0.00000  Uiso   1.00
N226   N     0.76393   0.84248   0.56418   0.00000  Uiso   1.00
N227   N     0.76292   0.61192   0.00118   0.00000  Uiso   1.00
N228   N     0.95644   0.50921   0.55928   0.00000  Uiso   1.00
N229   N     0.89058   0.91981   0.55149   0.00000  Uiso   1.00
N230   N     0.88958   0.68925   0.98848   0.00000  Uiso   1.00
C231   C     0.37808   0.15248   0.71355   0.00000  Uiso   1.00
C232   C     0.41156   0.23218   0.76328   0.00000  Uiso   1.00
C233   C     0.48278   0.27170   0.81218   0.00000  Uiso   1.00
C234   C     0.50289   0.34394   0.85274   0.00000  Uiso   1.00
C235   C     0.56238   0.46288   0.93124   0.00000  Uiso   1.00
C236   C     0.29840   0.10087   0.76115   0.00000  Uiso   1.00
C237   C     0.27447   0.02998   0.80824   0.00000  Uiso   1.00
C238   C     0.19931   0.99168   0.84700   0.00000  Uiso   1.00
C239   C     0.08309   0.90673   0.92212   0.00000  Uiso   1.00
C240   C     0.36195   0.16414   0.60599   0.00000  Uiso   1.00
C241   C     0.39145   0.14645   0.52262   0.00000  Uiso   1.00
C242   C     0.36978   0.16140   0.43073   0.00000  Uiso   1.00
C243   C     0.35224   0.17470   0.26495   0.00000  Uiso   1.00
C244   C     0.28714   0.21049   0.69862   0.00000  Uiso   1.00
C245   C     0.36216   0.26368   0.75517   0.00000  Uiso   1.00
C246   C     0.38217   0.33588   0.79566   0.00000  Uiso   1.00
C247   C     0.45341   0.37551   0.84461   0.00000  Uiso   1.00
C248   C     0.24900   0.13237   0.75304   0.00000  Uiso   1.00
C249   C     0.17386   0.09416   0.79172   0.00000  Uiso   1.00
C250   C     0.14983   0.02324   0.83887   0.00000  Uiso   1.00
C251   C     0.31256   0.19565   0.59788   0.00000  Uiso   1.00
C252   C     0.29083   0.21063   0.50610   0.00000  Uiso   1.00
C253   C     0.32029   0.19297   0.42261   0.00000  Uiso   1.00
H254   H     0.41653   0.12795   0.71986   0.00000  Uiso   1.00
H255   H     0.52099   0.24730   0.81845   0.00000  Uiso   1.00
H256   H     0.31271   0.00561   0.81450   0.00000  Uiso   1.00
H257   H     0.42967   0.12207   0.52892   0.00000  Uiso   1.00
H258   H     0.61501   0.39350   0.92421   0.00000  Uiso   1.00
H259   H     0.17583   0.88389   0.91585   0.00000  Uiso   1.00
H260   H     0.42246   0.12944   0.31365   0.00000  Uiso   1.00
H261   H     0.24868   0.23501   0.69230   0.00000  Uiso   1.00
H262   H     0.34393   0.36025   0.78937   0.00000  Uiso   1.00
H263   H     0.13565   0.11856   0.78543   0.00000  Uiso   1.00
H264   H     0.25261   0.23501   0.49985   0.00000  Uiso   1.00
H265   H     0.47130   0.48517   0.90061   0.00000  Uiso   1.00
H266   H     0.03211   0.97555   0.89225   0.00000  Uiso   1.00
H267   H     0.27875   0.22112   0.29006   0.00000  Uiso   1.00
O268   O     0.60883   0.51978   0.97679   0.00000  Uiso   1.00
O269   O     0.03264   0.85117   0.96581   0.00000  Uiso   1.00
O270   O     0.35621   0.17334   0.17575   0.00000  Uiso   1.00
N271   N     0.56812   0.39790   0.90531   0.00000  Uiso   1.00
N272   N     0.15752   0.92144   0.89752   0.00000  Uiso   1.00
N273   N     0.38808   0.15100   0.33451   0.00000  Uiso   1.00
N274   N     0.49079   0.44723   0.89262   0.00000  Uiso   1.00
N275   N     0.08019   0.97077   0.88482   0.00000  Uiso   1.00
N276   N     0.31075   0.20033   0.32181   0.00000  Uiso   1.00
