data_job_06114
_audit_creation_date              2018-12-19
_audit_creation_method            'Materials Studio'
_symmetry_space_group_name_H-M    'P1'
_symmetry_Int_Tables_number       1
_symmetry_cell_setting            triclinic
loop_
_symmetry_equiv_pos_as_xyz
  x,y,z
_cell_length_a                    16.2806
_cell_length_b                    16.2705
_cell_length_c                    16.2598
_cell_angle_alpha                 96.4608
_cell_angle_beta                  96.4418
_cell_angle_gamma                 96.4210
loop_
_atom_site_label
_atom_site_type_symbol
_atom_site_fract_x
_atom_site_fract_y
_atom_site_fract_z
_atom_site_U_iso_or_equiv
_atom_site_adp_type
_atom_site_occupancy
C1     C     0.20116   0.09632   0.75255   0.00000  Uiso   1.00
C2     C     0.11049   0.06057   0.72409   0.00000  Uiso   1.00
C3     C     0.06870   0.99123   0.75064   0.00000  Uiso   1.00
C4     C     0.98592   0.96849   0.71721   0.00000  Uiso   1.00
C5     C     0.85115   0.90611   0.68180   0.00000  Uiso   1.00
C6     C     0.24321   0.09797   0.67343   0.00000  Uiso   1.00
C7     C     0.31301   0.06009   0.65740   0.00000  Uiso   1.00
C8     C     0.34195   0.06885   0.58133   0.00000  Uiso   1.00
C9     C     0.41327   0.06458   0.46730   0.00000  Uiso   1.00
C10    C     0.19996   0.18722   0.78706   0.00000  Uiso   1.00
C11    C     0.23342   0.22440   0.86657   0.00000  Uiso   1.00
C12    C     0.22596   0.30831   0.88616   0.00000  Uiso   1.00
C13    C     0.23013   0.44262   0.94856   0.00000  Uiso   1.00
C14    C     0.12846   0.17923   0.64595   0.00000  Uiso   1.00
C15    C     0.07101   0.10561   0.66619   0.00000  Uiso   1.00
C16    C     0.98827   0.08297   0.63271   0.00000  Uiso   1.00
C17    C     0.94636   0.01361   0.65921   0.00000  Uiso   1.00
C18    C     0.20372   0.14301   0.61554   0.00000  Uiso   1.00
C19    C     0.23258   0.15183   0.53947   0.00000  Uiso   1.00
C20    C     0.30240   0.11396   0.52333   0.00000  Uiso   1.00
C21    C     0.16047   0.23226   0.72917   0.00000  Uiso   1.00
C22    C     0.15298   0.31613   0.74864   0.00000  Uiso   1.00
C23    C     0.18641   0.35342   0.82816   0.00000  Uiso   1.00
H24    H     0.23190   0.06126   0.79762   0.00000  Uiso   1.00
H25    H     0.09928   0.95639   0.79544   0.00000  Uiso   1.00
H26    H     0.34356   0.02525   0.70222   0.00000  Uiso   1.00
H27    H     0.26397   0.18953   0.91135   0.00000  Uiso   1.00
H28    H     0.93484   0.85998   0.76747   0.00000  Uiso   1.00
H29    H     0.44992   0.00519   0.57093   0.00000  Uiso   1.00
H30    H     0.28210   0.35160   0.01193   0.00000  Uiso   1.00
H31    H     0.09772   0.21430   0.60088   0.00000  Uiso   1.00
H32    H     0.95773   0.11783   0.58791   0.00000  Uiso   1.00
H33    H     0.20200   0.18669   0.49469   0.00000  Uiso   1.00
H34    H     0.12242   0.35096   0.70382   0.00000  Uiso   1.00
H35    H     0.81995   0.99100   0.59903   0.00000  Uiso   1.00
H36    H     0.33504   0.13622   0.40248   0.00000  Uiso   1.00
H37    H     0.16721   0.48263   0.84348   0.00000  Uiso   1.00
O38    O     0.78773   0.85926   0.67825   0.00000  Uiso   1.00
O39    O     0.46351   0.04978   0.42039   0.00000  Uiso   1.00
O40    O     0.24333   0.50426   0.99898   0.00000  Uiso   1.00
N41    N     0.92701   0.90406   0.72962   0.00000  Uiso   1.00
N42    N     0.40857   0.03982   0.54586   0.00000  Uiso   1.00
N43    N     0.25169   0.36369   0.95815   0.00000  Uiso   1.00
N44    N     0.86518   0.97457   0.63899   0.00000  Uiso   1.00
N45    N     0.34675   0.11032   0.45522   0.00000  Uiso   1.00
N46    N     0.18987   0.43419   0.86751   0.00000  Uiso   1.00
C47    C     0.75229   0.20109   0.09633   0.00000  Uiso   1.00
C48    C     0.72388   0.11036   0.06054   0.00000  Uiso   1.00
C49    C     0.75041   0.06851   0.99114   0.00000  Uiso   1.00
C50    C     0.71703   0.98567   0.96836   0.00000  Uiso   1.00
C51    C     0.68169   0.85081   0.90590   0.00000  Uiso   1.00
C52    C     0.67328   0.24318   0.09802   0.00000  Uiso   1.00
C53    C     0.65726   0.31302   0.06014   0.00000  Uiso   1.00
C54    C     0.58129   0.34201   0.06893   0.00000  Uiso   1.00
C55    C     0.46740   0.41340   0.06472   0.00000  Uiso   1.00
C56    C     0.78675   0.19991   0.18729   0.00000  Uiso   1.00
C57    C     0.86615   0.23338   0.22449   0.00000  Uiso   1.00
C58    C     0.88570   0.22595   0.30845   0.00000  Uiso   1.00
C59    C     0.94801   0.23015   0.44284   0.00000  Uiso   1.00
C60    C     0.64584   0.12840   0.17931   0.00000  Uiso   1.00
C61    C     0.66606   0.07088   0.10561   0.00000  Uiso   1.00
C62    C     0.63264   0.98808   0.08293   0.00000  Uiso   1.00
C63    C     0.65911   0.94612   0.01351   0.00000  Uiso   1.00
C64    C     0.61546   0.20370   0.14309   0.00000  Uiso   1.00
C65    C     0.53949   0.23260   0.15194   0.00000  Uiso   1.00
C66    C     0.52336   0.30245   0.11408   0.00000  Uiso   1.00
C67    C     0.72894   0.16043   0.23236   0.00000  Uiso   1.00
C68    C     0.74837   0.15295   0.31628   0.00000  Uiso   1.00
C69    C     0.82778   0.18640   0.35359   0.00000  Uiso   1.00
H70    H     0.79730   0.23183   0.06125   0.00000  Uiso   1.00
H71    H     0.79515   0.09909   0.95627   0.00000  Uiso   1.00
H72    H     0.70202   0.34357   0.02528   0.00000  Uiso   1.00
H73    H     0.91087   0.26393   0.18959   0.00000  Uiso   1.00
H74    H     0.76725   0.93451   0.85974   0.00000  Uiso   1.00
H75    H     0.57089   0.45003   0.00527   0.00000  Uiso   1.00
H76    H     0.01129   0.28211   0.35176   0.00000  Uiso   1.00
H77    H     0.60082   0.09766   0.21439   0.00000  Uiso   1.00
H78    H     0.58790   0.95754   0.11782   0.00000  Uiso   1.00
H79    H     0.49476   0.20203   0.18682   0.00000  Uiso   1.00
H80    H     0.70361   0.12239   0.35114   0.00000  Uiso   1.00
H81    H     0.59903   0.81963   0.99086   0.00000  Uiso   1.00
H82    H     0.40267   0.33515   0.13639   0.00000  Uiso   1.00
H83    H     0.84307   0.16723   0.48288   0.00000  Uiso   1.00
O84    O     0.67816   0.78733   0.85899   0.00000  Uiso   1.00
O85    O     0.42056   0.46368   0.04993   0.00000  Uiso   1.00
O86    O     0.99835   0.24336   0.50452   0.00000  Uiso   1.00
N87    N     0.72945   0.92670   0.90386   0.00000  Uiso   1.00
N88    N     0.54586   0.40867   0.03991   0.00000  Uiso   1.00
N89    N     0.95759   0.25169   0.36386   0.00000  Uiso   1.00
N90    N     0.63893   0.86488   0.97442   0.00000  Uiso   1.00
N91    N     0.45534   0.34685   0.11046   0.00000  Uiso   1.00
N92    N     0.86707   0.18988   0.43441   0.00000  Uiso   1.00
C93    C     0.09620   0.75237   0.20104   0.00000  Uiso   1.00
C94    C     0.06046   0.72393   0.11025   0.00000  Uiso   1.00
C95    C     0.99115   0.75048   0.06840   0.00000  Uiso   1.00
C96    C     0.96842   0.71705   0.98550   0.00000  Uiso   1.00
C97    C     0.90606   0.68166   0.85054   0.00000  Uiso   1.00
C98    C     0.09789   0.67332   0.24314   0.00000  Uiso   1.00
C99    C     0.06005   0.65733   0.31303   0.00000  Uiso   1.00
C100   C     0.06884   0.58132   0.34200   0.00000  Uiso   1.00
C101   C     0.06463   0.46738   0.41341   0.00000  Uiso   1.00
C102   C     0.18703   0.78684   0.19986   0.00000  Uiso   1.00
C103   C     0.22416   0.86628   0.23337   0.00000  Uiso   1.00
C104   C     0.30801   0.88583   0.22592   0.00000  Uiso   1.00
C105   C     0.44222   0.94815   0.23011   0.00000  Uiso   1.00
C106   C     0.17908   0.64581   0.12825   0.00000  Uiso   1.00
C107   C     0.10548   0.66604   0.07071   0.00000  Uiso   1.00
C108   C     0.08285   0.63258   0.98785   0.00000  Uiso   1.00
C109   C     0.01352   0.65907   0.94588   0.00000  Uiso   1.00
C110   C     0.14290   0.61544   0.20360   0.00000  Uiso   1.00
C111   C     0.15175   0.53943   0.23249   0.00000  Uiso   1.00
C112   C     0.11394   0.52333   0.30240   0.00000  Uiso   1.00
C113   C     0.23205   0.72896   0.16031   0.00000  Uiso   1.00
C114   C     0.31586   0.74838   0.15282   0.00000  Uiso   1.00
C115   C     0.35311   0.82785   0.18631   0.00000  Uiso   1.00
H116   H     0.06115   0.79743   0.23183   0.00000  Uiso   1.00
H117   H     0.95632   0.79526   0.09902   0.00000  Uiso   1.00
H118   H     0.02523   0.70214   0.34362   0.00000  Uiso   1.00
H119   H     0.18931   0.91106   0.26396   0.00000  Uiso   1.00
H120   H     0.85994   0.76731   0.93434   0.00000  Uiso   1.00
H121   H     0.00525   0.57097   0.45011   0.00000  Uiso   1.00
H122   H     0.35125   0.01151   0.28214   0.00000  Uiso   1.00
H123   H     0.21413   0.60075   0.09746   0.00000  Uiso   1.00
H124   H     0.11770   0.58779   0.95727   0.00000  Uiso   1.00
H125   H     0.18659   0.49466   0.20188   0.00000  Uiso   1.00
H126   H     0.35068   0.70358   0.12222   0.00000  Uiso   1.00
H127   H     0.99091   0.59891   0.81930   0.00000  Uiso   1.00
H128   H     0.13622   0.40257   0.33507   0.00000  Uiso   1.00
H129   H     0.48222   0.84311   0.16710   0.00000  Uiso   1.00
O130   O     0.85922   0.67811   0.78703   0.00000  Uiso   1.00
O131   O     0.04987   0.42053   0.46371   0.00000  Uiso   1.00
O132   O     0.50380   0.99851   0.24334   0.00000  Uiso   1.00
N133   N     0.90401   0.72947   0.92650   0.00000  Uiso   1.00
N134   N     0.03985   0.54589   0.40871   0.00000  Uiso   1.00
N135   N     0.36334   0.95776   0.25169   0.00000  Uiso   1.00
N136   N     0.97449   0.63886   0.86460   0.00000  Uiso   1.00
N137   N     0.11033   0.45528   0.34680   0.00000  Uiso   1.00
N138   N     0.43381   0.86714   0.18979   0.00000  Uiso   1.00
C139   C     0.79884   0.90368   0.24745   0.00000  Uiso   1.00
C140   C     0.88951   0.93943   0.27591   0.00000  Uiso   1.00
C141   C     0.93130   0.00877   0.24936   0.00000  Uiso   1.00
C142   C     0.01408   0.03151   0.28279   0.00000  Uiso   1.00
C143   C     0.14885   0.09389   0.31820   0.00000  Uiso   1.00
C144   C     0.75679   0.90203   0.32657   0.00000  Uiso   1.00
C145   C     0.68699   0.93991   0.34260   0.00000  Uiso   1.00
C146   C     0.65805   0.93115   0.41867   0.00000  Uiso   1.00
C147   C     0.58673   0.93542   0.53270   0.00000  Uiso   1.00
C148   C     0.80004   0.81278   0.21294   0.00000  Uiso   1.00
C149   C     0.76658   0.77560   0.13343   0.00000  Uiso   1.00
C150   C     0.77404   0.69169   0.11384   0.00000  Uiso   1.00
C151   C     0.76987   0.55738   0.05144   0.00000  Uiso   1.00
C152   C     0.87154   0.82077   0.35405   0.00000  Uiso   1.00
C153   C     0.92899   0.89439   0.33381   0.00000  Uiso   1.00
C154   C     0.01173   0.91703   0.36729   0.00000  Uiso   1.00
C155   C     0.05364   0.98639   0.34079   0.00000  Uiso   1.00
C156   C     0.79627   0.85699   0.38446   0.00000  Uiso   1.00
C157   C     0.76742   0.84817   0.46053   0.00000  Uiso   1.00
C158   C     0.69760   0.88604   0.47667   0.00000  Uiso   1.00
C159   C     0.83953   0.76774   0.27083   0.00000  Uiso   1.00
C160   C     0.84702   0.68387   0.25136   0.00000  Uiso   1.00
C161   C     0.81359   0.64658   0.17184   0.00000  Uiso   1.00
H162   H     0.76809   0.93874   0.20238   0.00000  Uiso   1.00
H163   H     0.90072   0.04361   0.20456   0.00000  Uiso   1.00
H164   H     0.65644   0.97475   0.29778   0.00000  Uiso   1.00
H165   H     0.73603   0.81047   0.08865   0.00000  Uiso   1.00
H166   H     0.06516   0.14002   0.23253   0.00000  Uiso   1.00
H167   H     0.55008   0.99481   0.42907   0.00000  Uiso   1.00
H168   H     0.71790   0.64840   0.98807   0.00000  Uiso   1.00
H169   H     0.90228   0.78570   0.39912   0.00000  Uiso   1.00
H170   H     0.04227   0.88217   0.41209   0.00000  Uiso   1.00
H171   H     0.79799   0.81331   0.50531   0.00000  Uiso   1.00
H172   H     0.87758   0.64904   0.29618   0.00000  Uiso   1.00
H173   H     0.18005   0.00900   0.40097   0.00000  Uiso   1.00
H174   H     0.66496   0.86378   0.59752   0.00000  Uiso   1.00
H175   H     0.83279   0.51737   0.15652   0.00000  Uiso   1.00
O176   O     0.21227   0.14074   0.32175   0.00000  Uiso   1.00
O177   O     0.53649   0.95022   0.57960   0.00000  Uiso   1.00
O178   O     0.75667   0.49574   0.00102   0.00000  Uiso   1.00
N179   N     0.07299   0.09594   0.27038   0.00000  Uiso   1.00
N180   N     0.59143   0.96018   0.45414   0.00000  Uiso   1.00
N181   N     0.74831   0.63631   0.04185   0.00000  Uiso   1.00
N182   N     0.13482   0.02543   0.36101   0.00000  Uiso   1.00
N183   N     0.65325   0.88968   0.54478   0.00000  Uiso   1.00
N184   N     0.81013   0.56581   0.13249   0.00000  Uiso   1.00
C185   C     0.24771   0.79891   0.90367   0.00000  Uiso   1.00
C186   C     0.27612   0.88964   0.93946   0.00000  Uiso   1.00
C187   C     0.24959   0.93149   0.00886   0.00000  Uiso   1.00
C188   C     0.28297   0.01433   0.03164   0.00000  Uiso   1.00
C189   C     0.31831   0.14919   0.09410   0.00000  Uiso   1.00
C190   C     0.32672   0.75681   0.90198   0.00000  Uiso   1.00
C191   C     0.34274   0.68698   0.93986   0.00000  Uiso   1.00
C192   C     0.41871   0.65799   0.93107   0.00000  Uiso   1.00
C193   C     0.53260   0.58660   0.93528   0.00000  Uiso   1.00
C194   C     0.21325   0.80009   0.81270   0.00000  Uiso   1.00
C195   C     0.13385   0.76662   0.77551   0.00000  Uiso   1.00
C196   C     0.11430   0.77405   0.69155   0.00000  Uiso   1.00
C197   C     0.05199   0.76985   0.55716   0.00000  Uiso   1.00
C198   C     0.35416   0.87160   0.82069   0.00000  Uiso   1.00
C199   C     0.33394   0.92912   0.89439   0.00000  Uiso   1.00
C200   C     0.36736   0.01192   0.91707   0.00000  Uiso   1.00
C201   C     0.34089   0.05388   0.98649   0.00000  Uiso   1.00
C202   C     0.38454   0.79629   0.85691   0.00000  Uiso   1.00
C203   C     0.46051   0.76740   0.84806   0.00000  Uiso   1.00
C204   C     0.47664   0.69755   0.88592   0.00000  Uiso   1.00
C205   C     0.27106   0.83957   0.76764   0.00000  Uiso   1.00
C206   C     0.25163   0.84705   0.68372   0.00000  Uiso   1.00
C207   C     0.17222   0.81360   0.64641   0.00000  Uiso   1.00
H208   H     0.20270   0.76817   0.93875   0.00000  Uiso   1.00
H209   H     0.20485   0.90091   0.04373   0.00000  Uiso   1.00
H210   H     0.29798   0.65643   0.97472   0.00000  Uiso   1.00
H211   H     0.08913   0.73607   0.81041   0.00000  Uiso   1.00
H212   H     0.23275   0.06549   0.14026   0.00000  Uiso   1.00
H213   H     0.42911   0.54997   0.99473   0.00000  Uiso   1.00
H214   H     0.98871   0.71789   0.64824   0.00000  Uiso   1.00
H215   H     0.39918   0.90234   0.78561   0.00000  Uiso   1.00
H216   H     0.41210   0.04246   0.88218   0.00000  Uiso   1.00
H217   H     0.50524   0.79797   0.81318   0.00000  Uiso   1.00
H218   H     0.29639   0.87761   0.64886   0.00000  Uiso   1.00
H219   H     0.40097   0.18037   0.00914   0.00000  Uiso   1.00
H220   H     0.59733   0.66485   0.86361   0.00000  Uiso   1.00
H221   H     0.15693   0.83277   0.51712   0.00000  Uiso   1.00
O222   O     0.32184   0.21267   0.14101   0.00000  Uiso   1.00
O223   O     0.57944   0.53632   0.95007   0.00000  Uiso   1.00
O224   O     0.00165   0.75664   0.49548   0.00000  Uiso   1.00
N225   N     0.27055   0.07330   0.09614   0.00000  Uiso   1.00
N226   N     0.45414   0.59133   0.96009   0.00000  Uiso   1.00
N227   N     0.04241   0.74830   0.63614   0.00000  Uiso   1.00
N228   N     0.36107   0.13512   0.02558   0.00000  Uiso   1.00
N229   N     0.54466   0.65315   0.88954   0.00000  Uiso   1.00
N230   N     0.13293   0.81012   0.56559   0.00000  Uiso   1.00
C231   C     0.90380   0.24763   0.79896   0.00000  Uiso   1.00
C232   C     0.93954   0.27607   0.88975   0.00000  Uiso   1.00
C233   C     0.00885   0.24952   0.93160   0.00000  Uiso   1.00
C234   C     0.03158   0.28295   0.01450   0.00000  Uiso   1.00
C235   C     0.09394   0.31834   0.14946   0.00000  Uiso   1.00
C236   C     0.90211   0.32668   0.75686   0.00000  Uiso   1.00
C237   C     0.93995   0.34267   0.68697   0.00000  Uiso   1.00
C238   C     0.93116   0.41868   0.65800   0.00000  Uiso   1.00
C239   C     0.93537   0.53262   0.58659   0.00000  Uiso   1.00
C240   C     0.81297   0.21316   0.80014   0.00000  Uiso   1.00
C241   C     0.77584   0.13372   0.76663   0.00000  Uiso   1.00
C242   C     0.69199   0.11417   0.77408   0.00000  Uiso   1.00
C243   C     0.55778   0.05185   0.76989   0.00000  Uiso   1.00
C244   C     0.82092   0.35419   0.87175   0.00000  Uiso   1.00
C245   C     0.89452   0.33396   0.92929   0.00000  Uiso   1.00
C246   C     0.91715   0.36742   0.01215   0.00000  Uiso   1.00
C247   C     0.98648   0.34093   0.05412   0.00000  Uiso   1.00
C248   C     0.85710   0.38456   0.79639   0.00000  Uiso   1.00
C249   C     0.84825   0.46057   0.76751   0.00000  Uiso   1.00
C250   C     0.88606   0.47667   0.69760   0.00000  Uiso   1.00
C251   C     0.76795   0.27104   0.83969   0.00000  Uiso   1.00
C252   C     0.68414   0.25162   0.84718   0.00000  Uiso   1.00
C253   C     0.64689   0.17215   0.81369   0.00000  Uiso   1.00
H254   H     0.93885   0.20257   0.76817   0.00000  Uiso   1.00
H255   H     0.04368   0.20474   0.90098   0.00000  Uiso   1.00
H256   H     0.97477   0.29786   0.65638   0.00000  Uiso   1.00
H257   H     0.81069   0.08894   0.73604   0.00000  Uiso   1.00
H258   H     0.14006   0.23269   0.06566   0.00000  Uiso   1.00
H259   H     0.99475   0.42903   0.54989   0.00000  Uiso   1.00
H260   H     0.64875   0.98849   0.71785   0.00000  Uiso   1.00
H261   H     0.78587   0.39925   0.90254   0.00000  Uiso   1.00
H262   H     0.88230   0.41221   0.04273   0.00000  Uiso   1.00
H263   H     0.81340   0.50534   0.79812   0.00000  Uiso   1.00
H264   H     0.64932   0.29642   0.87778   0.00000  Uiso   1.00
H265   H     0.00909   0.40109   0.18070   0.00000  Uiso   1.00
H266   H     0.86378   0.59743   0.66493   0.00000  Uiso   1.00
H267   H     0.51778   0.15689   0.83290   0.00000  Uiso   1.00
O268   O     0.14078   0.32189   0.21297   0.00000  Uiso   1.00
O269   O     0.95013   0.57947   0.53629   0.00000  Uiso   1.00
O270   O     0.49620   0.00149   0.75666   0.00000  Uiso   1.00
N271   N     0.09599   0.27053   0.07350   0.00000  Uiso   1.00
N272   N     0.96015   0.45411   0.59129   0.00000  Uiso   1.00
N273   N     0.63666   0.04224   0.74831   0.00000  Uiso   1.00
N274   N     0.02551   0.36114   0.13540   0.00000  Uiso   1.00
N275   N     0.88967   0.54472   0.65320   0.00000  Uiso   1.00
N276   N     0.56619   0.13286   0.81021   0.00000  Uiso   1.00
