data_job_03843
_audit_creation_date              2018-12-19
_audit_creation_method            'Materials Studio'
_symmetry_space_group_name_H-M    'P1'
_symmetry_Int_Tables_number       1
_symmetry_cell_setting            triclinic
loop_
_symmetry_equiv_pos_as_xyz
  x,y,z
_cell_length_a                    14.1061
_cell_length_b                    22.0601
_cell_length_c                    13.0208
_cell_angle_alpha                 90.0000
_cell_angle_beta                  140.4976
_cell_angle_gamma                 90.0000
loop_
_atom_site_label
_atom_site_type_symbol
_atom_site_fract_x
_atom_site_fract_y
_atom_site_fract_z
_atom_site_U_iso_or_equiv
_atom_site_adp_type
_atom_site_occupancy
C1     C     0.85982   0.89400   0.06059   0.00000  Uiso   1.00
C2     C     0.73033   0.85866   0.90579   0.00000  Uiso   1.00
C3     C     0.73893   0.82021   0.82883   0.00000  Uiso   1.00
C4     C     0.60790   0.79208   0.68855   0.00000  Uiso   1.00
C5     C     0.42735   0.73566   0.45750   0.00000  Uiso   1.00
C6     C     0.86646   0.87555   0.17892   0.00000  Uiso   1.00
C7     C     0.98953   0.85132   0.33161   0.00000  Uiso   1.00
C8     C     0.97309   0.83742   0.42125   0.00000  Uiso   1.00
C9     C     0.00391   0.80727   0.61429   0.00000  Uiso   1.00
C10    C     0.81272   0.96041   0.02013   0.00000  Uiso   1.00
C11    C     0.89062   0.00753   0.03935   0.00000  Uiso   1.00
C12    C     0.82896   0.06509   0.99534   0.00000  Uiso   1.00
C13    C     0.77634   0.16669   0.94184   0.00000  Uiso   1.00
C14    C     0.61182   0.91243   0.94830   0.00000  Uiso   1.00
C15    C     0.59563   0.86867   0.84480   0.00000  Uiso   1.00
C16    C     0.46455   0.84060   0.70460   0.00000  Uiso   1.00
C17    C     0.47296   0.80211   0.62744   0.00000  Uiso   1.00
C18    C     0.73177   0.88556   0.11793   0.00000  Uiso   1.00
C19    C     0.71515   0.87171   0.20737   0.00000  Uiso   1.00
C20    C     0.83815   0.84745   0.36016   0.00000  Uiso   1.00
C21    C     0.67802   0.97043   0.95913   0.00000  Uiso   1.00
C22    C     0.61623   0.02792   0.91511   0.00000  Uiso   1.00
C23    C     0.69401   0.07512   0.93425   0.00000  Uiso   1.00
H24    H     0.96470   0.88621   0.10809   0.00000  Uiso   1.00
H25    H     0.84321   0.81247   0.87608   0.00000  Uiso   1.00
H26    H     0.09376   0.84358   0.37878   0.00000  Uiso   1.00
H27    H     0.99486   0.99977   0.08656   0.00000  Uiso   1.00
H28    H     0.64911   0.73511   0.59200   0.00000  Uiso   1.00
H29    H     0.17744   0.80073   0.65199   0.00000  Uiso   1.00
H30    H     0.96890   0.13009   0.03579   0.00000  Uiso   1.00
H31    H     0.50695   0.92023   0.90082   0.00000  Uiso   1.00
H32    H     0.36033   0.84835   0.65743   0.00000  Uiso   1.00
H33    H     0.61089   0.87946   0.16014   0.00000  Uiso   1.00
H34    H     0.51199   0.03565   0.86791   0.00000  Uiso   1.00
H35    H     0.25719   0.76424   0.41453   0.00000  Uiso   1.00
H36    H     0.78552   0.82986   0.47454   0.00000  Uiso   1.00
H37    H     0.57698   0.15921   0.85832   0.00000  Uiso   1.00
O38    O     0.36497   0.70177   0.34693   0.00000  Uiso   1.00
O39    O     0.05812   0.78787   0.73761   0.00000  Uiso   1.00
O40    O     0.78452   0.21997   0.92915   0.00000  Uiso   1.00
N41    N     0.57699   0.75184   0.58361   0.00000  Uiso   1.00
N42    N     0.07094   0.81318   0.57464   0.00000  Uiso   1.00
N43    N     0.87599   0.12110   0.99858   0.00000  Uiso   1.00
N44    N     0.36610   0.76751   0.48812   0.00000  Uiso   1.00
N45    N     0.86005   0.82885   0.47915   0.00000  Uiso   1.00
N46    N     0.66510   0.13677   0.90308   0.00000  Uiso   1.00
C47    C     0.14018   0.39400   0.43941   0.00000  Uiso   1.00
C48    C     0.26967   0.35866   0.59421   0.00000  Uiso   1.00
C49    C     0.26107   0.32021   0.67117   0.00000  Uiso   1.00
C50    C     0.39210   0.29208   0.81145   0.00000  Uiso   1.00
C51    C     0.57265   0.23566   0.04250   0.00000  Uiso   1.00
C52    C     0.13354   0.37555   0.32108   0.00000  Uiso   1.00
C53    C     0.01047   0.35132   0.16839   0.00000  Uiso   1.00
C54    C     0.02691   0.33742   0.07875   0.00000  Uiso   1.00
C55    C     0.99609   0.30727   0.88571   0.00000  Uiso   1.00
C56    C     0.18728   0.46041   0.47987   0.00000  Uiso   1.00
C57    C     0.10938   0.50753   0.46065   0.00000  Uiso   1.00
C58    C     0.17104   0.56509   0.50466   0.00000  Uiso   1.00
C59    C     0.22366   0.66669   0.55816   0.00000  Uiso   1.00
C60    C     0.38818   0.41243   0.55170   0.00000  Uiso   1.00
C61    C     0.40437   0.36867   0.65520   0.00000  Uiso   1.00
C62    C     0.53545   0.34060   0.79540   0.00000  Uiso   1.00
C63    C     0.52704   0.30211   0.87256   0.00000  Uiso   1.00
C64    C     0.26823   0.38556   0.38207   0.00000  Uiso   1.00
C65    C     0.28485   0.37171   0.29263   0.00000  Uiso   1.00
C66    C     0.16185   0.34745   0.13984   0.00000  Uiso   1.00
C67    C     0.32198   0.47043   0.54087   0.00000  Uiso   1.00
C68    C     0.38377   0.52792   0.58489   0.00000  Uiso   1.00
C69    C     0.30599   0.57512   0.56575   0.00000  Uiso   1.00
H70    H     0.03530   0.38621   0.39191   0.00000  Uiso   1.00
H71    H     0.15679   0.31247   0.62392   0.00000  Uiso   1.00
H72    H     0.90624   0.34358   0.12122   0.00000  Uiso   1.00
H73    H     0.00514   0.49977   0.41344   0.00000  Uiso   1.00
H74    H     0.35089   0.23511   0.90800   0.00000  Uiso   1.00
H75    H     0.82256   0.30073   0.84801   0.00000  Uiso   1.00
H76    H     0.03110   0.63009   0.46421   0.00000  Uiso   1.00
H77    H     0.49305   0.42023   0.59918   0.00000  Uiso   1.00
H78    H     0.63967   0.34835   0.84257   0.00000  Uiso   1.00
H79    H     0.38911   0.37946   0.33986   0.00000  Uiso   1.00
H80    H     0.48801   0.53565   0.63209   0.00000  Uiso   1.00
H81    H     0.74281   0.26424   0.08547   0.00000  Uiso   1.00
H82    H     0.21448   0.32986   0.02546   0.00000  Uiso   1.00
H83    H     0.42302   0.65921   0.64168   0.00000  Uiso   1.00
O84    O     0.63503   0.20177   0.15307   0.00000  Uiso   1.00
O85    O     0.94188   0.28787   0.76239   0.00000  Uiso   1.00
O86    O     0.21548   0.71997   0.57085   0.00000  Uiso   1.00
N87    N     0.42301   0.25184   0.91639   0.00000  Uiso   1.00
N88    N     0.92906   0.31318   0.92536   0.00000  Uiso   1.00
N89    N     0.12401   0.62110   0.50142   0.00000  Uiso   1.00
N90    N     0.63390   0.26751   0.01188   0.00000  Uiso   1.00
N91    N     0.13995   0.32885   0.02085   0.00000  Uiso   1.00
N92    N     0.33490   0.63677   0.59692   0.00000  Uiso   1.00
C93    C     0.14018   0.10600   0.93941   0.00000  Uiso   1.00
C94    C     0.26967   0.14134   0.09421   0.00000  Uiso   1.00
C95    C     0.26107   0.17979   0.17117   0.00000  Uiso   1.00
C96    C     0.39210   0.20792   0.31145   0.00000  Uiso   1.00
C97    C     0.57265   0.26434   0.54250   0.00000  Uiso   1.00
C98    C     0.13354   0.12445   0.82108   0.00000  Uiso   1.00
C99    C     0.01047   0.14868   0.66839   0.00000  Uiso   1.00
C100   C     0.02691   0.16258   0.57875   0.00000  Uiso   1.00
C101   C     0.99609   0.19273   0.38571   0.00000  Uiso   1.00
C102   C     0.18728   0.03959   0.97987   0.00000  Uiso   1.00
C103   C     0.10938   0.99247   0.96065   0.00000  Uiso   1.00
C104   C     0.17104   0.93491   0.00466   0.00000  Uiso   1.00
C105   C     0.22366   0.83331   0.05816   0.00000  Uiso   1.00
C106   C     0.38818   0.08757   0.05170   0.00000  Uiso   1.00
C107   C     0.40437   0.13133   0.15520   0.00000  Uiso   1.00
C108   C     0.53545   0.15940   0.29540   0.00000  Uiso   1.00
C109   C     0.52704   0.19789   0.37256   0.00000  Uiso   1.00
C110   C     0.26823   0.11444   0.88207   0.00000  Uiso   1.00
C111   C     0.28485   0.12829   0.79263   0.00000  Uiso   1.00
C112   C     0.16185   0.15255   0.63984   0.00000  Uiso   1.00
C113   C     0.32198   0.02957   0.04087   0.00000  Uiso   1.00
C114   C     0.38377   0.97208   0.08489   0.00000  Uiso   1.00
C115   C     0.30599   0.92488   0.06575   0.00000  Uiso   1.00
H116   H     0.03530   0.11379   0.89191   0.00000  Uiso   1.00
H117   H     0.15679   0.18753   0.12392   0.00000  Uiso   1.00
H118   H     0.90624   0.15642   0.62122   0.00000  Uiso   1.00
H119   H     0.00514   0.00023   0.91344   0.00000  Uiso   1.00
H120   H     0.35089   0.26489   0.40800   0.00000  Uiso   1.00
H121   H     0.82256   0.19927   0.34801   0.00000  Uiso   1.00
H122   H     0.03110   0.86991   0.96421   0.00000  Uiso   1.00
H123   H     0.49305   0.07977   0.09918   0.00000  Uiso   1.00
H124   H     0.63967   0.15165   0.34257   0.00000  Uiso   1.00
H125   H     0.38911   0.12054   0.83986   0.00000  Uiso   1.00
H126   H     0.48801   0.96435   0.13209   0.00000  Uiso   1.00
H127   H     0.74281   0.23576   0.58547   0.00000  Uiso   1.00
H128   H     0.21448   0.17014   0.52546   0.00000  Uiso   1.00
H129   H     0.42302   0.84079   0.14168   0.00000  Uiso   1.00
O130   O     0.63503   0.29823   0.65307   0.00000  Uiso   1.00
O131   O     0.94188   0.21213   0.26239   0.00000  Uiso   1.00
O132   O     0.21548   0.78003   0.07085   0.00000  Uiso   1.00
N133   N     0.42301   0.24816   0.41639   0.00000  Uiso   1.00
N134   N     0.92906   0.18682   0.42536   0.00000  Uiso   1.00
N135   N     0.12401   0.87890   0.00142   0.00000  Uiso   1.00
N136   N     0.63390   0.23249   0.51188   0.00000  Uiso   1.00
N137   N     0.13995   0.17115   0.52085   0.00000  Uiso   1.00
N138   N     0.33490   0.86323   0.09692   0.00000  Uiso   1.00
C139   C     0.85982   0.60600   0.56059   0.00000  Uiso   1.00
C140   C     0.73033   0.64134   0.40579   0.00000  Uiso   1.00
C141   C     0.73893   0.67979   0.32883   0.00000  Uiso   1.00
C142   C     0.60790   0.70792   0.18855   0.00000  Uiso   1.00
C143   C     0.42735   0.76434   0.95750   0.00000  Uiso   1.00
C144   C     0.86646   0.62445   0.67892   0.00000  Uiso   1.00
C145   C     0.98953   0.64868   0.83161   0.00000  Uiso   1.00
C146   C     0.97309   0.66258   0.92125   0.00000  Uiso   1.00
C147   C     0.00391   0.69273   0.11429   0.00000  Uiso   1.00
C148   C     0.81272   0.53959   0.52013   0.00000  Uiso   1.00
C149   C     0.89062   0.49247   0.53935   0.00000  Uiso   1.00
C150   C     0.82896   0.43491   0.49534   0.00000  Uiso   1.00
C151   C     0.77634   0.33331   0.44184   0.00000  Uiso   1.00
C152   C     0.61182   0.58757   0.44830   0.00000  Uiso   1.00
C153   C     0.59563   0.63133   0.34480   0.00000  Uiso   1.00
C154   C     0.46455   0.65940   0.20460   0.00000  Uiso   1.00
C155   C     0.47296   0.69789   0.12744   0.00000  Uiso   1.00
C156   C     0.73177   0.61444   0.61793   0.00000  Uiso   1.00
C157   C     0.71515   0.62829   0.70737   0.00000  Uiso   1.00
C158   C     0.83815   0.65255   0.86016   0.00000  Uiso   1.00
C159   C     0.67802   0.52957   0.45913   0.00000  Uiso   1.00
C160   C     0.61623   0.47208   0.41511   0.00000  Uiso   1.00
C161   C     0.69401   0.42488   0.43425   0.00000  Uiso   1.00
H162   H     0.96470   0.61379   0.60809   0.00000  Uiso   1.00
H163   H     0.84321   0.68753   0.37608   0.00000  Uiso   1.00
H164   H     0.09376   0.65642   0.87878   0.00000  Uiso   1.00
H165   H     0.99486   0.50023   0.58656   0.00000  Uiso   1.00
H166   H     0.64911   0.76489   0.09200   0.00000  Uiso   1.00
H167   H     0.17744   0.69927   0.15199   0.00000  Uiso   1.00
H168   H     0.96890   0.36991   0.53579   0.00000  Uiso   1.00
H169   H     0.50695   0.57977   0.40082   0.00000  Uiso   1.00
H170   H     0.36033   0.65165   0.15743   0.00000  Uiso   1.00
H171   H     0.61089   0.62054   0.66014   0.00000  Uiso   1.00
H172   H     0.51199   0.46435   0.36791   0.00000  Uiso   1.00
H173   H     0.25719   0.73576   0.91453   0.00000  Uiso   1.00
H174   H     0.78552   0.67014   0.97454   0.00000  Uiso   1.00
H175   H     0.57698   0.34079   0.35832   0.00000  Uiso   1.00
O176   O     0.36497   0.79823   0.84693   0.00000  Uiso   1.00
O177   O     0.05812   0.71213   0.23761   0.00000  Uiso   1.00
O178   O     0.78452   0.28003   0.42915   0.00000  Uiso   1.00
N179   N     0.57699   0.74816   0.08361   0.00000  Uiso   1.00
N180   N     0.07094   0.68682   0.07464   0.00000  Uiso   1.00
N181   N     0.87599   0.37890   0.49858   0.00000  Uiso   1.00
N182   N     0.36610   0.73249   0.98812   0.00000  Uiso   1.00
N183   N     0.86005   0.67115   0.97915   0.00000  Uiso   1.00
N184   N     0.66510   0.36323   0.40308   0.00000  Uiso   1.00
