data_job_03679
_audit_creation_date              2018-12-19
_audit_creation_method            'Materials Studio'
_symmetry_space_group_name_H-M    'P1'
_symmetry_Int_Tables_number       1
_symmetry_cell_setting            triclinic
loop_
_symmetry_equiv_pos_as_xyz
  x,y,z
_cell_length_a                    20.9071
_cell_length_b                    12.5423
_cell_length_c                    12.4204
_cell_angle_alpha                 90.0000
_cell_angle_beta                  79.9831
_cell_angle_gamma                 90.0000
loop_
_atom_site_label
_atom_site_type_symbol
_atom_site_fract_x
_atom_site_fract_y
_atom_site_fract_z
_atom_site_U_iso_or_equiv
_atom_site_adp_type
_atom_site_occupancy
C1     C     0.30581   0.34745   0.36890   0.00000  Uiso   1.00
C2     C     0.23202   0.35489   0.39808   0.00000  Uiso   1.00
C3     C     0.18867   0.33537   0.32751   0.00000  Uiso   1.00
C4     C     0.12305   0.34648   0.36989   0.00000  Uiso   1.00
C5     C     0.01174   0.35358   0.39859   0.00000  Uiso   1.00
C6     C     0.33171   0.45594   0.39636   0.00000  Uiso   1.00
C7     C     0.37218   0.52138   0.32435   0.00000  Uiso   1.00
C8     C     0.39048   0.61756   0.36530   0.00000  Uiso   1.00
C9     C     0.43398   0.78152   0.39135   0.00000  Uiso   1.00
C10    C     0.32667   0.26884   0.44984   0.00000  Uiso   1.00
C11    C     0.36291   0.17697   0.42280   0.00000  Uiso   1.00
C12    C     0.37697   0.11563   0.50878   0.00000  Uiso   1.00
C13    C     0.41263   0.98908   0.61786   0.00000  Uiso   1.00
C14    C     0.26636   0.40189   0.56965   0.00000  Uiso   1.00
C15    C     0.21060   0.38446   0.50711   0.00000  Uiso   1.00
C16    C     0.14502   0.39559   0.54961   0.00000  Uiso   1.00
C17    C     0.10158   0.37609   0.47913   0.00000  Uiso   1.00
C18    C     0.31029   0.48551   0.50539   0.00000  Uiso   1.00
C19    C     0.32854   0.58161   0.54645   0.00000  Uiso   1.00
C20    C     0.36902   0.64718   0.47453   0.00000  Uiso   1.00
C21    C     0.30524   0.29840   0.55888   0.00000  Uiso   1.00
C22    C     0.31926   0.23720   0.64490   0.00000  Uiso   1.00
C23    C     0.35551   0.14525   0.61801   0.00000  Uiso   1.00
H24    H     0.32250   0.32444   0.28401   0.00000  Uiso   1.00
H25    H     0.20527   0.31250   0.24313   0.00000  Uiso   1.00
H26    H     0.38876   0.49848   0.23998   0.00000  Uiso   1.00
H27    H     0.37948   0.15412   0.33842   0.00000  Uiso   1.00
H28    H     0.06586   0.31234   0.24589   0.00000  Uiso   1.00
H29    H     0.45277   0.70447   0.23925   0.00000  Uiso   1.00
H30    H     0.43321   0.97832   0.44682   0.00000  Uiso   1.00
H31    H     0.24968   0.42491   0.65454   0.00000  Uiso   1.00
H32    H     0.12846   0.41848   0.63400   0.00000  Uiso   1.00
H33    H     0.31195   0.60446   0.63084   0.00000  Uiso   1.00
H34    H     0.30267   0.26010   0.72927   0.00000  Uiso   1.00
H35    H     0.00351   0.39836   0.56312   0.00000  Uiso   1.00
H36    H     0.39043   0.79049   0.55648   0.00000  Uiso   1.00
H37    H     0.37086   0.06434   0.76405   0.00000  Uiso   1.00
O38    O     0.95626   0.34934   0.38429   0.00000  Uiso   1.00
O39    O     0.46388   0.86379   0.37559   0.00000  Uiso   1.00
O40    O     0.43821   0.91110   0.64791   0.00000  Uiso   1.00
N41    N     0.06782   0.33344   0.32338   0.00000  Uiso   1.00
N42    N     0.42956   0.70007   0.31716   0.00000  Uiso   1.00
N43    N     0.41128   0.02120   0.51122   0.00000  Uiso   1.00
N44    N     0.03427   0.37973   0.49408   0.00000  Uiso   1.00
N45    N     0.39601   0.74636   0.48786   0.00000  Uiso   1.00
N46    N     0.37773   0.06748   0.68192   0.00000  Uiso   1.00
C47    C     0.69419   0.34745   0.13110   0.00000  Uiso   1.00
C48    C     0.76798   0.35489   0.10192   0.00000  Uiso   1.00
C49    C     0.81133   0.33537   0.17249   0.00000  Uiso   1.00
C50    C     0.87695   0.34648   0.13011   0.00000  Uiso   1.00
C51    C     0.98826   0.35358   0.10141   0.00000  Uiso   1.00
C52    C     0.66829   0.45594   0.10364   0.00000  Uiso   1.00
C53    C     0.62782   0.52138   0.17565   0.00000  Uiso   1.00
C54    C     0.60952   0.61756   0.13470   0.00000  Uiso   1.00
C55    C     0.56602   0.78152   0.10865   0.00000  Uiso   1.00
C56    C     0.67333   0.26884   0.05016   0.00000  Uiso   1.00
C57    C     0.63709   0.17697   0.07720   0.00000  Uiso   1.00
C58    C     0.62303   0.11563   0.99122   0.00000  Uiso   1.00
C59    C     0.58737   0.98908   0.88214   0.00000  Uiso   1.00
C60    C     0.73364   0.40189   0.93035   0.00000  Uiso   1.00
C61    C     0.78940   0.38446   0.99289   0.00000  Uiso   1.00
C62    C     0.85498   0.39559   0.95039   0.00000  Uiso   1.00
C63    C     0.89842   0.37609   0.02087   0.00000  Uiso   1.00
C64    C     0.68971   0.48551   0.99461   0.00000  Uiso   1.00
C65    C     0.67146   0.58161   0.95355   0.00000  Uiso   1.00
C66    C     0.63098   0.64718   0.02547   0.00000  Uiso   1.00
C67    C     0.69476   0.29840   0.94112   0.00000  Uiso   1.00
C68    C     0.68074   0.23720   0.85510   0.00000  Uiso   1.00
C69    C     0.64449   0.14525   0.88199   0.00000  Uiso   1.00
H70    H     0.67750   0.32444   0.21599   0.00000  Uiso   1.00
H71    H     0.79473   0.31250   0.25687   0.00000  Uiso   1.00
H72    H     0.61124   0.49848   0.26002   0.00000  Uiso   1.00
H73    H     0.62052   0.15412   0.16158   0.00000  Uiso   1.00
H74    H     0.93414   0.31234   0.25411   0.00000  Uiso   1.00
H75    H     0.54723   0.70447   0.26075   0.00000  Uiso   1.00
H76    H     0.56679   0.97832   0.05318   0.00000  Uiso   1.00
H77    H     0.75032   0.42491   0.84546   0.00000  Uiso   1.00
H78    H     0.87154   0.41848   0.86600   0.00000  Uiso   1.00
H79    H     0.68805   0.60446   0.86916   0.00000  Uiso   1.00
H80    H     0.69733   0.26010   0.77073   0.00000  Uiso   1.00
H81    H     0.99649   0.39836   0.93688   0.00000  Uiso   1.00
H82    H     0.60957   0.79049   0.94352   0.00000  Uiso   1.00
H83    H     0.62914   0.06434   0.73595   0.00000  Uiso   1.00
O84    O     0.04374   0.34934   0.11571   0.00000  Uiso   1.00
O85    O     0.53612   0.86379   0.12441   0.00000  Uiso   1.00
O86    O     0.56179   0.91110   0.85209   0.00000  Uiso   1.00
N87    N     0.93218   0.33344   0.17662   0.00000  Uiso   1.00
N88    N     0.57044   0.70007   0.18284   0.00000  Uiso   1.00
N89    N     0.58872   0.02120   0.98878   0.00000  Uiso   1.00
N90    N     0.96573   0.37973   0.00592   0.00000  Uiso   1.00
N91    N     0.60399   0.74636   0.01214   0.00000  Uiso   1.00
N92    N     0.62227   0.06748   0.81808   0.00000  Uiso   1.00
C93    C     0.69419   0.65255   0.63110   0.00000  Uiso   1.00
C94    C     0.76798   0.64511   0.60192   0.00000  Uiso   1.00
C95    C     0.81133   0.66463   0.67249   0.00000  Uiso   1.00
C96    C     0.87695   0.65352   0.63011   0.00000  Uiso   1.00
C97    C     0.98826   0.64642   0.60141   0.00000  Uiso   1.00
C98    C     0.66829   0.54406   0.60364   0.00000  Uiso   1.00
C99    C     0.62782   0.47862   0.67565   0.00000  Uiso   1.00
C100   C     0.60952   0.38244   0.63470   0.00000  Uiso   1.00
C101   C     0.56602   0.21848   0.60865   0.00000  Uiso   1.00
C102   C     0.67333   0.73116   0.55016   0.00000  Uiso   1.00
C103   C     0.63709   0.82303   0.57720   0.00000  Uiso   1.00
C104   C     0.62303   0.88437   0.49122   0.00000  Uiso   1.00
C105   C     0.58737   0.01092   0.38214   0.00000  Uiso   1.00
C106   C     0.73364   0.59811   0.43035   0.00000  Uiso   1.00
C107   C     0.78940   0.61554   0.49289   0.00000  Uiso   1.00
C108   C     0.85498   0.60441   0.45039   0.00000  Uiso   1.00
C109   C     0.89842   0.62391   0.52087   0.00000  Uiso   1.00
C110   C     0.68971   0.51449   0.49461   0.00000  Uiso   1.00
C111   C     0.67146   0.41839   0.45355   0.00000  Uiso   1.00
C112   C     0.63098   0.35282   0.52547   0.00000  Uiso   1.00
C113   C     0.69476   0.70160   0.44112   0.00000  Uiso   1.00
C114   C     0.68074   0.76280   0.35510   0.00000  Uiso   1.00
C115   C     0.64449   0.85475   0.38199   0.00000  Uiso   1.00
H116   H     0.67750   0.67556   0.71599   0.00000  Uiso   1.00
H117   H     0.79473   0.68750   0.75687   0.00000  Uiso   1.00
H118   H     0.61124   0.50152   0.76002   0.00000  Uiso   1.00
H119   H     0.62052   0.84588   0.66158   0.00000  Uiso   1.00
H120   H     0.93414   0.68766   0.75411   0.00000  Uiso   1.00
H121   H     0.54723   0.29553   0.76075   0.00000  Uiso   1.00
H122   H     0.56679   0.02168   0.55318   0.00000  Uiso   1.00
H123   H     0.75032   0.57509   0.34546   0.00000  Uiso   1.00
H124   H     0.87154   0.58152   0.36600   0.00000  Uiso   1.00
H125   H     0.68805   0.39554   0.36916   0.00000  Uiso   1.00
H126   H     0.69733   0.73990   0.27073   0.00000  Uiso   1.00
H127   H     0.99649   0.60164   0.43688   0.00000  Uiso   1.00
H128   H     0.60957   0.20951   0.44352   0.00000  Uiso   1.00
H129   H     0.62914   0.93566   0.23595   0.00000  Uiso   1.00
O130   O     0.04374   0.65066   0.61571   0.00000  Uiso   1.00
O131   O     0.53612   0.13621   0.62441   0.00000  Uiso   1.00
O132   O     0.56179   0.08890   0.35209   0.00000  Uiso   1.00
N133   N     0.93218   0.66656   0.67662   0.00000  Uiso   1.00
N134   N     0.57044   0.29993   0.68284   0.00000  Uiso   1.00
N135   N     0.58872   0.97880   0.48878   0.00000  Uiso   1.00
N136   N     0.96573   0.62027   0.50592   0.00000  Uiso   1.00
N137   N     0.60399   0.25364   0.51214   0.00000  Uiso   1.00
N138   N     0.62227   0.93252   0.31808   0.00000  Uiso   1.00
C139   C     0.30581   0.65255   0.86890   0.00000  Uiso   1.00
C140   C     0.23202   0.64511   0.89808   0.00000  Uiso   1.00
C141   C     0.18867   0.66463   0.82751   0.00000  Uiso   1.00
C142   C     0.12305   0.65352   0.86989   0.00000  Uiso   1.00
C143   C     0.01174   0.64642   0.89859   0.00000  Uiso   1.00
C144   C     0.33171   0.54406   0.89636   0.00000  Uiso   1.00
C145   C     0.37218   0.47862   0.82435   0.00000  Uiso   1.00
C146   C     0.39048   0.38244   0.86530   0.00000  Uiso   1.00
C147   C     0.43398   0.21848   0.89135   0.00000  Uiso   1.00
C148   C     0.32667   0.73116   0.94984   0.00000  Uiso   1.00
C149   C     0.36291   0.82303   0.92280   0.00000  Uiso   1.00
C150   C     0.37697   0.88437   0.00878   0.00000  Uiso   1.00
C151   C     0.41263   0.01092   0.11786   0.00000  Uiso   1.00
C152   C     0.26636   0.59811   0.06965   0.00000  Uiso   1.00
C153   C     0.21060   0.61554   0.00711   0.00000  Uiso   1.00
C154   C     0.14502   0.60441   0.04961   0.00000  Uiso   1.00
C155   C     0.10158   0.62391   0.97913   0.00000  Uiso   1.00
C156   C     0.31029   0.51449   0.00539   0.00000  Uiso   1.00
C157   C     0.32854   0.41839   0.04645   0.00000  Uiso   1.00
C158   C     0.36902   0.35282   0.97453   0.00000  Uiso   1.00
C159   C     0.30524   0.70160   0.05888   0.00000  Uiso   1.00
C160   C     0.31926   0.76280   0.14490   0.00000  Uiso   1.00
C161   C     0.35551   0.85475   0.11801   0.00000  Uiso   1.00
H162   H     0.32250   0.67556   0.78401   0.00000  Uiso   1.00
H163   H     0.20527   0.68750   0.74313   0.00000  Uiso   1.00
H164   H     0.38876   0.50152   0.73998   0.00000  Uiso   1.00
H165   H     0.37948   0.84588   0.83842   0.00000  Uiso   1.00
H166   H     0.06586   0.68766   0.74589   0.00000  Uiso   1.00
H167   H     0.45277   0.29553   0.73925   0.00000  Uiso   1.00
H168   H     0.43321   0.02168   0.94682   0.00000  Uiso   1.00
H169   H     0.24968   0.57509   0.15454   0.00000  Uiso   1.00
H170   H     0.12846   0.58152   0.13400   0.00000  Uiso   1.00
H171   H     0.31195   0.39554   0.13084   0.00000  Uiso   1.00
H172   H     0.30267   0.73990   0.22927   0.00000  Uiso   1.00
H173   H     0.00351   0.60164   0.06312   0.00000  Uiso   1.00
H174   H     0.39043   0.20951   0.05648   0.00000  Uiso   1.00
H175   H     0.37086   0.93566   0.26405   0.00000  Uiso   1.00
O176   O     0.95626   0.65066   0.88429   0.00000  Uiso   1.00
O177   O     0.46388   0.13621   0.87559   0.00000  Uiso   1.00
O178   O     0.43821   0.08890   0.14791   0.00000  Uiso   1.00
N179   N     0.06782   0.66656   0.82338   0.00000  Uiso   1.00
N180   N     0.42956   0.29993   0.81716   0.00000  Uiso   1.00
N181   N     0.41128   0.97880   0.01122   0.00000  Uiso   1.00
N182   N     0.03427   0.62027   0.99408   0.00000  Uiso   1.00
N183   N     0.39601   0.25364   0.98786   0.00000  Uiso   1.00
N184   N     0.37773   0.93252   0.18192   0.00000  Uiso   1.00
