data_job_01028
_audit_creation_date              2018-12-19
_audit_creation_method            'Materials Studio'
_symmetry_space_group_name_H-M    'P1'
_symmetry_Int_Tables_number       1
_symmetry_cell_setting            triclinic
loop_
_symmetry_equiv_pos_as_xyz
  x,y,z
_cell_length_a                    20.6964
_cell_length_b                    10.3230
_cell_length_c                    12.3779
_cell_angle_alpha                 90.0000
_cell_angle_beta                  90.0000
_cell_angle_gamma                 90.0000
loop_
_atom_site_label
_atom_site_type_symbol
_atom_site_fract_x
_atom_site_fract_y
_atom_site_fract_z
_atom_site_U_iso_or_equiv
_atom_site_adp_type
_atom_site_occupancy
C1     C     0.11965   0.87980   0.10644   0.00000  Uiso   1.00
C2     C     0.09042   0.82453   0.20970   0.00000  Uiso   1.00
C3     C     0.04069   0.87990   0.26907   0.00000  Uiso   1.00
C4     C     0.02080   0.81429   0.36116   0.00000  Uiso   1.00
C5     C     0.97104   0.74627   0.51674   0.00000  Uiso   1.00
C6     C     0.19186   0.89358   0.12813   0.00000  Uiso   1.00
C7     C     0.22743   0.00701   0.11890   0.00000  Uiso   1.00
C8     C     0.29293   0.99952   0.14232   0.00000  Uiso   1.00
C9     C     0.40066   0.03869   0.17118   0.00000  Uiso   1.00
C10    C     0.11307   0.77395   0.02121   0.00000  Uiso   1.00
C11    C     0.08242   0.78681   0.92207   0.00000  Uiso   1.00
C12    C     0.08160   0.67861   0.85545   0.00000  Uiso   1.00
C13    C     0.06701   0.53204   0.71831   0.00000  Uiso   1.00
C14    C     0.17274   0.66480   0.16440   0.00000  Uiso   1.00
C15    C     0.11925   0.70775   0.24118   0.00000  Uiso   1.00
C16    C     0.09943   0.64203   0.33320   0.00000  Uiso   1.00
C17    C     0.04968   0.69730   0.39270   0.00000  Uiso   1.00
C18    C     0.22069   0.77681   0.15961   0.00000  Uiso   1.00
C19    C     0.28616   0.76914   0.18303   0.00000  Uiso   1.00
C20    C     0.32182   0.88254   0.17385   0.00000  Uiso   1.00
C21    C     0.14191   0.65717   0.05269   0.00000  Uiso   1.00
C22    C     0.14115   0.54894   0.98620   0.00000  Uiso   1.00
C23    C     0.11049   0.56162   0.88699   0.00000  Uiso   1.00
H24    H     0.09721   0.97072   0.08193   0.00000  Uiso   1.00
H25    H     0.01840   0.97028   0.24469   0.00000  Uiso   1.00
H26    H     0.20510   0.09737   0.09453   0.00000  Uiso   1.00
H27    H     0.06011   0.87719   0.89774   0.00000  Uiso   1.00
H28    H     0.94375   0.91833   0.43905   0.00000  Uiso   1.00
H29    H     0.33743   0.18628   0.12240   0.00000  Uiso   1.00
H30    H     0.03169   0.72201   0.70741   0.00000  Uiso   1.00
H31    H     0.19519   0.57388   0.18891   0.00000  Uiso   1.00
H32    H     0.12175   0.55166   0.35754   0.00000  Uiso   1.00
H33    H     0.30846   0.67876   0.20739   0.00000  Uiso   1.00
H34    H     0.16346   0.45858   0.01059   0.00000  Uiso   1.00
H35    H     0.02764   0.57856   0.53065   0.00000  Uiso   1.00
H36    H     0.42132   0.84652   0.21399   0.00000  Uiso   1.00
H37    H     0.11557   0.38225   0.79901   0.00000  Uiso   1.00
O38    O     0.93563   0.74102   0.59387   0.00000  Uiso   1.00
O39    O     0.45212   0.09256   0.17841   0.00000  Uiso   1.00
O40    O     0.05099   0.48345   0.63397   0.00000  Uiso   1.00
N41    N     0.97356   0.84140   0.43745   0.00000  Uiso   1.00
N42    N     0.34163   0.09193   0.14142   0.00000  Uiso   1.00
N43    N     0.05580   0.65788   0.75343   0.00000  Uiso   1.00
N44    N     0.01870   0.65857   0.48674   0.00000  Uiso   1.00
N45    N     0.38677   0.90910   0.19070   0.00000  Uiso   1.00
N46    N     0.10094   0.47506   0.80272   0.00000  Uiso   1.00
C47    C     0.38035   0.12020   0.60644   0.00000  Uiso   1.00
C48    C     0.40958   0.17547   0.70970   0.00000  Uiso   1.00
C49    C     0.45931   0.12010   0.76907   0.00000  Uiso   1.00
C50    C     0.47920   0.18571   0.86116   0.00000  Uiso   1.00
C51    C     0.52896   0.25373   0.01674   0.00000  Uiso   1.00
C52    C     0.30814   0.10642   0.62813   0.00000  Uiso   1.00
C53    C     0.27257   0.99299   0.61890   0.00000  Uiso   1.00
C54    C     0.20707   0.00048   0.64232   0.00000  Uiso   1.00
C55    C     0.09934   0.96131   0.67118   0.00000  Uiso   1.00
C56    C     0.38693   0.22605   0.52121   0.00000  Uiso   1.00
C57    C     0.41758   0.21319   0.42207   0.00000  Uiso   1.00
C58    C     0.41840   0.32139   0.35545   0.00000  Uiso   1.00
C59    C     0.43299   0.46796   0.21831   0.00000  Uiso   1.00
C60    C     0.32726   0.33520   0.66440   0.00000  Uiso   1.00
C61    C     0.38075   0.29225   0.74118   0.00000  Uiso   1.00
C62    C     0.40057   0.35797   0.83320   0.00000  Uiso   1.00
C63    C     0.45032   0.30270   0.89270   0.00000  Uiso   1.00
C64    C     0.27931   0.22319   0.65961   0.00000  Uiso   1.00
C65    C     0.21384   0.23086   0.68303   0.00000  Uiso   1.00
C66    C     0.17818   0.11746   0.67385   0.00000  Uiso   1.00
C67    C     0.35809   0.34283   0.55269   0.00000  Uiso   1.00
C68    C     0.35885   0.45106   0.48620   0.00000  Uiso   1.00
C69    C     0.38951   0.43838   0.38699   0.00000  Uiso   1.00
H70    H     0.40279   0.02928   0.58193   0.00000  Uiso   1.00
H71    H     0.48160   0.02972   0.74469   0.00000  Uiso   1.00
H72    H     0.29490   0.90263   0.59453   0.00000  Uiso   1.00
H73    H     0.43989   0.12281   0.39774   0.00000  Uiso   1.00
H74    H     0.55625   0.08167   0.93905   0.00000  Uiso   1.00
H75    H     0.16257   0.81372   0.62240   0.00000  Uiso   1.00
H76    H     0.46831   0.27799   0.20741   0.00000  Uiso   1.00
H77    H     0.30481   0.42612   0.68891   0.00000  Uiso   1.00
H78    H     0.37825   0.44834   0.85754   0.00000  Uiso   1.00
H79    H     0.19154   0.32124   0.70739   0.00000  Uiso   1.00
H80    H     0.33654   0.54142   0.51059   0.00000  Uiso   1.00
H81    H     0.47236   0.42144   0.03065   0.00000  Uiso   1.00
H82    H     0.07868   0.15348   0.71399   0.00000  Uiso   1.00
H83    H     0.38443   0.61775   0.29901   0.00000  Uiso   1.00
O84    O     0.56437   0.25898   0.09387   0.00000  Uiso   1.00
O85    O     0.04788   0.90744   0.67841   0.00000  Uiso   1.00
O86    O     0.44901   0.51655   0.13397   0.00000  Uiso   1.00
N87    N     0.52644   0.15860   0.93745   0.00000  Uiso   1.00
N88    N     0.15837   0.90807   0.64142   0.00000  Uiso   1.00
N89    N     0.44420   0.34212   0.25343   0.00000  Uiso   1.00
N90    N     0.48130   0.34143   0.98674   0.00000  Uiso   1.00
N91    N     0.11323   0.09090   0.69070   0.00000  Uiso   1.00
N92    N     0.39906   0.52494   0.30272   0.00000  Uiso   1.00
C93    C     0.88035   0.37980   0.39356   0.00000  Uiso   1.00
C94    C     0.90958   0.32453   0.29030   0.00000  Uiso   1.00
C95    C     0.95931   0.37990   0.23093   0.00000  Uiso   1.00
C96    C     0.97920   0.31429   0.13884   0.00000  Uiso   1.00
C97    C     0.02896   0.24627   0.98326   0.00000  Uiso   1.00
C98    C     0.80814   0.39358   0.37187   0.00000  Uiso   1.00
C99    C     0.77257   0.50701   0.38110   0.00000  Uiso   1.00
C100   C     0.70707   0.49952   0.35768   0.00000  Uiso   1.00
C101   C     0.59934   0.53869   0.32882   0.00000  Uiso   1.00
C102   C     0.88693   0.27395   0.47879   0.00000  Uiso   1.00
C103   C     0.91758   0.28681   0.57793   0.00000  Uiso   1.00
C104   C     0.91840   0.17861   0.64455   0.00000  Uiso   1.00
C105   C     0.93299   0.03204   0.78169   0.00000  Uiso   1.00
C106   C     0.82726   0.16480   0.33560   0.00000  Uiso   1.00
C107   C     0.88075   0.20775   0.25882   0.00000  Uiso   1.00
C108   C     0.90057   0.14203   0.16680   0.00000  Uiso   1.00
C109   C     0.95032   0.19730   0.10730   0.00000  Uiso   1.00
C110   C     0.77931   0.27681   0.34039   0.00000  Uiso   1.00
C111   C     0.71384   0.26914   0.31697   0.00000  Uiso   1.00
C112   C     0.67818   0.38254   0.32615   0.00000  Uiso   1.00
C113   C     0.85809   0.15717   0.44731   0.00000  Uiso   1.00
C114   C     0.85885   0.04894   0.51380   0.00000  Uiso   1.00
C115   C     0.88951   0.06162   0.61301   0.00000  Uiso   1.00
H116   H     0.90279   0.47072   0.41807   0.00000  Uiso   1.00
H117   H     0.98160   0.47028   0.25531   0.00000  Uiso   1.00
H118   H     0.79490   0.59737   0.40547   0.00000  Uiso   1.00
H119   H     0.93989   0.37719   0.60226   0.00000  Uiso   1.00
H120   H     0.05625   0.41833   0.06095   0.00000  Uiso   1.00
H121   H     0.66257   0.68628   0.37760   0.00000  Uiso   1.00
H122   H     0.96831   0.22201   0.79259   0.00000  Uiso   1.00
H123   H     0.80481   0.07388   0.31109   0.00000  Uiso   1.00
H124   H     0.87825   0.05166   0.14246   0.00000  Uiso   1.00
H125   H     0.69154   0.17876   0.29261   0.00000  Uiso   1.00
H126   H     0.83654   0.95858   0.48941   0.00000  Uiso   1.00
H127   H     0.97236   0.07856   0.96935   0.00000  Uiso   1.00
H128   H     0.57868   0.34652   0.28601   0.00000  Uiso   1.00
H129   H     0.88443   0.88225   0.70099   0.00000  Uiso   1.00
O130   O     0.06437   0.24102   0.90613   0.00000  Uiso   1.00
O131   O     0.54788   0.59256   0.32159   0.00000  Uiso   1.00
O132   O     0.94901   0.98345   0.86603   0.00000  Uiso   1.00
N133   N     0.02644   0.34140   0.06255   0.00000  Uiso   1.00
N134   N     0.65837   0.59193   0.35858   0.00000  Uiso   1.00
N135   N     0.94420   0.15788   0.74657   0.00000  Uiso   1.00
N136   N     0.98130   0.15857   0.01326   0.00000  Uiso   1.00
N137   N     0.61323   0.40910   0.30930   0.00000  Uiso   1.00
N138   N     0.89906   0.97506   0.69728   0.00000  Uiso   1.00
C139   C     0.61965   0.62020   0.89356   0.00000  Uiso   1.00
C140   C     0.59042   0.67547   0.79030   0.00000  Uiso   1.00
C141   C     0.54069   0.62010   0.73093   0.00000  Uiso   1.00
C142   C     0.52080   0.68571   0.63884   0.00000  Uiso   1.00
C143   C     0.47104   0.75373   0.48326   0.00000  Uiso   1.00
C144   C     0.69186   0.60642   0.87187   0.00000  Uiso   1.00
C145   C     0.72743   0.49299   0.88110   0.00000  Uiso   1.00
C146   C     0.79293   0.50048   0.85768   0.00000  Uiso   1.00
C147   C     0.90066   0.46131   0.82882   0.00000  Uiso   1.00
C148   C     0.61307   0.72605   0.97879   0.00000  Uiso   1.00
C149   C     0.58242   0.71319   0.07793   0.00000  Uiso   1.00
C150   C     0.58160   0.82139   0.14455   0.00000  Uiso   1.00
C151   C     0.56701   0.96796   0.28169   0.00000  Uiso   1.00
C152   C     0.67274   0.83520   0.83560   0.00000  Uiso   1.00
C153   C     0.61925   0.79225   0.75882   0.00000  Uiso   1.00
C154   C     0.59943   0.85797   0.66680   0.00000  Uiso   1.00
C155   C     0.54968   0.80270   0.60730   0.00000  Uiso   1.00
C156   C     0.72069   0.72319   0.84039   0.00000  Uiso   1.00
C157   C     0.78616   0.73086   0.81697   0.00000  Uiso   1.00
C158   C     0.82182   0.61746   0.82615   0.00000  Uiso   1.00
C159   C     0.64191   0.84283   0.94731   0.00000  Uiso   1.00
C160   C     0.64115   0.95106   0.01380   0.00000  Uiso   1.00
C161   C     0.61049   0.93838   0.11301   0.00000  Uiso   1.00
H162   H     0.59721   0.52928   0.91807   0.00000  Uiso   1.00
H163   H     0.51840   0.52972   0.75531   0.00000  Uiso   1.00
H164   H     0.70510   0.40263   0.90547   0.00000  Uiso   1.00
H165   H     0.56011   0.62281   0.10226   0.00000  Uiso   1.00
H166   H     0.44375   0.58167   0.56095   0.00000  Uiso   1.00
H167   H     0.83743   0.31372   0.87760   0.00000  Uiso   1.00
H168   H     0.53169   0.77799   0.29259   0.00000  Uiso   1.00
H169   H     0.69519   0.92612   0.81109   0.00000  Uiso   1.00
H170   H     0.62175   0.94834   0.64246   0.00000  Uiso   1.00
H171   H     0.80846   0.82124   0.79261   0.00000  Uiso   1.00
H172   H     0.66346   0.04142   0.98941   0.00000  Uiso   1.00
H173   H     0.52764   0.92144   0.46935   0.00000  Uiso   1.00
H174   H     0.92132   0.65348   0.78601   0.00000  Uiso   1.00
H175   H     0.61557   0.11775   0.20099   0.00000  Uiso   1.00
O176   O     0.43563   0.75898   0.40613   0.00000  Uiso   1.00
O177   O     0.95212   0.40744   0.82159   0.00000  Uiso   1.00
O178   O     0.55099   0.01655   0.36603   0.00000  Uiso   1.00
N179   N     0.47356   0.65860   0.56255   0.00000  Uiso   1.00
N180   N     0.84163   0.40807   0.85858   0.00000  Uiso   1.00
N181   N     0.55580   0.84212   0.24657   0.00000  Uiso   1.00
N182   N     0.51870   0.84143   0.51326   0.00000  Uiso   1.00
N183   N     0.88677   0.59090   0.80930   0.00000  Uiso   1.00
N184   N     0.60094   0.02494   0.19728   0.00000  Uiso   1.00
