data_job_02110
_audit_creation_date              2018-12-19
_audit_creation_method            'Materials Studio'
_symmetry_space_group_name_H-M    'P1'
_symmetry_Int_Tables_number       1
_symmetry_cell_setting            triclinic
loop_
_symmetry_equiv_pos_as_xyz
  x,y,z
_cell_length_a                    11.1821
_cell_length_b                    12.0903
_cell_length_c                    22.8184
_cell_angle_alpha                 90.0000
_cell_angle_beta                  112.2840
_cell_angle_gamma                 90.0000
loop_
_atom_site_label
_atom_site_type_symbol
_atom_site_fract_x
_atom_site_fract_y
_atom_site_fract_z
_atom_site_U_iso_or_equiv
_atom_site_adp_type
_atom_site_occupancy
C1     C     0.94158   0.25485   0.30277   0.00000  Uiso   1.00
C2     C     0.91585   0.34323   0.34422   0.00000  Uiso   1.00
C3     C     0.97171   0.44753   0.35637   0.00000  Uiso   1.00
C4     C     0.93553   0.51630   0.39553   0.00000  Uiso   1.00
C5     C     0.90913   0.65873   0.45595   0.00000  Uiso   1.00
C6     C     0.98663   0.15258   0.34450   0.00000  Uiso   1.00
C7     C     0.10201   0.09659   0.35687   0.00000  Uiso   1.00
C8     C     0.12541   0.00487   0.39626   0.00000  Uiso   1.00
C9     C     0.20887   0.85128   0.45708   0.00000  Uiso   1.00
C10    C     0.81018   0.22533   0.25246   0.00000  Uiso   1.00
C11    C     0.77718   0.23047   0.18744   0.00000  Uiso   1.00
C12    C     0.65202   0.19997   0.14934   0.00000  Uiso   1.00
C13    C     0.46150   0.15934   0.06725   0.00000  Uiso   1.00
C14    C     0.77799   0.19151   0.35072   0.00000  Uiso   1.00
C15    C     0.82699   0.30882   0.37027   0.00000  Uiso   1.00
C16    C     0.79071   0.37745   0.40942   0.00000  Uiso   1.00
C17    C     0.84651   0.48183   0.42162   0.00000  Uiso   1.00
C18    C     0.89778   0.11818   0.37054   0.00000  Uiso   1.00
C19    C     0.92101   0.02651   0.40992   0.00000  Uiso   1.00
C20    C     0.03639   0.97040   0.42235   0.00000  Uiso   1.00
C21    C     0.72132   0.19093   0.27850   0.00000  Uiso   1.00
C22    C     0.59619   0.16040   0.24049   0.00000  Uiso   1.00
C23    C     0.56301   0.16550   0.17543   0.00000  Uiso   1.00
H24    H     0.01077   0.28163   0.28250   0.00000  Uiso   1.00
H25    H     0.04048   0.47412   0.33621   0.00000  Uiso   1.00
H26    H     0.17074   0.12323   0.33671   0.00000  Uiso   1.00
H27    H     0.84597   0.25710   0.16730   0.00000  Uiso   1.00
H28    H     0.03427   0.67234   0.40726   0.00000  Uiso   1.00
H29    H     0.30892   0.93245   0.40829   0.00000  Uiso   1.00
H30    H     0.62408   0.21474   0.05107   0.00000  Uiso   1.00
H31    H     0.70881   0.16472   0.37100   0.00000  Uiso   1.00
H32    H     0.72195   0.35080   0.42956   0.00000  Uiso   1.00
H33    H     0.85223   0.99991   0.43006   0.00000  Uiso   1.00
H34    H     0.52745   0.13378   0.26066   0.00000  Uiso   1.00
H35    H     0.77574   0.57225   0.48303   0.00000  Uiso   1.00
H36    H     0.05040   0.83235   0.48406   0.00000  Uiso   1.00
H37    H     0.36555   0.11465   0.12685   0.00000  Uiso   1.00
O38    O     0.91913   0.74680   0.48209   0.00000  Uiso   1.00
O39    O     0.27946   0.77608   0.48344   0.00000  Uiso   1.00
O40    O     0.38095   0.14645   0.01478   0.00000  Uiso   1.00
N41    N     0.97160   0.62326   0.41704   0.00000  Uiso   1.00
N42    N     0.22840   0.93151   0.41802   0.00000  Uiso   1.00
N43    N     0.58813   0.19540   0.08405   0.00000  Uiso   1.00
N44    N     0.83249   0.56940   0.45782   0.00000  Uiso   1.00
N45    N     0.08929   0.87765   0.45879   0.00000  Uiso   1.00
N46    N     0.44902   0.14154   0.12482   0.00000  Uiso   1.00
C47    C     0.05842   0.75485   0.19723   0.00000  Uiso   1.00
C48    C     0.08415   0.84323   0.15578   0.00000  Uiso   1.00
C49    C     0.02829   0.94753   0.14363   0.00000  Uiso   1.00
C50    C     0.06447   0.01630   0.10447   0.00000  Uiso   1.00
C51    C     0.09087   0.15873   0.04405   0.00000  Uiso   1.00
C52    C     0.01337   0.65258   0.15550   0.00000  Uiso   1.00
C53    C     0.89799   0.59659   0.14313   0.00000  Uiso   1.00
C54    C     0.87459   0.50487   0.10374   0.00000  Uiso   1.00
C55    C     0.79113   0.35128   0.04292   0.00000  Uiso   1.00
C56    C     0.18982   0.72533   0.24754   0.00000  Uiso   1.00
C57    C     0.22282   0.73047   0.31256   0.00000  Uiso   1.00
C58    C     0.34798   0.69997   0.35066   0.00000  Uiso   1.00
C59    C     0.53850   0.65934   0.43275   0.00000  Uiso   1.00
C60    C     0.22201   0.69151   0.14928   0.00000  Uiso   1.00
C61    C     0.17301   0.80882   0.12973   0.00000  Uiso   1.00
C62    C     0.20929   0.87745   0.09058   0.00000  Uiso   1.00
C63    C     0.15349   0.98183   0.07838   0.00000  Uiso   1.00
C64    C     0.10222   0.61818   0.12946   0.00000  Uiso   1.00
C65    C     0.07899   0.52651   0.09008   0.00000  Uiso   1.00
C66    C     0.96361   0.47040   0.07765   0.00000  Uiso   1.00
C67    C     0.27868   0.69093   0.22150   0.00000  Uiso   1.00
C68    C     0.40381   0.66040   0.25951   0.00000  Uiso   1.00
C69    C     0.43699   0.66550   0.32457   0.00000  Uiso   1.00
H70    H     0.98923   0.78163   0.21750   0.00000  Uiso   1.00
H71    H     0.95952   0.97412   0.16379   0.00000  Uiso   1.00
H72    H     0.82926   0.62323   0.16329   0.00000  Uiso   1.00
H73    H     0.15403   0.75710   0.33270   0.00000  Uiso   1.00
H74    H     0.96573   0.17234   0.09274   0.00000  Uiso   1.00
H75    H     0.69108   0.43245   0.09171   0.00000  Uiso   1.00
H76    H     0.37592   0.71474   0.44893   0.00000  Uiso   1.00
H77    H     0.29119   0.66472   0.12900   0.00000  Uiso   1.00
H78    H     0.27805   0.85080   0.07044   0.00000  Uiso   1.00
H79    H     0.14777   0.49991   0.06994   0.00000  Uiso   1.00
H80    H     0.47255   0.63378   0.23934   0.00000  Uiso   1.00
H81    H     0.22426   0.07225   0.01697   0.00000  Uiso   1.00
H82    H     0.94960   0.33235   0.01594   0.00000  Uiso   1.00
H83    H     0.63445   0.61465   0.37315   0.00000  Uiso   1.00
O84    O     0.08087   0.24680   0.01791   0.00000  Uiso   1.00
O85    O     0.72054   0.27608   0.01656   0.00000  Uiso   1.00
O86    O     0.61905   0.64645   0.48522   0.00000  Uiso   1.00
N87    N     0.02840   0.12326   0.08296   0.00000  Uiso   1.00
N88    N     0.77160   0.43151   0.08198   0.00000  Uiso   1.00
N89    N     0.41187   0.69540   0.41595   0.00000  Uiso   1.00
N90    N     0.16751   0.06940   0.04218   0.00000  Uiso   1.00
N91    N     0.91071   0.37765   0.04121   0.00000  Uiso   1.00
N92    N     0.55098   0.64154   0.37518   0.00000  Uiso   1.00
C93    C     0.05842   0.74515   0.69723   0.00000  Uiso   1.00
C94    C     0.08415   0.65677   0.65578   0.00000  Uiso   1.00
C95    C     0.02829   0.55247   0.64363   0.00000  Uiso   1.00
C96    C     0.06447   0.48370   0.60447   0.00000  Uiso   1.00
C97    C     0.09087   0.34127   0.54405   0.00000  Uiso   1.00
C98    C     0.01337   0.84742   0.65550   0.00000  Uiso   1.00
C99    C     0.89799   0.90341   0.64313   0.00000  Uiso   1.00
C100   C     0.87459   0.99513   0.60374   0.00000  Uiso   1.00
C101   C     0.79113   0.14872   0.54292   0.00000  Uiso   1.00
C102   C     0.18982   0.77467   0.74754   0.00000  Uiso   1.00
C103   C     0.22282   0.76953   0.81256   0.00000  Uiso   1.00
C104   C     0.34798   0.80003   0.85066   0.00000  Uiso   1.00
C105   C     0.53850   0.84066   0.93275   0.00000  Uiso   1.00
C106   C     0.22201   0.80849   0.64928   0.00000  Uiso   1.00
C107   C     0.17301   0.69118   0.62973   0.00000  Uiso   1.00
C108   C     0.20929   0.62255   0.59058   0.00000  Uiso   1.00
C109   C     0.15349   0.51817   0.57838   0.00000  Uiso   1.00
C110   C     0.10222   0.88182   0.62946   0.00000  Uiso   1.00
C111   C     0.07899   0.97349   0.59008   0.00000  Uiso   1.00
C112   C     0.96361   0.02960   0.57765   0.00000  Uiso   1.00
C113   C     0.27868   0.80907   0.72150   0.00000  Uiso   1.00
C114   C     0.40381   0.83960   0.75951   0.00000  Uiso   1.00
C115   C     0.43699   0.83450   0.82457   0.00000  Uiso   1.00
H116   H     0.98923   0.71837   0.71750   0.00000  Uiso   1.00
H117   H     0.95952   0.52588   0.66379   0.00000  Uiso   1.00
H118   H     0.82926   0.87677   0.66329   0.00000  Uiso   1.00
H119   H     0.15403   0.74290   0.83270   0.00000  Uiso   1.00
H120   H     0.96573   0.32766   0.59274   0.00000  Uiso   1.00
H121   H     0.69108   0.06755   0.59171   0.00000  Uiso   1.00
H122   H     0.37592   0.78526   0.94893   0.00000  Uiso   1.00
H123   H     0.29119   0.83528   0.62900   0.00000  Uiso   1.00
H124   H     0.27805   0.64920   0.57044   0.00000  Uiso   1.00
H125   H     0.14777   0.00009   0.56994   0.00000  Uiso   1.00
H126   H     0.47255   0.86622   0.73934   0.00000  Uiso   1.00
H127   H     0.22426   0.42775   0.51697   0.00000  Uiso   1.00
H128   H     0.94960   0.16765   0.51594   0.00000  Uiso   1.00
H129   H     0.63445   0.88535   0.87315   0.00000  Uiso   1.00
O130   O     0.08087   0.25320   0.51791   0.00000  Uiso   1.00
O131   O     0.72054   0.22392   0.51656   0.00000  Uiso   1.00
O132   O     0.61905   0.85355   0.98522   0.00000  Uiso   1.00
N133   N     0.02840   0.37674   0.58296   0.00000  Uiso   1.00
N134   N     0.77160   0.06849   0.58198   0.00000  Uiso   1.00
N135   N     0.41187   0.80460   0.91595   0.00000  Uiso   1.00
N136   N     0.16751   0.43060   0.54218   0.00000  Uiso   1.00
N137   N     0.91071   0.12235   0.54121   0.00000  Uiso   1.00
N138   N     0.55098   0.85846   0.87518   0.00000  Uiso   1.00
C139   C     0.94158   0.24515   0.80277   0.00000  Uiso   1.00
C140   C     0.91585   0.15677   0.84422   0.00000  Uiso   1.00
C141   C     0.97171   0.05247   0.85637   0.00000  Uiso   1.00
C142   C     0.93553   0.98370   0.89553   0.00000  Uiso   1.00
C143   C     0.90913   0.84127   0.95595   0.00000  Uiso   1.00
C144   C     0.98663   0.34742   0.84450   0.00000  Uiso   1.00
C145   C     0.10201   0.40341   0.85687   0.00000  Uiso   1.00
C146   C     0.12541   0.49513   0.89626   0.00000  Uiso   1.00
C147   C     0.20887   0.64872   0.95708   0.00000  Uiso   1.00
C148   C     0.81018   0.27467   0.75246   0.00000  Uiso   1.00
C149   C     0.77718   0.26953   0.68744   0.00000  Uiso   1.00
C150   C     0.65202   0.30003   0.64934   0.00000  Uiso   1.00
C151   C     0.46150   0.34066   0.56725   0.00000  Uiso   1.00
C152   C     0.77799   0.30849   0.85072   0.00000  Uiso   1.00
C153   C     0.82699   0.19118   0.87027   0.00000  Uiso   1.00
C154   C     0.79071   0.12255   0.90942   0.00000  Uiso   1.00
C155   C     0.84651   0.01817   0.92162   0.00000  Uiso   1.00
C156   C     0.89778   0.38182   0.87054   0.00000  Uiso   1.00
C157   C     0.92101   0.47349   0.90992   0.00000  Uiso   1.00
C158   C     0.03639   0.52960   0.92235   0.00000  Uiso   1.00
C159   C     0.72132   0.30907   0.77850   0.00000  Uiso   1.00
C160   C     0.59619   0.33960   0.74049   0.00000  Uiso   1.00
C161   C     0.56301   0.33450   0.67543   0.00000  Uiso   1.00
H162   H     0.01077   0.21837   0.78250   0.00000  Uiso   1.00
H163   H     0.04048   0.02588   0.83621   0.00000  Uiso   1.00
H164   H     0.17074   0.37677   0.83671   0.00000  Uiso   1.00
H165   H     0.84597   0.24290   0.66730   0.00000  Uiso   1.00
H166   H     0.03427   0.82766   0.90726   0.00000  Uiso   1.00
H167   H     0.30892   0.56755   0.90829   0.00000  Uiso   1.00
H168   H     0.62408   0.28526   0.55107   0.00000  Uiso   1.00
H169   H     0.70881   0.33528   0.87100   0.00000  Uiso   1.00
H170   H     0.72195   0.14920   0.92956   0.00000  Uiso   1.00
H171   H     0.85223   0.50009   0.93006   0.00000  Uiso   1.00
H172   H     0.52745   0.36622   0.76066   0.00000  Uiso   1.00
H173   H     0.77574   0.92775   0.98303   0.00000  Uiso   1.00
H174   H     0.05040   0.66765   0.98406   0.00000  Uiso   1.00
H175   H     0.36555   0.38535   0.62685   0.00000  Uiso   1.00
O176   O     0.91913   0.75320   0.98209   0.00000  Uiso   1.00
O177   O     0.27946   0.72392   0.98344   0.00000  Uiso   1.00
O178   O     0.38095   0.35355   0.51478   0.00000  Uiso   1.00
N179   N     0.97160   0.87674   0.91704   0.00000  Uiso   1.00
N180   N     0.22840   0.56849   0.91802   0.00000  Uiso   1.00
N181   N     0.58813   0.30460   0.58405   0.00000  Uiso   1.00
N182   N     0.83249   0.93060   0.95782   0.00000  Uiso   1.00
N183   N     0.08929   0.62235   0.95879   0.00000  Uiso   1.00
N184   N     0.44902   0.35846   0.62482   0.00000  Uiso   1.00
