data_job_06764
_audit_creation_date              2018-12-19
_audit_creation_method            'Materials Studio'
_symmetry_space_group_name_H-M    'P1'
_symmetry_Int_Tables_number       1
_symmetry_cell_setting            triclinic
loop_
_symmetry_equiv_pos_as_xyz
  x,y,z
_cell_length_a                    17.8879
_cell_length_b                    23.5727
_cell_length_c                    24.6172
_cell_angle_alpha                 75.8123
_cell_angle_beta                  111.1580
_cell_angle_gamma                 111.7731
loop_
_atom_site_label
_atom_site_type_symbol
_atom_site_fract_x
_atom_site_fract_y
_atom_site_fract_z
_atom_site_U_iso_or_equiv
_atom_site_adp_type
_atom_site_occupancy
C1     C     0.22201   0.79740   0.62035   0.00000  Uiso   1.00
C2     C     0.31118   0.82820   0.65768   0.00000  Uiso   1.00
C3     C     0.33452   0.83669   0.71606   0.00000  Uiso   1.00
C4     C     0.41926   0.86589   0.74242   0.00000  Uiso   1.00
C5     C     0.54871   0.91071   0.80508   0.00000  Uiso   1.00
C6     C     0.20216   0.84430   0.56680   0.00000  Uiso   1.00
C7     C     0.13384   0.86632   0.54877   0.00000  Uiso   1.00
C8     C     0.12681   0.90908   0.49862   0.00000  Uiso   1.00
C9     C     0.08697   0.97886   0.42016   0.00000  Uiso   1.00
C10    C     0.22738   0.74490   0.59751   0.00000  Uiso   1.00
C11    C     0.18024   0.68334   0.60529   0.00000  Uiso   1.00
C12    C     0.19443   0.64241   0.58098   0.00000  Uiso   1.00
C13    C     0.19374   0.55785   0.55021   0.00000  Uiso   1.00
C14    C     0.33100   0.83417   0.56334   0.00000  Uiso   1.00
C15    C     0.37038   0.84817   0.62671   0.00000  Uiso   1.00
C16    C     0.45511   0.87737   0.65298   0.00000  Uiso   1.00
C17    C     0.47857   0.88590   0.71140   0.00000  Uiso   1.00
C18    C     0.26136   0.86428   0.53583   0.00000  Uiso   1.00
C19    C     0.25443   0.90700   0.48569   0.00000  Uiso   1.00
C20    C     0.18612   0.92909   0.46759   0.00000  Uiso   1.00
C21    C     0.28658   0.76487   0.56654   0.00000  Uiso   1.00
C22    C     0.30084   0.72403   0.54221   0.00000  Uiso   1.00
C23    C     0.25373   0.66241   0.54996   0.00000  Uiso   1.00
H24    H     0.17592   0.78185   0.64446   0.00000  Uiso   1.00
H25    H     0.28869   0.82123   0.74001   0.00000  Uiso   1.00
H26    H     0.08803   0.85085   0.57274   0.00000  Uiso   1.00
H27    H     0.13444   0.66790   0.62925   0.00000  Uiso   1.00
H28    H     0.43981   0.87371   0.83228   0.00000  Uiso   1.00
H29    H     0.01671   0.93616   0.47957   0.00000  Uiso   1.00
H30    H     0.11455   0.55037   0.59875   0.00000  Uiso   1.00
H31    H     0.37709   0.84972   0.53922   0.00000  Uiso   1.00
H32    H     0.50091   0.89282   0.62901   0.00000  Uiso   1.00
H33    H     0.30025   0.92245   0.46173   0.00000  Uiso   1.00
H34    H     0.34665   0.73950   0.51825   0.00000  Uiso   1.00
H35    H     0.61206   0.93182   0.74219   0.00000  Uiso   1.00
H36    H     0.18895   0.99427   0.38947   0.00000  Uiso   1.00
H37    H     0.28680   0.60848   0.50865   0.00000  Uiso   1.00
O38    O     0.60375   0.92991   0.84819   0.00000  Uiso   1.00
O39    O     0.04864   0.01183   0.38544   0.00000  Uiso   1.00
O40    O     0.17702   0.50569   0.54180   0.00000  Uiso   1.00
N41    N     0.46336   0.88146   0.79876   0.00000  Uiso   1.00
N42    N     0.06779   0.93986   0.46900   0.00000  Uiso   1.00
N43    N     0.15925   0.57918   0.58041   0.00000  Uiso   1.00
N44    N     0.55605   0.91273   0.75028   0.00000  Uiso   1.00
N45    N     0.16048   0.97112   0.42052   0.00000  Uiso   1.00
N46    N     0.25194   0.61045   0.53193   0.00000  Uiso   1.00
C47    C     0.78883   0.78236   0.71651   0.00000  Uiso   1.00
C48    C     0.75554   0.71555   0.74233   0.00000  Uiso   1.00
C49    C     0.79871   0.67267   0.76074   0.00000  Uiso   1.00
C50    C     0.75734   0.61393   0.78308   0.00000  Uiso   1.00
C51    C     0.71805   0.51251   0.82257   0.00000  Uiso   1.00
C52    C     0.72451   0.79076   0.65688   0.00000  Uiso   1.00
C53    C     0.74159   0.81112   0.60344   0.00000  Uiso   1.00
C54    C     0.67410   0.81570   0.55385   0.00000  Uiso   1.00
C55    C     0.58664   0.83108   0.46067   0.00000  Uiso   1.00
C56    C     0.78347   0.82155   0.75508   0.00000  Uiso   1.00
C57    C     0.85013   0.86780   0.78421   0.00000  Uiso   1.00
C58    C     0.83227   0.89830   0.81729   0.00000  Uiso   1.00
C59    C     0.83637   0.96148   0.87660   0.00000  Uiso   1.00
C60    C     0.63858   0.75432   0.72346   0.00000  Uiso   1.00
C61    C     0.67393   0.70032   0.74610   0.00000  Uiso   1.00
C62    C     0.63248   0.64164   0.76843   0.00000  Uiso   1.00
C63    C     0.67559   0.59867   0.78687   0.00000  Uiso   1.00
C64    C     0.64290   0.77553   0.66065   0.00000  Uiso   1.00
C65    C     0.57536   0.78009   0.61112   0.00000  Uiso   1.00
C66    C     0.59234   0.80044   0.55763   0.00000  Uiso   1.00
C67    C     0.70186   0.80631   0.75886   0.00000  Uiso   1.00
C68    C     0.68390   0.83676   0.79190   0.00000  Uiso   1.00
C69    C     0.75052   0.88305   0.82107   0.00000  Uiso   1.00
H70    H     0.85236   0.79422   0.71357   0.00000  Uiso   1.00
H71    H     0.86186   0.68447   0.75781   0.00000  Uiso   1.00
H72    H     0.80475   0.82291   0.60053   0.00000  Uiso   1.00
H73    H     0.91327   0.87957   0.78128   0.00000  Uiso   1.00
H74    H     0.83640   0.55607   0.80850   0.00000  Uiso   1.00
H75    H     0.71599   0.84798   0.47688   0.00000  Uiso   1.00
H76    H     0.94482   0.96748   0.85801   0.00000  Uiso   1.00
H77    H     0.57504   0.74246   0.72639   0.00000  Uiso   1.00
H78    H     0.56933   0.62986   0.77134   0.00000  Uiso   1.00
H79    H     0.51222   0.76830   0.61406   0.00000  Uiso   1.00
H80    H     0.62074   0.82496   0.79481   0.00000  Uiso   1.00
H81    H     0.59896   0.51175   0.81948   0.00000  Uiso   1.00
H82    H     0.47856   0.80367   0.48786   0.00000  Uiso   1.00
H83    H     0.70739   0.92316   0.86899   0.00000  Uiso   1.00
O84    O     0.71891   0.46077   0.84330   0.00000  Uiso   1.00
O85    O     0.56095   0.84376   0.40823   0.00000  Uiso   1.00
O86    O     0.86117   0.00053   0.90827   0.00000  Uiso   1.00
N87    N     0.78131   0.56109   0.80493   0.00000  Uiso   1.00
N88    N     0.66873   0.83401   0.49488   0.00000  Uiso   1.00
N89    N     0.88266   0.94573   0.85119   0.00000  Uiso   1.00
N90    N     0.65355   0.53724   0.81083   0.00000  Uiso   1.00
N91    N     0.54097   0.81016   0.50079   0.00000  Uiso   1.00
N92    N     0.75490   0.92188   0.85710   0.00000  Uiso   1.00
C93    C     0.25921   0.22176   0.74464   0.00000  Uiso   1.00
C94    C     0.22921   0.23098   0.79154   0.00000  Uiso   1.00
C95    C     0.18199   0.18468   0.82417   0.00000  Uiso   1.00
C96    C     0.16083   0.20258   0.86493   0.00000  Uiso   1.00
C97    C     0.11037   0.20748   0.93654   0.00000  Uiso   1.00
C98    C     0.22537   0.26161   0.68883   0.00000  Uiso   1.00
C99    C     0.17493   0.24107   0.63511   0.00000  Uiso   1.00
C100   C     0.15056   0.28476   0.58940   0.00000  Uiso   1.00
C101   C     0.09419   0.33722   0.50155   0.00000  Uiso   1.00
C102   C     0.35485   0.25088   0.76337   0.00000  Uiso   1.00
C103   C     0.41330   0.22132   0.77231   0.00000  Uiso   1.00
C104   C     0.49794   0.25598   0.78935   0.00000  Uiso   1.00
C105   C     0.64262   0.29178   0.81724   0.00000  Uiso   1.00
C106   C     0.30561   0.33587   0.75899   0.00000  Uiso   1.00
C107   C     0.25441   0.29296   0.79933   0.00000  Uiso   1.00
C108   C     0.23332   0.31094   0.84005   0.00000  Uiso   1.00
C109   C     0.18608   0.26467   0.87274   0.00000  Uiso   1.00
C110   C     0.25057   0.32359   0.69663   0.00000  Uiso   1.00
C111   C     0.22627   0.36733   0.65098   0.00000  Uiso   1.00
C112   C     0.17581   0.34685   0.59720   0.00000  Uiso   1.00
C113   C     0.38006   0.31287   0.77117   0.00000  Uiso   1.00
C114   C     0.46463   0.34758   0.78819   0.00000  Uiso   1.00
C115   C     0.52319   0.31808   0.79715   0.00000  Uiso   1.00
H116   H     0.23959   0.17350   0.73857   0.00000  Uiso   1.00
H117   H     0.16249   0.13672   0.81812   0.00000  Uiso   1.00
H118   H     0.15545   0.19310   0.62909   0.00000  Uiso   1.00
H119   H     0.39377   0.17336   0.76627   0.00000  Uiso   1.00
H120   H     0.08810   0.12328   0.90975   0.00000  Uiso   1.00
H121   H     0.07327   0.24216   0.51115   0.00000  Uiso   1.00
H122   H     0.57582   0.20053   0.80043   0.00000  Uiso   1.00
H123   H     0.32523   0.38413   0.76506   0.00000  Uiso   1.00
H124   H     0.25284   0.35891   0.84607   0.00000  Uiso   1.00
H125   H     0.24579   0.41529   0.65703   0.00000  Uiso   1.00
H126   H     0.48411   0.39554   0.79422   0.00000  Uiso   1.00
H127   H     0.16142   0.30361   0.93243   0.00000  Uiso   1.00
H128   H     0.14659   0.42250   0.53383   0.00000  Uiso   1.00
H129   H     0.64915   0.38086   0.82311   0.00000  Uiso   1.00
O130   O     0.07556   0.19305   0.97389   0.00000  Uiso   1.00
O131   O     0.05612   0.34903   0.45094   0.00000  Uiso   1.00
O132   O     0.71546   0.29440   0.83047   0.00000  Uiso   1.00
N133   N     0.11531   0.16918   0.90398   0.00000  Uiso   1.00
N134   N     0.10143   0.28033   0.53131   0.00000  Uiso   1.00
N135   N     0.57127   0.24141   0.80175   0.00000  Uiso   1.00
N136   N     0.15476   0.26622   0.91618   0.00000  Uiso   1.00
N137   N     0.14088   0.37737   0.54352   0.00000  Uiso   1.00
N138   N     0.61073   0.33845   0.81396   0.00000  Uiso   1.00
C139   C     0.26739   0.22969   0.25478   0.00000  Uiso   1.00
C140   C     0.36195   0.26192   0.27783   0.00000  Uiso   1.00
C141   C     0.42501   0.23548   0.29088   0.00000  Uiso   1.00
C142   C     0.50770   0.27265   0.31146   0.00000  Uiso   1.00
C143   C     0.65167   0.31336   0.34611   0.00000  Uiso   1.00
C144   C     0.23538   0.26859   0.19760   0.00000  Uiso   1.00
C145   C     0.19201   0.24776   0.14320   0.00000  Uiso   1.00
C146   C     0.16815   0.29055   0.09624   0.00000  Uiso   1.00
C147   C     0.11556   0.34162   0.00634   0.00000  Uiso   1.00
C148   C     0.22863   0.23602   0.29805   0.00000  Uiso   1.00
C149   C     0.17956   0.18780   0.32810   0.00000  Uiso   1.00
C150   C     0.15000   0.20318   0.36570   0.00000  Uiso   1.00
C151   C     0.08693   0.20367   0.43178   0.00000  Uiso   1.00
C152   C     0.30211   0.34273   0.26811   0.00000  Uiso   1.00
C153   C     0.38081   0.32332   0.28506   0.00000  Uiso   1.00
C154   C     0.46343   0.36054   0.30563   0.00000  Uiso   1.00
C155   C     0.52660   0.33416   0.31871   0.00000  Uiso   1.00
C156   C     0.25424   0.32999   0.20483   0.00000  Uiso   1.00
C157   C     0.23043   0.37283   0.15794   0.00000  Uiso   1.00
C158   C     0.18705   0.35206   0.10349   0.00000  Uiso   1.00
C159   C     0.24749   0.29742   0.30529   0.00000  Uiso   1.00
C160   C     0.21799   0.31287   0.34285   0.00000  Uiso   1.00
C161   C     0.16890   0.26469   0.37296   0.00000  Uiso   1.00
H162   H     0.25270   0.18189   0.24914   0.00000  Uiso   1.00
H163   H     0.41038   0.18796   0.28527   0.00000  Uiso   1.00
H164   H     0.17742   0.20024   0.13761   0.00000  Uiso   1.00
H165   H     0.16498   0.14030   0.32249   0.00000  Uiso   1.00
H166   H     0.59353   0.22177   0.32849   0.00000  Uiso   1.00
H167   H     0.10228   0.24766   0.01715   0.00000  Uiso   1.00
H168   H     0.07605   0.12126   0.40700   0.00000  Uiso   1.00
H169   H     0.31680   0.39054   0.27374   0.00000  Uiso   1.00
H170   H     0.47801   0.40806   0.31122   0.00000  Uiso   1.00
H171   H     0.24504   0.42034   0.16356   0.00000  Uiso   1.00
H172   H     0.23260   0.36039   0.34844   0.00000  Uiso   1.00
H173   H     0.64841   0.40041   0.34956   0.00000  Uiso   1.00
H174   H     0.15716   0.42630   0.03821   0.00000  Uiso   1.00
H175   H     0.13093   0.29990   0.42806   0.00000  Uiso   1.00
O176   O     0.72586   0.31886   0.36322   0.00000  Uiso   1.00
O177   O     0.08135   0.35282   0.95475   0.00000  Uiso   1.00
O178   O     0.04694   0.18698   0.46623   0.00000  Uiso   1.00
N179   N     0.58432   0.26141   0.32832   0.00000  Uiso   1.00
N180   N     0.12504   0.28562   0.03723   0.00000  Uiso   1.00
N181   N     0.10050   0.16744   0.40169   0.00000  Uiso   1.00
N182   N     0.61385   0.35753   0.33965   0.00000  Uiso   1.00
N183   N     0.15458   0.38174   0.04857   0.00000  Uiso   1.00
N184   N     0.13003   0.26356   0.41303   0.00000  Uiso   1.00
C185   C     0.81012   0.78700   0.25436   0.00000  Uiso   1.00
C186   C     0.79905   0.83287   0.28274   0.00000  Uiso   1.00
C187   C     0.86363   0.87962   0.31250   0.00000  Uiso   1.00
C188   C     0.84046   0.91671   0.33528   0.00000  Uiso   1.00
C189   C     0.83616   0.98937   0.38035   0.00000  Uiso   1.00
C190   C     0.75730   0.79310   0.19011   0.00000  Uiso   1.00
C191   C     0.78678   0.80640   0.14199   0.00000  Uiso   1.00
C192   C     0.72846   0.81001   0.08679   0.00000  Uiso   1.00
C193   C     0.65933   0.82089   0.98805   0.00000  Uiso   1.00
C194   C     0.76710   0.72321   0.28168   0.00000  Uiso   1.00
C195   C     0.80481   0.67774   0.31054   0.00000  Uiso   1.00
C196   C     0.75473   0.62249   0.33243   0.00000  Uiso   1.00
C197   C     0.70082   0.52485   0.37587   0.00000  Uiso   1.00
C198   C     0.65412   0.76974   0.24190   0.00000  Uiso   1.00
C199   C     0.71432   0.82349   0.27597   0.00000  Uiso   1.00
C200   C     0.69104   0.86052   0.29872   0.00000  Uiso   1.00
C201   C     0.75558   0.90731   0.32850   0.00000  Uiso   1.00
C202   C     0.67257   0.78373   0.18334   0.00000  Uiso   1.00
C203   C     0.61419   0.78731   0.12820   0.00000  Uiso   1.00
C204   C     0.64357   0.80062   0.08001   0.00000  Uiso   1.00
C205   C     0.68237   0.71383   0.27492   0.00000  Uiso   1.00
C206   C     0.63222   0.65864   0.29676   0.00000  Uiso   1.00
C207   C     0.66985   0.61309   0.32565   0.00000  Uiso   1.00
H208   H     0.87608   0.79430   0.25962   0.00000  Uiso   1.00
H209   H     0.92920   0.88686   0.31772   0.00000  Uiso   1.00
H210   H     0.85236   0.81365   0.14724   0.00000  Uiso   1.00
H211   H     0.87038   0.68501   0.31577   0.00000  Uiso   1.00
H212   H     0.95072   0.98536   0.37913   0.00000  Uiso   1.00
H213   H     0.78868   0.83098   0.01966   0.00000  Uiso   1.00
H214   H     0.82670   0.55970   0.37503   0.00000  Uiso   1.00
H215   H     0.58815   0.76244   0.23663   0.00000  Uiso   1.00
H216   H     0.62546   0.85325   0.29347   0.00000  Uiso   1.00
H217   H     0.54862   0.78005   0.12298   0.00000  Uiso   1.00
H218   H     0.56665   0.65140   0.29151   0.00000  Uiso   1.00
H219   H     0.70420   0.95809   0.35945   0.00000  Uiso   1.00
H220   H     0.54216   0.80370   0.99997   0.00000  Uiso   1.00
H221   H     0.58018   0.53243   0.35535   0.00000  Uiso   1.00
O222   O     0.85720   0.03205   0.40708   0.00000  Uiso   1.00
O223   O     0.64461   0.82949   0.93546   0.00000  Uiso   1.00
O224   O     0.69449   0.47359   0.40171   0.00000  Uiso   1.00
N225   N     0.88758   0.96647   0.36671   0.00000  Uiso   1.00
N226   N     0.73609   0.82214   0.03062   0.00000  Uiso   1.00
N227   N     0.77163   0.56851   0.36285   0.00000  Uiso   1.00
N228   N     0.75493   0.95179   0.35612   0.00000  Uiso   1.00
N229   N     0.60344   0.80746   0.02003   0.00000  Uiso   1.00
N230   N     0.63897   0.55384   0.35226   0.00000  Uiso   1.00
C231   C     0.23106   0.80882   0.11982   0.00000  Uiso   1.00
C232   C     0.24071   0.75566   0.10080   0.00000  Uiso   1.00
C233   C     0.19664   0.69377   0.11133   0.00000  Uiso   1.00
C234   C     0.21454   0.65225   0.09033   0.00000  Uiso   1.00
C235   C     0.22039   0.56672   0.06540   0.00000  Uiso   1.00
C236   C     0.20902   0.85256   0.06395   0.00000  Uiso   1.00
C237   C     0.13832   0.87215   0.04350   0.00000  Uiso   1.00
C238   C     0.12954   0.91221   0.99149   0.00000  Uiso   1.00
C239   C     0.08623   0.97715   0.90937   0.00000  Uiso   1.00
C240   C     0.31893   0.84311   0.15632   0.00000  Uiso   1.00
C241   C     0.34064   0.85476   0.21354   0.00000  Uiso   1.00
C242   C     0.42440   0.88687   0.23929   0.00000  Uiso   1.00
C243   C     0.55173   0.93713   0.30060   0.00000  Uiso   1.00
C244   C     0.34121   0.84512   0.06381   0.00000  Uiso   1.00
C245   C     0.30054   0.77538   0.07037   0.00000  Uiso   1.00
C246   C     0.31851   0.73394   0.04936   0.00000  Uiso   1.00
C247   C     0.27448   0.67200   0.05986   0.00000  Uiso   1.00
C248   C     0.26885   0.87228   0.03352   0.00000  Uiso   1.00
C249   C     0.26018   0.91232   0.98153   0.00000  Uiso   1.00
C250   C     0.18948   0.93196   0.96101   0.00000  Uiso   1.00
C251   C     0.37876   0.86283   0.12590   0.00000  Uiso   1.00
C252   C     0.46250   0.89493   0.15157   0.00000  Uiso   1.00
C253   C     0.48433   0.90663   0.20881   0.00000  Uiso   1.00
H254   H     0.18448   0.79347   0.14350   0.00000  Uiso   1.00
H255   H     0.15034   0.67853   0.13487   0.00000  Uiso   1.00
H256   H     0.09203   0.85689   0.06706   0.00000  Uiso   1.00
H257   H     0.29432   0.83950   0.23707   0.00000  Uiso   1.00
H258   H     0.13885   0.55980   0.11187   0.00000  Uiso   1.00
H259   H     0.01592   0.93589   0.96889   0.00000  Uiso   1.00
H260   H     0.44248   0.89922   0.32739   0.00000  Uiso   1.00
H261   H     0.38779   0.86048   0.04012   0.00000  Uiso   1.00
H262   H     0.36481   0.74922   0.02582   0.00000  Uiso   1.00
H263   H     0.30650   0.92757   0.95800   0.00000  Uiso   1.00
H264   H     0.50878   0.91018   0.12801   0.00000  Uiso   1.00
H265   H     0.31292   0.61717   0.02335   0.00000  Uiso   1.00
H266   H     0.18999   0.99327   0.88037   0.00000  Uiso   1.00
H267   H     0.61655   0.95659   0.23887   0.00000  Uiso   1.00
O268   O     0.20708   0.51409   0.06005   0.00000  Uiso   1.00
O269   O     0.04580   0.00751   0.87247   0.00000  Uiso   1.00
O270   O     0.60544   0.95940   0.34282   0.00000  Uiso   1.00
N271   N     0.18299   0.58857   0.09301   0.00000  Uiso   1.00
N272   N     0.06804   0.94019   0.95933   0.00000  Uiso   1.00
N273   N     0.46684   0.90592   0.29449   0.00000  Uiso   1.00
N274   N     0.27665   0.61944   0.04538   0.00000  Uiso   1.00
N275   N     0.16171   0.97106   0.91170   0.00000  Uiso   1.00
N276   N     0.56050   0.93679   0.24686   0.00000  Uiso   1.00
C277   C     0.86337   0.12202   0.53272   0.00000  Uiso   1.00
C278   C     0.77256   0.08000   0.52406   0.00000  Uiso   1.00
C279   C     0.72389   0.04560   0.47779   0.00000  Uiso   1.00
C280   C     0.64225   0.01004   0.47782   0.00000  Uiso   1.00
C281   C     0.50608   0.94492   0.45759   0.00000  Uiso   1.00
C282   C     0.91417   0.09932   0.59326   0.00000  Uiso   1.00
C283   C     0.98456   0.08118   0.60518   0.00000  Uiso   1.00
C284   C     0.02214   0.06189   0.66346   0.00000  Uiso   1.00
C285   C     0.10585   0.02682   0.75068   0.00000  Uiso   1.00
C286   C     0.86335   0.18538   0.53725   0.00000  Uiso   1.00
C287   C     0.89104   0.23960   0.50208   0.00000  Uiso   1.00
C288   C     0.88585   0.29278   0.51321   0.00000  Uiso   1.00
C289   C     0.89067   0.39133   0.51345   0.00000  Uiso   1.00
C290   C     0.80493   0.12004   0.61503   0.00000  Uiso   1.00
C291   C     0.74082   0.07892   0.56877   0.00000  Uiso   1.00
C292   C     0.65923   0.04340   0.56886   0.00000  Uiso   1.00
C293   C     0.61044   0.00896   0.52261   0.00000  Uiso   1.00
C294   C     0.88243   0.09824   0.63797   0.00000  Uiso   1.00
C295   C     0.91991   0.07898   0.69625   0.00000  Uiso   1.00
C296   C     0.99034   0.06081   0.70826   0.00000  Uiso   1.00
C297   C     0.83161   0.18430   0.58196   0.00000  Uiso   1.00
C298   C     0.82638   0.23740   0.59315   0.00000  Uiso   1.00
C299   C     0.85405   0.29169   0.55800   0.00000  Uiso   1.00
H300   H     0.88809   0.12286   0.49791   0.00000  Uiso   1.00
H301   H     0.74848   0.04644   0.44320   0.00000  Uiso   1.00
H302   H     0.00912   0.08202   0.57057   0.00000  Uiso   1.00
H303   H     0.91560   0.24042   0.46748   0.00000  Uiso   1.00
H304   H     0.57970   0.96122   0.40228   0.00000  Uiso   1.00
H305   H     0.12929   0.03627   0.67084   0.00000  Uiso   1.00
H306   H     0.93211   0.37028   0.45346   0.00000  Uiso   1.00
H307   H     0.78022   0.11920   0.64985   0.00000  Uiso   1.00
H308   H     0.63468   0.04258   0.60347   0.00000  Uiso   1.00
H309   H     0.89533   0.07816   0.73084   0.00000  Uiso   1.00
H310   H     0.80181   0.23655   0.62775   0.00000  Uiso   1.00
H311   H     0.48734   0.95808   0.53236   0.00000  Uiso   1.00
H312   H     0.03694   0.03313   0.80092   0.00000  Uiso   1.00
H313   H     0.83975   0.36714   0.58354   0.00000  Uiso   1.00
O314   O     0.43974   0.90930   0.43408   0.00000  Uiso   1.00
O315   O     0.16079   0.00777   0.78643   0.00000  Uiso   1.00
O316   O     0.90208   0.44598   0.50123   0.00000  Uiso   1.00
N317   N     0.57793   0.97101   0.43925   0.00000  Uiso   1.00
N318   N     0.09176   0.04116   0.69034   0.00000  Uiso   1.00
N319   N     0.90743   0.35344   0.48712   0.00000  Uiso   1.00
N320   N     0.52824   0.96932   0.50924   0.00000  Uiso   1.00
N321   N     0.04206   0.03947   0.76034   0.00000  Uiso   1.00
N322   N     0.85773   0.35175   0.55711   0.00000  Uiso   1.00
C323   C     0.40020   0.16078   0.49068   0.00000  Uiso   1.00
C324   C     0.44001   0.22992   0.47642   0.00000  Uiso   1.00
C325   C     0.39960   0.27408   0.46221   0.00000  Uiso   1.00
C326   C     0.44697   0.33491   0.45064   0.00000  Uiso   1.00
C327   C     0.49590   0.43983   0.42814   0.00000  Uiso   1.00
C328   C     0.45531   0.14213   0.55121   0.00000  Uiso   1.00
C329   C     0.42776   0.11248   0.59986   0.00000  Uiso   1.00
C330   C     0.48801   0.09939   0.65124   0.00000  Uiso   1.00
C331   C     0.56069   0.06798   0.74484   0.00000  Uiso   1.00
C332   C     0.41217   0.13050   0.44765   0.00000  Uiso   1.00
C333   C     0.34836   0.09105   0.40924   0.00000  Uiso   1.00
C334   C     0.37230   0.06816   0.37344   0.00000  Uiso   1.00
C335   C     0.37800   0.01869   0.30625   0.00000  Uiso   1.00
C336   C     0.55617   0.19026   0.49541   0.00000  Uiso   1.00
C337   C     0.52473   0.24593   0.47900   0.00000  Uiso   1.00
C338   C     0.57217   0.30670   0.46744   0.00000  Uiso   1.00
C339   C     0.53184   0.35095   0.45321   0.00000  Uiso   1.00
C340   C     0.54003   0.15814   0.55378   0.00000  Uiso   1.00
C341   C     0.60033   0.14510   0.60510   0.00000  Uiso   1.00
C342   C     0.57288   0.11544   0.65382   0.00000  Uiso   1.00
C343   C     0.49689   0.14651   0.45022   0.00000  Uiso   1.00
C344   C     0.52093   0.12367   0.41448   0.00000  Uiso   1.00
C345   C     0.45717   0.08420   0.37602   0.00000  Uiso   1.00
H346   H     0.33424   0.14831   0.48868   0.00000  Uiso   1.00
H347   H     0.33404   0.26167   0.46023   0.00000  Uiso   1.00
H348   H     0.36219   0.10008   0.59786   0.00000  Uiso   1.00
H349   H     0.28281   0.07867   0.40726   0.00000  Uiso   1.00
H350   H     0.37118   0.39442   0.42984   0.00000  Uiso   1.00
H351   H     0.43054   0.05368   0.72003   0.00000  Uiso   1.00
H352   H     0.26314   0.00852   0.31813   0.00000  Uiso   1.00
H353   H     0.62214   0.20273   0.49741   0.00000  Uiso   1.00
H354   H     0.63773   0.31908   0.46944   0.00000  Uiso   1.00
H355   H     0.66588   0.15749   0.60707   0.00000  Uiso   1.00
H356   H     0.58650   0.13608   0.41648   0.00000  Uiso   1.00
H357   H     0.61767   0.44102   0.43732   0.00000  Uiso   1.00
H358   H     0.67703   0.10028   0.72751   0.00000  Uiso   1.00
H359   H     0.50963   0.05511   0.32561   0.00000  Uiso   1.00
O360   O     0.49949   0.49328   0.41504   0.00000  Uiso   1.00
O361   O     0.57737   0.04623   0.79576   0.00000  Uiso   1.00
O362   O     0.35774   0.98698   0.26847   0.00000  Uiso   1.00
N363   N     0.42705   0.38942   0.43542   0.00000  Uiso   1.00
N364   N     0.48255   0.07086   0.70674   0.00000  Uiso   1.00
N365   N     0.32604   0.02862   0.33101   0.00000  Uiso   1.00
N366   N     0.55968   0.41449   0.43945   0.00000  Uiso   1.00
N367   N     0.61518   0.09593   0.71077   0.00000  Uiso   1.00
N368   N     0.45868   0.05369   0.33504   0.00000  Uiso   1.00
C369   C     0.93888   0.69613   0.55208   0.00000  Uiso   1.00
C370   C     0.97272   0.68584   0.50784   0.00000  Uiso   1.00
C371   C     0.02703   0.73093   0.47935   0.00000  Uiso   1.00
C372   C     0.05068   0.71220   0.44048   0.00000  Uiso   1.00
C373   C     0.10777   0.70559   0.37333   0.00000  Uiso   1.00
C374   C     0.96357   0.65282   0.60772   0.00000  Uiso   1.00
C375   C     0.01017   0.67016   0.66320   0.00000  Uiso   1.00
C376   C     0.02611   0.62362   0.70841   0.00000  Uiso   1.00
C377   C     0.06894   0.56575   0.79632   0.00000  Uiso   1.00
C378   C     0.84296   0.67196   0.52811   0.00000  Uiso   1.00
C379   C     0.78815   0.70538   0.51666   0.00000  Uiso   1.00
C380   C     0.70255   0.67496   0.49486   0.00000  Uiso   1.00
C381   C     0.55812   0.64681   0.45917   0.00000  Uiso   1.00
C382   C     0.88432   0.58267   0.53372   0.00000  Uiso   1.00
C383   C     0.94308   0.62421   0.49788   0.00000  Uiso   1.00
C384   C     0.96666   0.60540   0.45904   0.00000  Uiso   1.00
C385   C     0.02099   0.65046   0.43049   0.00000  Uiso   1.00
C386   C     0.93394   0.59120   0.59775   0.00000  Uiso   1.00
C387   C     0.94981   0.54463   0.64289   0.00000  Uiso   1.00
C388   C     0.99642   0.56188   0.69842   0.00000  Uiso   1.00
C389   C     0.81333   0.61034   0.51814   0.00000  Uiso   1.00
C390   C     0.72779   0.57985   0.49635   0.00000  Uiso   1.00
C391   C     0.67286   0.61322   0.48487   0.00000  Uiso   1.00
H392   H     0.96195   0.74411   0.55985   0.00000  Uiso   1.00
H393   H     0.04995   0.77862   0.48708   0.00000  Uiso   1.00
H394   H     0.03309   0.71785   0.67090   0.00000  Uiso   1.00
H395   H     0.81111   0.75307   0.52438   0.00000  Uiso   1.00
H396   H     0.13447   0.78970   0.40203   0.00000  Uiso   1.00
H397   H     0.09889   0.66157   0.78962   0.00000  Uiso   1.00
H398   H     0.63080   0.73584   0.48067   0.00000  Uiso   1.00
H399   H     0.86124   0.53468   0.52596   0.00000  Uiso   1.00
H400   H     0.94372   0.55771   0.45133   0.00000  Uiso   1.00
H401   H     0.92686   0.49694   0.63516   0.00000  Uiso   1.00
H402   H     0.70488   0.53216   0.48864   0.00000  Uiso   1.00
H403   H     0.04825   0.61040   0.37302   0.00000  Uiso   1.00
H404   H     0.01267   0.48227   0.76062   0.00000  Uiso   1.00
H405   H     0.54458   0.55654   0.45166   0.00000  Uiso   1.00
O406   O     0.14746   0.71897   0.33905   0.00000  Uiso   1.00
O407   O     0.10076   0.55086   0.84757   0.00000  Uiso   1.00
O408   O     0.48665   0.64831   0.44223   0.00000  Uiso   1.00
N409   N     0.10285   0.74435   0.40543   0.00000  Uiso   1.00
N410   N     0.06960   0.62455   0.76781   0.00000  Uiso   1.00
N411   N     0.63197   0.69398   0.47898   0.00000  Uiso   1.00
N412   N     0.05645   0.64787   0.38982   0.00000  Uiso   1.00
N413   N     0.02320   0.52807   0.75220   0.00000  Uiso   1.00
N414   N     0.58558   0.59750   0.46337   0.00000  Uiso   1.00
C415   C     0.96088   0.70812   0.02709   0.00000  Uiso   1.00
C416   C     0.86746   0.68819   0.99247   0.00000  Uiso   1.00
C417   C     0.81605   0.72562   0.97084   0.00000  Uiso   1.00
C418   C     0.73231   0.69869   0.94030   0.00000  Uiso   1.00
C419   C     0.59197   0.67720   0.88786   0.00000  Uiso   1.00
C420   C     0.96962   0.66478   0.08466   0.00000  Uiso   1.00
C421   C     0.00411   0.68252   0.14055   0.00000  Uiso   1.00
C422   C     0.00638   0.63588   0.18762   0.00000  Uiso   1.00
C423   C     0.02471   0.57803   0.27832   0.00000  Uiso   1.00
C424   C     0.00630   0.69299   0.99334   0.00000  Uiso   1.00
C425   C     0.07165   0.73445   0.97245   0.00000  Uiso   1.00
C426   C     0.10482   0.71155   0.94264   0.00000  Uiso   1.00
C427   C     0.18009   0.69751   0.89155   0.00000  Uiso   1.00
C428   C     0.90359   0.59373   0.01131   0.00000  Uiso   1.00
C429   C     0.83634   0.62606   0.98390   0.00000  Uiso   1.00
C430   C     0.75266   0.59907   0.95338   0.00000  Uiso   1.00
C431   C     0.70113   0.63645   0.93171   0.00000  Uiso   1.00
C432   C     0.93851   0.60265   0.07609   0.00000  Uiso   1.00
C433   C     0.94073   0.55597   0.12309   0.00000  Uiso   1.00
C434   C     0.97521   0.57363   0.17903   0.00000  Uiso   1.00
C435   C     0.97518   0.63086   0.98477   0.00000  Uiso   1.00
C436   C     0.00826   0.60789   0.95499   0.00000  Uiso   1.00
C437   C     0.07364   0.64931   0.93405   0.00000  Uiso   1.00
H438   H     0.98511   0.75648   0.03377   0.00000  Uiso   1.00
H439   H     0.84015   0.77370   0.97749   0.00000  Uiso   1.00
H440   H     0.02820   0.73060   0.14717   0.00000  Uiso   1.00
H441   H     0.09571   0.78252   0.97909   0.00000  Uiso   1.00
H442   H     0.66570   0.76538   0.91132   0.00000  Uiso   1.00
H443   H     0.06224   0.67451   0.26911   0.00000  Uiso   1.00
H444   H     0.20462   0.78399   0.91469   0.00000  Uiso   1.00
H445   H     0.87937   0.54536   0.00464   0.00000  Uiso   1.00
H446   H     0.72860   0.55099   0.94675   0.00000  Uiso   1.00
H447   H     0.91665   0.50789   0.11644   0.00000  Uiso   1.00
H448   H     0.98416   0.55981   0.94836   0.00000  Uiso   1.00
H449   H     0.57516   0.58462   0.88638   0.00000  Uiso   1.00
H450   H     0.97170   0.49375   0.24417   0.00000  Uiso   1.00
H451   H     0.11408   0.60323   0.88975   0.00000  Uiso   1.00
O452   O     0.52316   0.68250   0.86132   0.00000  Uiso   1.00
O453   O     0.04341   0.56330   0.33071   0.00000  Uiso   1.00
O454   O     0.23020   0.70693   0.86572   0.00000  Uiso   1.00
N455   N     0.66509   0.72207   0.91339   0.00000  Uiso   1.00
N456   N     0.03581   0.63711   0.24790   0.00000  Uiso   1.00
N457   N     0.16894   0.73946   0.91656   0.00000  Uiso   1.00
N458   N     0.61637   0.62480   0.89996   0.00000  Uiso   1.00
N459   N     0.98710   0.53985   0.23447   0.00000  Uiso   1.00
N460   N     0.12022   0.64220   0.90313   0.00000  Uiso   1.00
C461   C     0.41588   0.17321   0.98004   0.00000  Uiso   1.00
C462   C     0.42383   0.13600   0.94088   0.00000  Uiso   1.00
C463   C     0.35727   0.09593   0.90439   0.00000  Uiso   1.00
C464   C     0.37769   0.06624   0.87209   0.00000  Uiso   1.00
C465   C     0.37726   0.00690   0.81068   0.00000  Uiso   1.00
C466   C     0.46825   0.15593   0.04216   0.00000  Uiso   1.00
C467   C     0.43905   0.13262   0.09083   0.00000  Uiso   1.00
C468   C     0.49686   0.11971   0.14379   0.00000  Uiso   1.00
C469   C     0.56541   0.09136   0.23962   0.00000  Uiso   1.00
C470   C     0.46152   0.24040   0.96226   0.00000  Uiso   1.00
C471   C     0.42667   0.28812   0.94376   0.00000  Uiso   1.00
C472   C     0.47883   0.34634   0.92947   0.00000  Uiso   1.00
C473   C     0.53693   0.44913   0.90124   0.00000  Uiso   1.00
C474   C     0.57049   0.19172   0.98757   0.00000  Uiso   1.00
C475   C     0.50780   0.14605   0.94497   0.00000  Uiso   1.00
C476   C     0.52833   0.11641   0.91272   0.00000  Uiso   1.00
C477   C     0.46182   0.07631   0.87619   0.00000  Uiso   1.00
C478   C     0.55222   0.16598   0.04625   0.00000  Uiso   1.00
C479   C     0.61010   0.15311   0.09916   0.00000  Uiso   1.00
C480   C     0.58099   0.12979   0.14789   0.00000  Uiso   1.00
C481   C     0.54550   0.25045   0.96635   0.00000  Uiso   1.00
C482   C     0.59773   0.30860   0.95209   0.00000  Uiso   1.00
C483   C     0.56296   0.35641   0.93356   0.00000  Uiso   1.00
H484   H     0.35050   0.16538   0.97687   0.00000  Uiso   1.00
H485   H     0.29229   0.08816   0.90124   0.00000  Uiso   1.00
H486   H     0.37406   0.12485   0.08765   0.00000  Uiso   1.00
H487   H     0.36168   0.28033   0.94060   0.00000  Uiso   1.00
H488   H     0.26479   0.00696   0.81922   0.00000  Uiso   1.00
H489   H     0.43720   0.08435   0.21227   0.00000  Uiso   1.00
H490   H     0.41111   0.41220   0.90220   0.00000  Uiso   1.00
H491   H     0.63587   0.19955   0.99076   0.00000  Uiso   1.00
H492   H     0.59332   0.12420   0.91589   0.00000  Uiso   1.00
H493   H     0.67508   0.16089   0.10230   0.00000  Uiso   1.00
H494   H     0.66271   0.31637   0.95526   0.00000  Uiso   1.00
H495   H     0.50912   0.03621   0.83111   0.00000  Uiso   1.00
H496   H     0.68153   0.11360   0.22417   0.00000  Uiso   1.00
H497   H     0.65543   0.44145   0.91409   0.00000  Uiso   1.00
O498   O     0.35382   0.97138   0.77568   0.00000  Uiso   1.00
O499   O     0.58001   0.07293   0.29135   0.00000  Uiso   1.00
O500   O     0.54578   0.50305   0.88454   0.00000  Uiso   1.00
N501   N     0.32813   0.02419   0.83228   0.00000  Uiso   1.00
N502   N     0.48932   0.09654   0.19976   0.00000  Uiso   1.00
N503   N     0.46493   0.40305   0.90988   0.00000  Uiso   1.00
N504   N     0.45960   0.03993   0.83868   0.00000  Uiso   1.00
N505   N     0.62079   0.11228   0.20616   0.00000  Uiso   1.00
N506   N     0.59640   0.41879   0.91628   0.00000  Uiso   1.00
C507   C     0.87536   0.11337   0.03581   0.00000  Uiso   1.00
C508   C     0.87481   0.17777   0.03629   0.00000  Uiso   1.00
C509   C     0.90476   0.23036   0.00015   0.00000  Uiso   1.00
C510   C     0.89861   0.28488   0.00742   0.00000  Uiso   1.00
C511   C     0.90310   0.38462   0.00181   0.00000  Uiso   1.00
C512   C     0.92322   0.09267   0.09825   0.00000  Uiso   1.00
C513   C     0.99386   0.07370   0.11419   0.00000  Uiso   1.00
C514   C     0.02845   0.05657   0.17361   0.00000  Uiso   1.00
C515   C     0.10805   0.02415   0.26417   0.00000  Uiso   1.00
C516   C     0.78408   0.07192   0.02579   0.00000  Uiso   1.00
C517   C     0.73774   0.03549   0.98081   0.00000  Uiso   1.00
C518   C     0.65519   0.00088   0.97924   0.00000  Uiso   1.00
C519   C     0.51876   0.93624   0.95730   0.00000  Uiso   1.00
C520   C     0.81118   0.11669   0.11299   0.00000  Uiso   1.00
C521   C     0.83995   0.17958   0.07821   0.00000  Uiso   1.00
C522   C     0.83375   0.23403   0.08553   0.00000  Uiso   1.00
C523   C     0.86369   0.28669   0.04941   0.00000  Uiso   1.00
C524   C     0.88836   0.09448   0.14016   0.00000  Uiso   1.00
C525   C     0.92285   0.07737   0.19957   0.00000  Uiso   1.00
C526   C     0.99353   0.05838   0.21560   0.00000  Uiso   1.00
C527   C     0.74922   0.07373   0.06771   0.00000  Uiso   1.00
C528   C     0.66673   0.03917   0.06620   0.00000  Uiso   1.00
C529   C     0.62027   0.00269   0.02123   0.00000  Uiso   1.00
H530   H     0.90251   0.11196   0.00318   0.00000  Uiso   1.00
H531   H     0.93175   0.22894   0.96772   0.00000  Uiso   1.00
H532   H     0.02082   0.07230   0.08174   0.00000  Uiso   1.00
H533   H     0.76474   0.03410   0.94839   0.00000  Uiso   1.00
H534   H     0.94881   0.35944   0.94691   0.00000  Uiso   1.00
H535   H     0.13662   0.02914   0.18732   0.00000  Uiso   1.00
H536   H     0.59662   0.94858   0.90612   0.00000  Uiso   1.00
H537   H     0.78404   0.11809   0.14562   0.00000  Uiso   1.00
H538   H     0.80677   0.23541   0.11798   0.00000  Uiso   1.00
H539   H     0.89585   0.07877   0.23200   0.00000  Uiso   1.00
H540   H     0.63977   0.04057   0.09864   0.00000  Uiso   1.00
H541   H     0.84739   0.36469   0.06886   0.00000  Uiso   1.00
H542   H     0.03519   0.03438   0.30928   0.00000  Uiso   1.00
H543   H     0.49519   0.95383   0.02807   0.00000  Uiso   1.00
O544   O     0.91522   0.43914   0.98714   0.00000  Uiso   1.00
O545   O     0.16160   0.00578   0.30255   0.00000  Uiso   1.00
O546   O     0.45314   0.90010   0.93362   0.00000  Uiso   1.00
N547   N     0.92181   0.34457   0.97939   0.00000  Uiso   1.00
N548   N     0.09740   0.03577   0.20417   0.00000  Uiso   1.00
N549   N     0.59256   0.96044   0.94127   0.00000  Uiso   1.00
N550   N     0.86723   0.34740   0.04502   0.00000  Uiso   1.00
N551   N     0.04282   0.03859   0.26979   0.00000  Uiso   1.00
N552   N     0.53798   0.96327   0.00690   0.00000  Uiso   1.00
