data_job_06077
_audit_creation_date              2018-12-19
_audit_creation_method            'Materials Studio'
_symmetry_space_group_name_H-M    'P1'
_symmetry_Int_Tables_number       1
_symmetry_cell_setting            triclinic
loop_
_symmetry_equiv_pos_as_xyz
  x,y,z
_cell_length_a                    16.1261
_cell_length_b                    18.0707
_cell_length_c                    18.5398
_cell_angle_alpha                 111.7840
_cell_angle_beta                  72.3249
_cell_angle_gamma                 75.1781
loop_
_atom_site_label
_atom_site_type_symbol
_atom_site_fract_x
_atom_site_fract_y
_atom_site_fract_z
_atom_site_U_iso_or_equiv
_atom_site_adp_type
_atom_site_occupancy
C1     C     0.68005   0.71555   0.25185   0.00000  Uiso   1.00
C2     C     0.67837   0.63180   0.19151   0.00000  Uiso   1.00
C3     C     0.61495   0.62759   0.15516   0.00000  Uiso   1.00
C4     C     0.62515   0.54467   0.10168   0.00000  Uiso   1.00
C5     C     0.61170   0.42617   0.01053   0.00000  Uiso   1.00
C6     C     0.67066   0.71032   0.33399   0.00000  Uiso   1.00
C7     C     0.60077   0.77214   0.41745   0.00000  Uiso   1.00
C8     C     0.60450   0.75532   0.48391   0.00000  Uiso   1.00
C9     C     0.57912   0.75877   0.61398   0.00000  Uiso   1.00
C10    C     0.78080   0.70875   0.20925   0.00000  Uiso   1.00
C11    C     0.80352   0.76925   0.18784   0.00000  Uiso   1.00
C12    C     0.89998   0.75112   0.14929   0.00000  Uiso   1.00
C13    C     0.04561   0.75212   0.08567   0.00000  Uiso   1.00
C14    C     0.81094   0.57578   0.22149   0.00000  Uiso   1.00
C15    C     0.74946   0.55588   0.17503   0.00000  Uiso   1.00
C16    C     0.75977   0.47295   0.12158   0.00000  Uiso   1.00
C17    C     0.69638   0.46861   0.08516   0.00000  Uiso   1.00
C18    C     0.74175   0.63441   0.31751   0.00000  Uiso   1.00
C19    C     0.74559   0.61750   0.38386   0.00000  Uiso   1.00
C20    C     0.67572   0.67927   0.46740   0.00000  Uiso   1.00
C21    C     0.85190   0.63283   0.19276   0.00000  Uiso   1.00
C22    C     0.94834   0.61461   0.15425   0.00000  Uiso   1.00
C23    C     0.97120   0.67507   0.13277   0.00000  Uiso   1.00
H24    H     0.62470   0.77466   0.26469   0.00000  Uiso   1.00
H25    H     0.55994   0.68636   0.16795   0.00000  Uiso   1.00
H26    H     0.54577   0.83089   0.43019   0.00000  Uiso   1.00
H27    H     0.74849   0.82800   0.20060   0.00000  Uiso   1.00
H28    H     0.51947   0.55498   0.05344   0.00000  Uiso   1.00
H29    H     0.48962   0.85975   0.60640   0.00000  Uiso   1.00
H30    H     0.91708   0.85365   0.12228   0.00000  Uiso   1.00
H31    H     0.86629   0.51667   0.20866   0.00000  Uiso   1.00
H32    H     0.81479   0.41421   0.10883   0.00000  Uiso   1.00
H33    H     0.80062   0.55874   0.37108   0.00000  Uiso   1.00
H34    H     0.00333   0.55585   0.14150   0.00000  Uiso   1.00
H35    H     0.72631   0.33409   0.00547   0.00000  Uiso   1.00
H36    H     0.69646   0.63887   0.55843   0.00000  Uiso   1.00
H37    H     0.12392   0.63276   0.07431   0.00000  Uiso   1.00
O38    O     0.58463   0.38178   0.96482   0.00000  Uiso   1.00
O39    O     0.54547   0.78164   0.69028   0.00000  Uiso   1.00
O40    O     0.10630   0.77364   0.05512   0.00000  Uiso   1.00
N41    N     0.57523   0.51705   0.05584   0.00000  Uiso   1.00
N42    N     0.54731   0.80199   0.57282   0.00000  Uiso   1.00
N43    N     0.94695   0.79630   0.12023   0.00000  Uiso   1.00
N44    N     0.68653   0.39819   0.03002   0.00000  Uiso   1.00
N45    N     0.65861   0.68313   0.54700   0.00000  Uiso   1.00
N46    N     0.05825   0.67744   0.09441   0.00000  Uiso   1.00
C47    C     0.93106   0.75228   0.46015   0.00000  Uiso   1.00
C48    C     0.87120   0.81273   0.43805   0.00000  Uiso   1.00
C49    C     0.77224   0.84693   0.47084   0.00000  Uiso   1.00
C50    C     0.73096   0.90092   0.44259   0.00000  Uiso   1.00
C51    C     0.62954   0.99184   0.41721   0.00000  Uiso   1.00
C52    C     0.00290   0.67052   0.37399   0.00000  Uiso   1.00
C53    C     0.01467   0.58516   0.35292   0.00000  Uiso   1.00
C54    C     0.08427   0.51944   0.27075   0.00000  Uiso   1.00
C55    C     0.18736   0.38958   0.14594   0.00000  Uiso   1.00
C56    C     0.98945   0.79762   0.49407   0.00000  Uiso   1.00
C57    C     0.98993   0.81911   0.57396   0.00000  Uiso   1.00
C58    C     0.04823   0.86038   0.59288   0.00000  Uiso   1.00
C59    C     0.13043   0.92786   0.65451   0.00000  Uiso   1.00
C60    C     0.03375   0.78736   0.35170   0.00000  Uiso   1.00
C61    C     0.92698   0.83178   0.37914   0.00000  Uiso   1.00
C62    C     0.88585   0.88573   0.35085   0.00000  Uiso   1.00
C63    C     0.78684   0.92001   0.38359   0.00000  Uiso   1.00
C64    C     0.05868   0.68957   0.31508   0.00000  Uiso   1.00
C65    C     0.12828   0.62396   0.23293   0.00000  Uiso   1.00
C66    C     0.14015   0.53852   0.21174   0.00000  Uiso   1.00
C67    C     0.04522   0.81668   0.43517   0.00000  Uiso   1.00
C68    C     0.10354   0.85791   0.45397   0.00000  Uiso   1.00
C69    C     0.10410   0.87946   0.53387   0.00000  Uiso   1.00
H70    H     0.88764   0.73745   0.50601   0.00000  Uiso   1.00
H71    H     0.72910   0.83216   0.51642   0.00000  Uiso   1.00
H72    H     0.97150   0.57044   0.39852   0.00000  Uiso   1.00
H73    H     0.94676   0.80435   0.61952   0.00000  Uiso   1.00
H74    H     0.57793   0.94555   0.50196   0.00000  Uiso   1.00
H75    H     0.08907   0.39368   0.25338   0.00000  Uiso   1.00
H76    H     0.03690   0.88694   0.71941   0.00000  Uiso   1.00
H77    H     0.07717   0.80219   0.30583   0.00000  Uiso   1.00
H78    H     0.92903   0.90046   0.30526   0.00000  Uiso   1.00
H79    H     0.17143   0.63873   0.18736   0.00000  Uiso   1.00
H80    H     0.14669   0.87265   0.40837   0.00000  Uiso   1.00
H81    H     0.74020   0.00098   0.33057   0.00000  Uiso   1.00
H82    H     0.25134   0.44911   0.08200   0.00000  Uiso   1.00
H83    H     0.19917   0.94237   0.54802   0.00000  Uiso   1.00
O84    O     0.55819   0.03672   0.41948   0.00000  Uiso   1.00
O85    O     0.22880   0.31269   0.09337   0.00000  Uiso   1.00
O86    O     0.16035   0.95983   0.70478   0.00000  Uiso   1.00
N87    N     0.63645   0.94512   0.46171   0.00000  Uiso   1.00
N88    N     0.11432   0.42916   0.22931   0.00000  Uiso   1.00
N89    N     0.06557   0.89029   0.66499   0.00000  Uiso   1.00
N90    N     0.72376   0.97495   0.36949   0.00000  Uiso   1.00
N91    N     0.20164   0.45898   0.13708   0.00000  Uiso   1.00
N92    N     0.15288   0.92012   0.57277   0.00000  Uiso   1.00
C93    C     0.38933   0.54367   0.29013   0.00000  Uiso   1.00
C94    C     0.30691   0.56335   0.37190   0.00000  Uiso   1.00
C95    C     0.24016   0.52760   0.37440   0.00000  Uiso   1.00
C96    C     0.17028   0.55400   0.45565   0.00000  Uiso   1.00
C97    C     0.04272   0.57547   0.57105   0.00000  Uiso   1.00
C98    C     0.37716   0.63192   0.29438   0.00000  Uiso   1.00
C99    C     0.36949   0.65381   0.23169   0.00000  Uiso   1.00
C100   C     0.35877   0.73792   0.24769   0.00000  Uiso   1.00
C101   C     0.34035   0.86582   0.24271   0.00000  Uiso   1.00
C102   C     0.48022   0.51142   0.29997   0.00000  Uiso   1.00
C103   C     0.55921   0.43200   0.24197   0.00000  Uiso   1.00
C104   C     0.63526   0.41466   0.26267   0.00000  Uiso   1.00
C105   C     0.77685   0.35546   0.26637   0.00000  Uiso   1.00
C106   C     0.38394   0.65410   0.43000   0.00000  Uiso   1.00
C107   C     0.30398   0.62334   0.44787   0.00000  Uiso   1.00
C108   C     0.23419   0.64979   0.52914   0.00000  Uiso   1.00
C109   C     0.16735   0.61409   0.53176   0.00000  Uiso   1.00
C110   C     0.37423   0.69190   0.37034   0.00000  Uiso   1.00
C111   C     0.36353   0.77600   0.38643   0.00000  Uiso   1.00
C112   C     0.35584   0.79801   0.32379   0.00000  Uiso   1.00
C113   C     0.47729   0.57140   0.37594   0.00000  Uiso   1.00
C114   C     0.55324   0.55418   0.39673   0.00000  Uiso   1.00
C115   C     0.63233   0.47475   0.33878   0.00000  Uiso   1.00
H116   H     0.39161   0.49697   0.23099   0.00000  Uiso   1.00
H117   H     0.24244   0.48119   0.31559   0.00000  Uiso   1.00
H118   H     0.37177   0.60737   0.17290   0.00000  Uiso   1.00
H119   H     0.56145   0.38559   0.18319   0.00000  Uiso   1.00
H120   H     0.07575   0.49018   0.44289   0.00000  Uiso   1.00
H121   H     0.34848   0.75623   0.14201   0.00000  Uiso   1.00
H122   H     0.74846   0.28856   0.16370   0.00000  Uiso   1.00
H123   H     0.38166   0.70081   0.48915   0.00000  Uiso   1.00
H124   H     0.23194   0.69621   0.58792   0.00000  Uiso   1.00
H125   H     0.36127   0.82240   0.44523   0.00000  Uiso   1.00
H126   H     0.55095   0.60062   0.45552   0.00000  Uiso   1.00
H127   H     0.06722   0.66470   0.66392   0.00000  Uiso   1.00
H128   H     0.33996   0.93075   0.36304   0.00000  Uiso   1.00
H129   H     0.73993   0.46309   0.38474   0.00000  Uiso   1.00
O130   O     0.97316   0.57076   0.61372   0.00000  Uiso   1.00
O131   O     0.33099   0.91980   0.21897   0.00000  Uiso   1.00
O132   O     0.85575   0.30624   0.24744   0.00000  Uiso   1.00
N133   N     0.09430   0.53187   0.48135   0.00000  Uiso   1.00
N134   N     0.34927   0.78062   0.20006   0.00000  Uiso   1.00
N135   N     0.72323   0.34340   0.22033   0.00000  Uiso   1.00
N136   N     0.08971   0.62577   0.60029   0.00000  Uiso   1.00
N137   N     0.34468   0.87452   0.31900   0.00000  Uiso   1.00
N138   N     0.71864   0.43730   0.33926   0.00000  Uiso   1.00
C139   C     0.31995   0.28445   0.74815   0.00000  Uiso   1.00
C140   C     0.32163   0.36820   0.80849   0.00000  Uiso   1.00
C141   C     0.38505   0.37241   0.84484   0.00000  Uiso   1.00
C142   C     0.37485   0.45533   0.89832   0.00000  Uiso   1.00
C143   C     0.38830   0.57383   0.98947   0.00000  Uiso   1.00
C144   C     0.32934   0.28968   0.66601   0.00000  Uiso   1.00
C145   C     0.39923   0.22786   0.58255   0.00000  Uiso   1.00
C146   C     0.39550   0.24467   0.51609   0.00000  Uiso   1.00
C147   C     0.42088   0.24123   0.38602   0.00000  Uiso   1.00
C148   C     0.21920   0.29125   0.79075   0.00000  Uiso   1.00
C149   C     0.19648   0.23075   0.81216   0.00000  Uiso   1.00
C150   C     0.10002   0.24888   0.85071   0.00000  Uiso   1.00
C151   C     0.95439   0.24788   0.91433   0.00000  Uiso   1.00
C152   C     0.18906   0.42422   0.77851   0.00000  Uiso   1.00
C153   C     0.25054   0.44412   0.82497   0.00000  Uiso   1.00
C154   C     0.24023   0.52705   0.87842   0.00000  Uiso   1.00
C155   C     0.30362   0.53139   0.91484   0.00000  Uiso   1.00
C156   C     0.25825   0.36559   0.68249   0.00000  Uiso   1.00
C157   C     0.25441   0.38250   0.61614   0.00000  Uiso   1.00
C158   C     0.32428   0.32073   0.53260   0.00000  Uiso   1.00
C159   C     0.14810   0.36717   0.80724   0.00000  Uiso   1.00
C160   C     0.05166   0.38539   0.84575   0.00000  Uiso   1.00
C161   C     0.02880   0.32493   0.86723   0.00000  Uiso   1.00
H162   H     0.37530   0.22534   0.73531   0.00000  Uiso   1.00
H163   H     0.44006   0.31364   0.83205   0.00000  Uiso   1.00
H164   H     0.45423   0.16911   0.56981   0.00000  Uiso   1.00
H165   H     0.25151   0.17200   0.79940   0.00000  Uiso   1.00
H166   H     0.48053   0.44502   0.94656   0.00000  Uiso   1.00
H167   H     0.51038   0.14025   0.39360   0.00000  Uiso   1.00
H168   H     0.08292   0.14635   0.87772   0.00000  Uiso   1.00
H169   H     0.13371   0.48333   0.79134   0.00000  Uiso   1.00
H170   H     0.18521   0.58579   0.89117   0.00000  Uiso   1.00
H171   H     0.19938   0.44126   0.62892   0.00000  Uiso   1.00
H172   H     0.99667   0.44415   0.85850   0.00000  Uiso   1.00
H173   H     0.27369   0.66591   0.99453   0.00000  Uiso   1.00
H174   H     0.30354   0.36113   0.44157   0.00000  Uiso   1.00
H175   H     0.87608   0.36724   0.92569   0.00000  Uiso   1.00
O176   O     0.41537   0.61822   0.03518   0.00000  Uiso   1.00
O177   O     0.45453   0.21836   0.30972   0.00000  Uiso   1.00
O178   O     0.89370   0.22636   0.94488   0.00000  Uiso   1.00
N179   N     0.42477   0.48295   0.94416   0.00000  Uiso   1.00
N180   N     0.45269   0.19801   0.42718   0.00000  Uiso   1.00
N181   N     0.05305   0.20370   0.87977   0.00000  Uiso   1.00
N182   N     0.31347   0.60181   0.96998   0.00000  Uiso   1.00
N183   N     0.34139   0.31687   0.45300   0.00000  Uiso   1.00
N184   N     0.94175   0.32256   0.90559   0.00000  Uiso   1.00
C185   C     0.06894   0.24772   0.53985   0.00000  Uiso   1.00
C186   C     0.12880   0.18727   0.56195   0.00000  Uiso   1.00
C187   C     0.22776   0.15307   0.52916   0.00000  Uiso   1.00
C188   C     0.26904   0.09908   0.55741   0.00000  Uiso   1.00
C189   C     0.37046   0.00816   0.58279   0.00000  Uiso   1.00
C190   C     0.99710   0.32948   0.62601   0.00000  Uiso   1.00
C191   C     0.98533   0.41484   0.64708   0.00000  Uiso   1.00
C192   C     0.91573   0.48056   0.72925   0.00000  Uiso   1.00
C193   C     0.81264   0.61042   0.85406   0.00000  Uiso   1.00
C194   C     0.01055   0.20238   0.50593   0.00000  Uiso   1.00
C195   C     0.01007   0.18089   0.42604   0.00000  Uiso   1.00
C196   C     0.95177   0.13962   0.40712   0.00000  Uiso   1.00
C197   C     0.86957   0.07214   0.34549   0.00000  Uiso   1.00
C198   C     0.96625   0.21264   0.64830   0.00000  Uiso   1.00
C199   C     0.07302   0.16822   0.62086   0.00000  Uiso   1.00
C200   C     0.11415   0.11427   0.64915   0.00000  Uiso   1.00
C201   C     0.21316   0.07999   0.61641   0.00000  Uiso   1.00
C202   C     0.94132   0.31043   0.68492   0.00000  Uiso   1.00
C203   C     0.87172   0.37604   0.76707   0.00000  Uiso   1.00
C204   C     0.85985   0.46148   0.78826   0.00000  Uiso   1.00
C205   C     0.95478   0.18332   0.56483   0.00000  Uiso   1.00
C206   C     0.89646   0.14209   0.54603   0.00000  Uiso   1.00
C207   C     0.89590   0.12054   0.46613   0.00000  Uiso   1.00
H208   H     0.11236   0.26255   0.49399   0.00000  Uiso   1.00
H209   H     0.27090   0.16784   0.48358   0.00000  Uiso   1.00
H210   H     0.02850   0.42956   0.60148   0.00000  Uiso   1.00
H211   H     0.05324   0.19565   0.38048   0.00000  Uiso   1.00
H212   H     0.42207   0.05445   0.49804   0.00000  Uiso   1.00
H213   H     0.91093   0.60632   0.74662   0.00000  Uiso   1.00
H214   H     0.96310   0.11306   0.28059   0.00000  Uiso   1.00
H215   H     0.92283   0.19781   0.69417   0.00000  Uiso   1.00
H216   H     0.07097   0.09954   0.69474   0.00000  Uiso   1.00
H217   H     0.82857   0.36127   0.81264   0.00000  Uiso   1.00
H218   H     0.85331   0.12735   0.59163   0.00000  Uiso   1.00
H219   H     0.25980   0.99902   0.66943   0.00000  Uiso   1.00
H220   H     0.74866   0.55089   0.91800   0.00000  Uiso   1.00
H221   H     0.80083   0.05763   0.45198   0.00000  Uiso   1.00
O222   O     0.44181   0.96328   0.58052   0.00000  Uiso   1.00
O223   O     0.77120   0.68731   0.90664   0.00000  Uiso   1.00
O224   O     0.83965   0.04017   0.29522   0.00000  Uiso   1.00
N225   N     0.36355   0.05488   0.53829   0.00000  Uiso   1.00
N226   N     0.88568   0.57084   0.77069   0.00000  Uiso   1.00
N227   N     0.93443   0.10971   0.33501   0.00000  Uiso   1.00
N228   N     0.27624   0.02505   0.63051   0.00000  Uiso   1.00
N229   N     0.79836   0.54101   0.86292   0.00000  Uiso   1.00
N230   N     0.84712   0.07988   0.42723   0.00000  Uiso   1.00
C231   C     0.61067   0.45633   0.70987   0.00000  Uiso   1.00
C232   C     0.69309   0.43665   0.62810   0.00000  Uiso   1.00
C233   C     0.75984   0.47240   0.62560   0.00000  Uiso   1.00
C234   C     0.82972   0.44600   0.54435   0.00000  Uiso   1.00
C235   C     0.95728   0.42453   0.42895   0.00000  Uiso   1.00
C236   C     0.62284   0.36808   0.70562   0.00000  Uiso   1.00
C237   C     0.63051   0.34619   0.76831   0.00000  Uiso   1.00
C238   C     0.64123   0.26208   0.75231   0.00000  Uiso   1.00
C239   C     0.65965   0.13418   0.75729   0.00000  Uiso   1.00
C240   C     0.51978   0.48858   0.70003   0.00000  Uiso   1.00
C241   C     0.44079   0.56800   0.75803   0.00000  Uiso   1.00
C242   C     0.36474   0.58534   0.73733   0.00000  Uiso   1.00
C243   C     0.22315   0.64454   0.73363   0.00000  Uiso   1.00
C244   C     0.61606   0.34590   0.57000   0.00000  Uiso   1.00
C245   C     0.69602   0.37666   0.55213   0.00000  Uiso   1.00
C246   C     0.76581   0.35021   0.47086   0.00000  Uiso   1.00
C247   C     0.83265   0.38591   0.46824   0.00000  Uiso   1.00
C248   C     0.62577   0.30810   0.62966   0.00000  Uiso   1.00
C249   C     0.63647   0.22400   0.61357   0.00000  Uiso   1.00
C250   C     0.64416   0.20199   0.67621   0.00000  Uiso   1.00
C251   C     0.52271   0.42860   0.62406   0.00000  Uiso   1.00
C252   C     0.44676   0.44582   0.60327   0.00000  Uiso   1.00
C253   C     0.36767   0.52525   0.66122   0.00000  Uiso   1.00
H254   H     0.60839   0.50303   0.76901   0.00000  Uiso   1.00
H255   H     0.75756   0.51881   0.68441   0.00000  Uiso   1.00
H256   H     0.62823   0.39263   0.82710   0.00000  Uiso   1.00
H257   H     0.43855   0.61440   0.81681   0.00000  Uiso   1.00
H258   H     0.92425   0.50982   0.55711   0.00000  Uiso   1.00
H259   H     0.65152   0.24377   0.85799   0.00000  Uiso   1.00
H260   H     0.25154   0.71144   0.83630   0.00000  Uiso   1.00
H261   H     0.61834   0.29919   0.51085   0.00000  Uiso   1.00
H262   H     0.76806   0.30379   0.41208   0.00000  Uiso   1.00
H263   H     0.63873   0.17760   0.55477   0.00000  Uiso   1.00
H264   H     0.44905   0.39938   0.54448   0.00000  Uiso   1.00
H265   H     0.93278   0.33530   0.33608   0.00000  Uiso   1.00
H266   H     0.66004   0.06925   0.63696   0.00000  Uiso   1.00
H267   H     0.26007   0.53691   0.61526   0.00000  Uiso   1.00
O268   O     0.02684   0.42924   0.38628   0.00000  Uiso   1.00
O269   O     0.66901   0.08020   0.78103   0.00000  Uiso   1.00
O270   O     0.14425   0.69376   0.75256   0.00000  Uiso   1.00
N271   N     0.90570   0.46813   0.51865   0.00000  Uiso   1.00
N272   N     0.65073   0.21938   0.79994   0.00000  Uiso   1.00
N273   N     0.27677   0.65660   0.77967   0.00000  Uiso   1.00
N274   N     0.91029   0.37423   0.39971   0.00000  Uiso   1.00
N275   N     0.65532   0.12547   0.68100   0.00000  Uiso   1.00
N276   N     0.28136   0.56269   0.66074   0.00000  Uiso   1.00
