data_job_03492
_audit_creation_date              2018-12-19
_audit_creation_method            'Materials Studio'
_symmetry_space_group_name_H-M    'P1'
_symmetry_Int_Tables_number       1
_symmetry_cell_setting            triclinic
loop_
_symmetry_equiv_pos_as_xyz
  x,y,z
_cell_length_a                    38.9481
_cell_length_b                    12.5388
_cell_length_c                    29.3053
_cell_angle_alpha                 90.0000
_cell_angle_beta                  137.7902
_cell_angle_gamma                 90.0000
loop_
_atom_site_label
_atom_site_type_symbol
_atom_site_fract_x
_atom_site_fract_y
_atom_site_fract_z
_atom_site_U_iso_or_equiv
_atom_site_adp_type
_atom_site_occupancy
C1     C     0.88782   0.30537   0.44191   0.00000  Uiso   1.00
C2     C     0.87757   0.22970   0.39213   0.00000  Uiso   1.00
C3     C     0.90590   0.13946   0.40942   0.00000  Uiso   1.00
C4     C     0.89035   0.08076   0.35642   0.00000  Uiso   1.00
C5     C     0.88090   0.95866   0.28944   0.00000  Uiso   1.00
C6     C     0.89392   0.41592   0.42693   0.00000  Uiso   1.00
C7     C     0.93598   0.48225   0.47348   0.00000  Uiso   1.00
C8     C     0.93420   0.58031   0.44977   0.00000  Uiso   1.00
C9     C     0.95011   0.74734   0.43683   0.00000  Uiso   1.00
C10    C     0.83853   0.30901   0.42111   0.00000  Uiso   1.00
C11    C     0.83402   0.28549   0.46277   0.00000  Uiso   1.00
C12    C     0.78560   0.29357   0.43417   0.00000  Uiso   1.00
C13    C     0.71551   0.29462   0.41219   0.00000  Uiso   1.00
C14    C     0.80984   0.36158   0.31704   0.00000  Uiso   1.00
C15    C     0.83522   0.26024   0.32430   0.00000  Uiso   1.00
C16    C     0.81963   0.20166   0.27126   0.00000  Uiso   1.00
C17    C     0.84792   0.11135   0.28847   0.00000  Uiso   1.00
C18    C     0.85157   0.44645   0.35910   0.00000  Uiso   1.00
C19    C     0.84972   0.54444   0.33533   0.00000  Uiso   1.00
C20    C     0.89177   0.61090   0.38183   0.00000  Uiso   1.00
C21    C     0.79617   0.33954   0.35328   0.00000  Uiso   1.00
C22    C     0.74775   0.34768   0.32461   0.00000  Uiso   1.00
C23    C     0.74317   0.32416   0.36622   0.00000  Uiso   1.00
H24    H     0.92079   0.28160   0.49471   0.00000  Uiso   1.00
H25    H     0.93867   0.11587   0.46191   0.00000  Uiso   1.00
H26    H     0.96875   0.45860   0.52596   0.00000  Uiso   1.00
H27    H     0.86680   0.26186   0.51525   0.00000  Uiso   1.00
H28    H     0.93983   0.94561   0.39563   0.00000  Uiso   1.00
H29    H     0.00325   0.66830   0.53069   0.00000  Uiso   1.00
H30    H     0.78827   0.25344   0.50811   0.00000  Uiso   1.00
H31    H     0.77687   0.38536   0.26424   0.00000  Uiso   1.00
H32    H     0.78685   0.22531   0.21878   0.00000  Uiso   1.00
H33    H     0.81694   0.56805   0.28284   0.00000  Uiso   1.00
H34    H     0.71499   0.37131   0.27213   0.00000  Uiso   1.00
H35    H     0.81661   0.03444   0.19830   0.00000  Uiso   1.00
H36    H     0.88003   0.75713   0.33337   0.00000  Uiso   1.00
H37    H     0.66505   0.34227   0.31078   0.00000  Uiso   1.00
O38    O     0.88740   0.88288   0.27123   0.00000  Uiso   1.00
O39    O     0.97059   0.83103   0.44843   0.00000  Uiso   1.00
O40    O     0.68855   0.28674   0.41880   0.00000  Uiso   1.00
N41    N     0.90945   0.98846   0.35543   0.00000  Uiso   1.00
N42    N     0.96875   0.66413   0.48170   0.00000  Uiso   1.00
N43    N     0.76777   0.27630   0.46059   0.00000  Uiso   1.00
N44    N     0.84315   0.03626   0.24925   0.00000  Uiso   1.00
N45    N     0.90245   0.71193   0.37552   0.00000  Uiso   1.00
N46    N     0.70146   0.32410   0.35441   0.00000  Uiso   1.00
C47    C     0.38782   0.80537   0.44191   0.00000  Uiso   1.00
C48    C     0.37757   0.72970   0.39213   0.00000  Uiso   1.00
C49    C     0.40590   0.63946   0.40942   0.00000  Uiso   1.00
C50    C     0.39035   0.58076   0.35642   0.00000  Uiso   1.00
C51    C     0.38090   0.45866   0.28944   0.00000  Uiso   1.00
C52    C     0.39392   0.91592   0.42693   0.00000  Uiso   1.00
C53    C     0.43598   0.98225   0.47348   0.00000  Uiso   1.00
C54    C     0.43420   0.08031   0.44977   0.00000  Uiso   1.00
C55    C     0.45011   0.24734   0.43683   0.00000  Uiso   1.00
C56    C     0.33853   0.80901   0.42111   0.00000  Uiso   1.00
C57    C     0.33402   0.78549   0.46277   0.00000  Uiso   1.00
C58    C     0.28560   0.79357   0.43417   0.00000  Uiso   1.00
C59    C     0.21551   0.79462   0.41219   0.00000  Uiso   1.00
C60    C     0.30984   0.86158   0.31704   0.00000  Uiso   1.00
C61    C     0.33522   0.76024   0.32430   0.00000  Uiso   1.00
C62    C     0.31963   0.70166   0.27126   0.00000  Uiso   1.00
C63    C     0.34792   0.61135   0.28847   0.00000  Uiso   1.00
C64    C     0.35157   0.94645   0.35910   0.00000  Uiso   1.00
C65    C     0.34972   0.04444   0.33533   0.00000  Uiso   1.00
C66    C     0.39177   0.11090   0.38183   0.00000  Uiso   1.00
C67    C     0.29617   0.83954   0.35328   0.00000  Uiso   1.00
C68    C     0.24775   0.84768   0.32461   0.00000  Uiso   1.00
C69    C     0.24317   0.82416   0.36622   0.00000  Uiso   1.00
H70    H     0.42079   0.78160   0.49471   0.00000  Uiso   1.00
H71    H     0.43867   0.61587   0.46191   0.00000  Uiso   1.00
H72    H     0.46875   0.95860   0.52596   0.00000  Uiso   1.00
H73    H     0.36680   0.76186   0.51525   0.00000  Uiso   1.00
H74    H     0.43983   0.44561   0.39563   0.00000  Uiso   1.00
H75    H     0.50325   0.16830   0.53069   0.00000  Uiso   1.00
H76    H     0.28827   0.75344   0.50811   0.00000  Uiso   1.00
H77    H     0.27687   0.88536   0.26424   0.00000  Uiso   1.00
H78    H     0.28685   0.72531   0.21878   0.00000  Uiso   1.00
H79    H     0.31694   0.06805   0.28284   0.00000  Uiso   1.00
H80    H     0.21499   0.87131   0.27213   0.00000  Uiso   1.00
H81    H     0.31661   0.53444   0.19830   0.00000  Uiso   1.00
H82    H     0.38003   0.25713   0.33337   0.00000  Uiso   1.00
H83    H     0.16505   0.84227   0.31078   0.00000  Uiso   1.00
O84    O     0.38740   0.38288   0.27123   0.00000  Uiso   1.00
O85    O     0.47059   0.33103   0.44843   0.00000  Uiso   1.00
O86    O     0.18855   0.78674   0.41880   0.00000  Uiso   1.00
N87    N     0.40945   0.48846   0.35543   0.00000  Uiso   1.00
N88    N     0.46875   0.16413   0.48170   0.00000  Uiso   1.00
N89    N     0.26777   0.77630   0.46059   0.00000  Uiso   1.00
N90    N     0.34315   0.53626   0.24925   0.00000  Uiso   1.00
N91    N     0.40245   0.21193   0.37552   0.00000  Uiso   1.00
N92    N     0.20146   0.82410   0.35441   0.00000  Uiso   1.00
C93    C     0.11218   0.30537   0.05809   0.00000  Uiso   1.00
C94    C     0.12243   0.22970   0.10787   0.00000  Uiso   1.00
C95    C     0.09410   0.13946   0.09058   0.00000  Uiso   1.00
C96    C     0.10965   0.08076   0.14358   0.00000  Uiso   1.00
C97    C     0.11910   0.95866   0.21056   0.00000  Uiso   1.00
C98    C     0.10608   0.41592   0.07307   0.00000  Uiso   1.00
C99    C     0.06402   0.48225   0.02652   0.00000  Uiso   1.00
C100   C     0.06580   0.58031   0.05023   0.00000  Uiso   1.00
C101   C     0.04989   0.74734   0.06317   0.00000  Uiso   1.00
C102   C     0.16147   0.30901   0.07889   0.00000  Uiso   1.00
C103   C     0.16598   0.28549   0.03723   0.00000  Uiso   1.00
C104   C     0.21440   0.29357   0.06583   0.00000  Uiso   1.00
C105   C     0.28449   0.29462   0.08781   0.00000  Uiso   1.00
C106   C     0.19016   0.36158   0.18296   0.00000  Uiso   1.00
C107   C     0.16478   0.26024   0.17570   0.00000  Uiso   1.00
C108   C     0.18037   0.20166   0.22874   0.00000  Uiso   1.00
C109   C     0.15208   0.11135   0.21153   0.00000  Uiso   1.00
C110   C     0.14843   0.44645   0.14090   0.00000  Uiso   1.00
C111   C     0.15028   0.54444   0.16467   0.00000  Uiso   1.00
C112   C     0.10823   0.61090   0.11817   0.00000  Uiso   1.00
C113   C     0.20383   0.33954   0.14672   0.00000  Uiso   1.00
C114   C     0.25225   0.34768   0.17539   0.00000  Uiso   1.00
C115   C     0.25683   0.32416   0.13378   0.00000  Uiso   1.00
H116   H     0.07921   0.28160   0.00529   0.00000  Uiso   1.00
H117   H     0.06133   0.11587   0.03809   0.00000  Uiso   1.00
H118   H     0.03125   0.45860   0.97404   0.00000  Uiso   1.00
H119   H     0.13320   0.26186   0.98475   0.00000  Uiso   1.00
H120   H     0.06017   0.94561   0.10437   0.00000  Uiso   1.00
H121   H     0.99675   0.66830   0.96931   0.00000  Uiso   1.00
H122   H     0.21173   0.25344   0.99189   0.00000  Uiso   1.00
H123   H     0.22313   0.38536   0.23576   0.00000  Uiso   1.00
H124   H     0.21315   0.22531   0.28122   0.00000  Uiso   1.00
H125   H     0.18306   0.56805   0.21716   0.00000  Uiso   1.00
H126   H     0.28501   0.37131   0.22787   0.00000  Uiso   1.00
H127   H     0.18339   0.03444   0.30170   0.00000  Uiso   1.00
H128   H     0.11997   0.75713   0.16663   0.00000  Uiso   1.00
H129   H     0.33495   0.34227   0.18922   0.00000  Uiso   1.00
O130   O     0.11260   0.88288   0.22877   0.00000  Uiso   1.00
O131   O     0.02941   0.83103   0.05157   0.00000  Uiso   1.00
O132   O     0.31145   0.28674   0.08120   0.00000  Uiso   1.00
N133   N     0.09055   0.98846   0.14457   0.00000  Uiso   1.00
N134   N     0.03125   0.66413   0.01830   0.00000  Uiso   1.00
N135   N     0.23223   0.27630   0.03941   0.00000  Uiso   1.00
N136   N     0.15685   0.03626   0.25075   0.00000  Uiso   1.00
N137   N     0.09755   0.71193   0.12448   0.00000  Uiso   1.00
N138   N     0.29854   0.32410   0.14559   0.00000  Uiso   1.00
C139   C     0.61218   0.80537   0.05809   0.00000  Uiso   1.00
C140   C     0.62243   0.72970   0.10787   0.00000  Uiso   1.00
C141   C     0.59410   0.63946   0.09058   0.00000  Uiso   1.00
C142   C     0.60965   0.58076   0.14358   0.00000  Uiso   1.00
C143   C     0.61910   0.45866   0.21056   0.00000  Uiso   1.00
C144   C     0.60608   0.91592   0.07307   0.00000  Uiso   1.00
C145   C     0.56402   0.98225   0.02652   0.00000  Uiso   1.00
C146   C     0.56580   0.08031   0.05023   0.00000  Uiso   1.00
C147   C     0.54989   0.24734   0.06317   0.00000  Uiso   1.00
C148   C     0.66147   0.80901   0.07889   0.00000  Uiso   1.00
C149   C     0.66598   0.78549   0.03723   0.00000  Uiso   1.00
C150   C     0.71440   0.79357   0.06583   0.00000  Uiso   1.00
C151   C     0.78449   0.79462   0.08781   0.00000  Uiso   1.00
C152   C     0.69016   0.86158   0.18296   0.00000  Uiso   1.00
C153   C     0.66478   0.76024   0.17570   0.00000  Uiso   1.00
C154   C     0.68037   0.70166   0.22874   0.00000  Uiso   1.00
C155   C     0.65208   0.61135   0.21153   0.00000  Uiso   1.00
C156   C     0.64843   0.94645   0.14090   0.00000  Uiso   1.00
C157   C     0.65028   0.04444   0.16467   0.00000  Uiso   1.00
C158   C     0.60823   0.11090   0.11817   0.00000  Uiso   1.00
C159   C     0.70383   0.83954   0.14672   0.00000  Uiso   1.00
C160   C     0.75225   0.84768   0.17539   0.00000  Uiso   1.00
C161   C     0.75683   0.82416   0.13378   0.00000  Uiso   1.00
H162   H     0.57921   0.78160   0.00529   0.00000  Uiso   1.00
H163   H     0.56133   0.61587   0.03809   0.00000  Uiso   1.00
H164   H     0.53125   0.95860   0.97404   0.00000  Uiso   1.00
H165   H     0.63320   0.76186   0.98475   0.00000  Uiso   1.00
H166   H     0.56017   0.44561   0.10437   0.00000  Uiso   1.00
H167   H     0.49675   0.16830   0.96931   0.00000  Uiso   1.00
H168   H     0.71173   0.75344   0.99189   0.00000  Uiso   1.00
H169   H     0.72313   0.88536   0.23576   0.00000  Uiso   1.00
H170   H     0.71315   0.72531   0.28122   0.00000  Uiso   1.00
H171   H     0.68306   0.06805   0.21716   0.00000  Uiso   1.00
H172   H     0.78501   0.87131   0.22787   0.00000  Uiso   1.00
H173   H     0.68339   0.53444   0.30170   0.00000  Uiso   1.00
H174   H     0.61997   0.25713   0.16663   0.00000  Uiso   1.00
H175   H     0.83495   0.84227   0.18922   0.00000  Uiso   1.00
O176   O     0.61260   0.38288   0.22877   0.00000  Uiso   1.00
O177   O     0.52941   0.33103   0.05157   0.00000  Uiso   1.00
O178   O     0.81145   0.78674   0.08120   0.00000  Uiso   1.00
N179   N     0.59055   0.48846   0.14457   0.00000  Uiso   1.00
N180   N     0.53125   0.16413   0.01830   0.00000  Uiso   1.00
N181   N     0.73223   0.77630   0.03941   0.00000  Uiso   1.00
N182   N     0.65685   0.53626   0.25075   0.00000  Uiso   1.00
N183   N     0.59755   0.21193   0.12448   0.00000  Uiso   1.00
N184   N     0.79854   0.82410   0.14559   0.00000  Uiso   1.00
C185   C     0.11218   0.69463   0.55809   0.00000  Uiso   1.00
C186   C     0.12243   0.77030   0.60787   0.00000  Uiso   1.00
C187   C     0.09410   0.86054   0.59058   0.00000  Uiso   1.00
C188   C     0.10965   0.91924   0.64358   0.00000  Uiso   1.00
C189   C     0.11910   0.04134   0.71056   0.00000  Uiso   1.00
C190   C     0.10608   0.58408   0.57307   0.00000  Uiso   1.00
C191   C     0.06402   0.51775   0.52652   0.00000  Uiso   1.00
C192   C     0.06580   0.41969   0.55023   0.00000  Uiso   1.00
C193   C     0.04989   0.25266   0.56317   0.00000  Uiso   1.00
C194   C     0.16147   0.69099   0.57889   0.00000  Uiso   1.00
C195   C     0.16598   0.71451   0.53723   0.00000  Uiso   1.00
C196   C     0.21440   0.70643   0.56583   0.00000  Uiso   1.00
C197   C     0.28449   0.70538   0.58781   0.00000  Uiso   1.00
C198   C     0.19016   0.63842   0.68296   0.00000  Uiso   1.00
C199   C     0.16478   0.73976   0.67570   0.00000  Uiso   1.00
C200   C     0.18037   0.79834   0.72874   0.00000  Uiso   1.00
C201   C     0.15208   0.88865   0.71153   0.00000  Uiso   1.00
C202   C     0.14843   0.55355   0.64090   0.00000  Uiso   1.00
C203   C     0.15028   0.45556   0.66467   0.00000  Uiso   1.00
C204   C     0.10823   0.38910   0.61817   0.00000  Uiso   1.00
C205   C     0.20383   0.66046   0.64672   0.00000  Uiso   1.00
C206   C     0.25225   0.65232   0.67539   0.00000  Uiso   1.00
C207   C     0.25683   0.67584   0.63378   0.00000  Uiso   1.00
H208   H     0.07921   0.71840   0.50529   0.00000  Uiso   1.00
H209   H     0.06133   0.88413   0.53809   0.00000  Uiso   1.00
H210   H     0.03125   0.54140   0.47404   0.00000  Uiso   1.00
H211   H     0.13320   0.73814   0.48475   0.00000  Uiso   1.00
H212   H     0.06017   0.05439   0.60437   0.00000  Uiso   1.00
H213   H     0.99675   0.33170   0.46931   0.00000  Uiso   1.00
H214   H     0.21173   0.74656   0.49189   0.00000  Uiso   1.00
H215   H     0.22313   0.61464   0.73576   0.00000  Uiso   1.00
H216   H     0.21315   0.77469   0.78122   0.00000  Uiso   1.00
H217   H     0.18306   0.43195   0.71716   0.00000  Uiso   1.00
H218   H     0.28501   0.62869   0.72787   0.00000  Uiso   1.00
H219   H     0.18339   0.96556   0.80170   0.00000  Uiso   1.00
H220   H     0.11997   0.24287   0.66663   0.00000  Uiso   1.00
H221   H     0.33495   0.65773   0.68922   0.00000  Uiso   1.00
O222   O     0.11260   0.11712   0.72877   0.00000  Uiso   1.00
O223   O     0.02941   0.16897   0.55157   0.00000  Uiso   1.00
O224   O     0.31145   0.71326   0.58120   0.00000  Uiso   1.00
N225   N     0.09055   0.01154   0.64457   0.00000  Uiso   1.00
N226   N     0.03125   0.33587   0.51830   0.00000  Uiso   1.00
N227   N     0.23223   0.72370   0.53941   0.00000  Uiso   1.00
N228   N     0.15685   0.96374   0.75075   0.00000  Uiso   1.00
N229   N     0.09755   0.28807   0.62448   0.00000  Uiso   1.00
N230   N     0.29854   0.67590   0.64559   0.00000  Uiso   1.00
C231   C     0.61218   0.19463   0.55809   0.00000  Uiso   1.00
C232   C     0.62243   0.27030   0.60787   0.00000  Uiso   1.00
C233   C     0.59410   0.36054   0.59058   0.00000  Uiso   1.00
C234   C     0.60965   0.41924   0.64358   0.00000  Uiso   1.00
C235   C     0.61910   0.54134   0.71056   0.00000  Uiso   1.00
C236   C     0.60608   0.08408   0.57307   0.00000  Uiso   1.00
C237   C     0.56402   0.01775   0.52652   0.00000  Uiso   1.00
C238   C     0.56580   0.91969   0.55023   0.00000  Uiso   1.00
C239   C     0.54989   0.75266   0.56317   0.00000  Uiso   1.00
C240   C     0.66147   0.19099   0.57889   0.00000  Uiso   1.00
C241   C     0.66598   0.21451   0.53723   0.00000  Uiso   1.00
C242   C     0.71440   0.20643   0.56583   0.00000  Uiso   1.00
C243   C     0.78449   0.20538   0.58781   0.00000  Uiso   1.00
C244   C     0.69016   0.13842   0.68296   0.00000  Uiso   1.00
C245   C     0.66478   0.23976   0.67570   0.00000  Uiso   1.00
C246   C     0.68037   0.29834   0.72874   0.00000  Uiso   1.00
C247   C     0.65208   0.38865   0.71153   0.00000  Uiso   1.00
C248   C     0.64843   0.05355   0.64090   0.00000  Uiso   1.00
C249   C     0.65028   0.95556   0.66467   0.00000  Uiso   1.00
C250   C     0.60823   0.88910   0.61817   0.00000  Uiso   1.00
C251   C     0.70383   0.16046   0.64672   0.00000  Uiso   1.00
C252   C     0.75225   0.15232   0.67539   0.00000  Uiso   1.00
C253   C     0.75683   0.17584   0.63378   0.00000  Uiso   1.00
H254   H     0.57921   0.21840   0.50529   0.00000  Uiso   1.00
H255   H     0.56133   0.38413   0.53809   0.00000  Uiso   1.00
H256   H     0.53125   0.04140   0.47404   0.00000  Uiso   1.00
H257   H     0.63320   0.23814   0.48475   0.00000  Uiso   1.00
H258   H     0.56017   0.55439   0.60437   0.00000  Uiso   1.00
H259   H     0.49675   0.83170   0.46931   0.00000  Uiso   1.00
H260   H     0.71173   0.24656   0.49189   0.00000  Uiso   1.00
H261   H     0.72313   0.11464   0.73576   0.00000  Uiso   1.00
H262   H     0.71315   0.27469   0.78122   0.00000  Uiso   1.00
H263   H     0.68306   0.93195   0.71716   0.00000  Uiso   1.00
H264   H     0.78501   0.12869   0.72787   0.00000  Uiso   1.00
H265   H     0.68339   0.46556   0.80170   0.00000  Uiso   1.00
H266   H     0.61997   0.74287   0.66663   0.00000  Uiso   1.00
H267   H     0.83495   0.15773   0.68922   0.00000  Uiso   1.00
O268   O     0.61260   0.61712   0.72877   0.00000  Uiso   1.00
O269   O     0.52941   0.66897   0.55157   0.00000  Uiso   1.00
O270   O     0.81145   0.21326   0.58120   0.00000  Uiso   1.00
N271   N     0.59055   0.51154   0.64457   0.00000  Uiso   1.00
N272   N     0.53125   0.83587   0.51830   0.00000  Uiso   1.00
N273   N     0.73223   0.22370   0.53941   0.00000  Uiso   1.00
N274   N     0.65685   0.46374   0.75075   0.00000  Uiso   1.00
N275   N     0.59755   0.78807   0.62448   0.00000  Uiso   1.00
N276   N     0.79854   0.17590   0.64559   0.00000  Uiso   1.00
C277   C     0.88782   0.69463   0.94191   0.00000  Uiso   1.00
C278   C     0.87757   0.77030   0.89213   0.00000  Uiso   1.00
C279   C     0.90590   0.86054   0.90942   0.00000  Uiso   1.00
C280   C     0.89035   0.91924   0.85642   0.00000  Uiso   1.00
C281   C     0.88090   0.04134   0.78944   0.00000  Uiso   1.00
C282   C     0.89392   0.58408   0.92693   0.00000  Uiso   1.00
C283   C     0.93598   0.51775   0.97348   0.00000  Uiso   1.00
C284   C     0.93420   0.41969   0.94977   0.00000  Uiso   1.00
C285   C     0.95011   0.25266   0.93683   0.00000  Uiso   1.00
C286   C     0.83853   0.69099   0.92111   0.00000  Uiso   1.00
C287   C     0.83402   0.71451   0.96277   0.00000  Uiso   1.00
C288   C     0.78560   0.70643   0.93417   0.00000  Uiso   1.00
C289   C     0.71551   0.70538   0.91219   0.00000  Uiso   1.00
C290   C     0.80984   0.63842   0.81704   0.00000  Uiso   1.00
C291   C     0.83522   0.73976   0.82430   0.00000  Uiso   1.00
C292   C     0.81963   0.79834   0.77126   0.00000  Uiso   1.00
C293   C     0.84792   0.88865   0.78847   0.00000  Uiso   1.00
C294   C     0.85157   0.55355   0.85910   0.00000  Uiso   1.00
C295   C     0.84972   0.45556   0.83533   0.00000  Uiso   1.00
C296   C     0.89177   0.38910   0.88183   0.00000  Uiso   1.00
C297   C     0.79617   0.66046   0.85328   0.00000  Uiso   1.00
C298   C     0.74775   0.65232   0.82461   0.00000  Uiso   1.00
C299   C     0.74317   0.67584   0.86622   0.00000  Uiso   1.00
H300   H     0.92079   0.71840   0.99471   0.00000  Uiso   1.00
H301   H     0.93867   0.88413   0.96191   0.00000  Uiso   1.00
H302   H     0.96875   0.54140   0.02596   0.00000  Uiso   1.00
H303   H     0.86680   0.73814   0.01525   0.00000  Uiso   1.00
H304   H     0.93983   0.05439   0.89563   0.00000  Uiso   1.00
H305   H     0.00325   0.33170   0.03069   0.00000  Uiso   1.00
H306   H     0.78827   0.74656   0.00811   0.00000  Uiso   1.00
H307   H     0.77687   0.61464   0.76424   0.00000  Uiso   1.00
H308   H     0.78685   0.77469   0.71878   0.00000  Uiso   1.00
H309   H     0.81694   0.43195   0.78284   0.00000  Uiso   1.00
H310   H     0.71499   0.62869   0.77213   0.00000  Uiso   1.00
H311   H     0.81661   0.96556   0.69830   0.00000  Uiso   1.00
H312   H     0.88003   0.24287   0.83337   0.00000  Uiso   1.00
H313   H     0.66505   0.65773   0.81078   0.00000  Uiso   1.00
O314   O     0.88740   0.11712   0.77123   0.00000  Uiso   1.00
O315   O     0.97059   0.16897   0.94843   0.00000  Uiso   1.00
O316   O     0.68855   0.71326   0.91880   0.00000  Uiso   1.00
N317   N     0.90945   0.01154   0.85543   0.00000  Uiso   1.00
N318   N     0.96875   0.33587   0.98170   0.00000  Uiso   1.00
N319   N     0.76777   0.72370   0.96059   0.00000  Uiso   1.00
N320   N     0.84315   0.96374   0.74925   0.00000  Uiso   1.00
N321   N     0.90245   0.28807   0.87552   0.00000  Uiso   1.00
N322   N     0.70146   0.67590   0.85441   0.00000  Uiso   1.00
C323   C     0.38782   0.19463   0.94191   0.00000  Uiso   1.00
C324   C     0.37757   0.27030   0.89213   0.00000  Uiso   1.00
C325   C     0.40590   0.36054   0.90942   0.00000  Uiso   1.00
C326   C     0.39035   0.41924   0.85642   0.00000  Uiso   1.00
C327   C     0.38090   0.54134   0.78944   0.00000  Uiso   1.00
C328   C     0.39392   0.08408   0.92693   0.00000  Uiso   1.00
C329   C     0.43598   0.01775   0.97348   0.00000  Uiso   1.00
C330   C     0.43420   0.91969   0.94977   0.00000  Uiso   1.00
C331   C     0.45011   0.75266   0.93683   0.00000  Uiso   1.00
C332   C     0.33853   0.19099   0.92111   0.00000  Uiso   1.00
C333   C     0.33402   0.21451   0.96277   0.00000  Uiso   1.00
C334   C     0.28560   0.20643   0.93417   0.00000  Uiso   1.00
C335   C     0.21551   0.20538   0.91219   0.00000  Uiso   1.00
C336   C     0.30984   0.13842   0.81704   0.00000  Uiso   1.00
C337   C     0.33522   0.23976   0.82430   0.00000  Uiso   1.00
C338   C     0.31963   0.29834   0.77126   0.00000  Uiso   1.00
C339   C     0.34792   0.38865   0.78847   0.00000  Uiso   1.00
C340   C     0.35157   0.05355   0.85910   0.00000  Uiso   1.00
C341   C     0.34972   0.95556   0.83533   0.00000  Uiso   1.00
C342   C     0.39177   0.88910   0.88183   0.00000  Uiso   1.00
C343   C     0.29617   0.16046   0.85328   0.00000  Uiso   1.00
C344   C     0.24775   0.15232   0.82461   0.00000  Uiso   1.00
C345   C     0.24317   0.17584   0.86622   0.00000  Uiso   1.00
H346   H     0.42079   0.21840   0.99471   0.00000  Uiso   1.00
H347   H     0.43867   0.38413   0.96191   0.00000  Uiso   1.00
H348   H     0.46875   0.04140   0.02596   0.00000  Uiso   1.00
H349   H     0.36680   0.23814   0.01525   0.00000  Uiso   1.00
H350   H     0.43983   0.55439   0.89563   0.00000  Uiso   1.00
H351   H     0.50325   0.83170   0.03069   0.00000  Uiso   1.00
H352   H     0.28827   0.24656   0.00811   0.00000  Uiso   1.00
H353   H     0.27687   0.11464   0.76424   0.00000  Uiso   1.00
H354   H     0.28685   0.27469   0.71878   0.00000  Uiso   1.00
H355   H     0.31694   0.93195   0.78284   0.00000  Uiso   1.00
H356   H     0.21499   0.12869   0.77213   0.00000  Uiso   1.00
H357   H     0.31661   0.46556   0.69830   0.00000  Uiso   1.00
H358   H     0.38003   0.74287   0.83337   0.00000  Uiso   1.00
H359   H     0.16505   0.15773   0.81078   0.00000  Uiso   1.00
O360   O     0.38740   0.61712   0.77123   0.00000  Uiso   1.00
O361   O     0.47059   0.66897   0.94843   0.00000  Uiso   1.00
O362   O     0.18855   0.21326   0.91880   0.00000  Uiso   1.00
N363   N     0.40945   0.51154   0.85543   0.00000  Uiso   1.00
N364   N     0.46875   0.83587   0.98170   0.00000  Uiso   1.00
N365   N     0.26777   0.22370   0.96059   0.00000  Uiso   1.00
N366   N     0.34315   0.46374   0.74925   0.00000  Uiso   1.00
N367   N     0.40245   0.78807   0.87552   0.00000  Uiso   1.00
N368   N     0.20146   0.17590   0.85441   0.00000  Uiso   1.00
