data_job_01519
_audit_creation_date              2018-12-19
_audit_creation_method            'Materials Studio'
_symmetry_space_group_name_H-M    'P1'
_symmetry_Int_Tables_number       1
_symmetry_cell_setting            triclinic
loop_
_symmetry_equiv_pos_as_xyz
  x,y,z
_cell_length_a                    20.9624
_cell_length_b                    20.9624
_cell_length_c                    9.4707
_cell_angle_alpha                 90.0000
_cell_angle_beta                  90.0000
_cell_angle_gamma                 90.0000
loop_
_atom_site_label
_atom_site_type_symbol
_atom_site_fract_x
_atom_site_fract_y
_atom_site_fract_z
_atom_site_U_iso_or_equiv
_atom_site_adp_type
_atom_site_occupancy
C1     C     0.71296   0.72709   0.72248   0.00000  Uiso   1.00
C2     C     0.65992   0.69906   0.81355   0.00000  Uiso   1.00
C3     C     0.65923   0.69714   0.96001   0.00000  Uiso   1.00
C4     C     0.60635   0.66947   0.02357   0.00000  Uiso   1.00
C5     C     0.53166   0.62969   0.17716   0.00000  Uiso   1.00
C6     C     0.73412   0.67369   0.62369   0.00000  Uiso   1.00
C7     C     0.79583   0.65044   0.61052   0.00000  Uiso   1.00
C8     C     0.80541   0.60142   0.51425   0.00000  Uiso   1.00
C9     C     0.84594   0.52228   0.37301   0.00000  Uiso   1.00
C10    C     0.68132   0.77719   0.62908   0.00000  Uiso   1.00
C11    C     0.69864   0.84097   0.62040   0.00000  Uiso   1.00
C12    C     0.66378   0.87908   0.52863   0.00000  Uiso   1.00
C13    C     0.62232   0.96065   0.39576   0.00000  Uiso   1.00
C14    C     0.62027   0.68137   0.57491   0.00000  Uiso   1.00
C15    C     0.60957   0.67422   0.73339   0.00000  Uiso   1.00
C16    C     0.55667   0.64655   0.79674   0.00000  Uiso   1.00
C17    C     0.55591   0.64459   0.94327   0.00000  Uiso   1.00
C18    C     0.68378   0.64885   0.54354   0.00000  Uiso   1.00
C19    C     0.69327   0.59985   0.44725   0.00000  Uiso   1.00
C20    C     0.75497   0.57654   0.43395   0.00000  Uiso   1.00
C21    C     0.63097   0.75235   0.54892   0.00000  Uiso   1.00
C22    C     0.59608   0.79038   0.45714   0.00000  Uiso   1.00
C23    C     0.61334   0.85420   0.44833   0.00000  Uiso   1.00
H24    H     0.75216   0.74642   0.78488   0.00000  Uiso   1.00
H25    H     0.69821   0.71636   0.02200   0.00000  Uiso   1.00
H26    H     0.83478   0.66968   0.67256   0.00000  Uiso   1.00
H27    H     0.73760   0.86017   0.68244   0.00000  Uiso   1.00
H28    H     0.61620   0.67205   0.24955   0.00000  Uiso   1.00
H29    H     0.90418   0.57363   0.51269   0.00000  Uiso   1.00
H30    H     0.69926   0.97533   0.53353   0.00000  Uiso   1.00
H31    H     0.58107   0.66203   0.51250   0.00000  Uiso   1.00
H32    H     0.51772   0.62734   0.73468   0.00000  Uiso   1.00
H33    H     0.65430   0.58065   0.38524   0.00000  Uiso   1.00
H34    H     0.55712   0.77114   0.39513   0.00000  Uiso   1.00
H35    H     0.46971   0.59979   0.01635   0.00000  Uiso   1.00
H36    H     0.75769   0.50137   0.27948   0.00000  Uiso   1.00
H37    H     0.55277   0.90307   0.30033   0.00000  Uiso   1.00
O38    O     0.50438   0.61460   0.28402   0.00000  Uiso   1.00
O39    O     0.88220   0.48549   0.31727   0.00000  Uiso   1.00
O40    O     0.61336   0.01250   0.34463   0.00000  Uiso   1.00
N41    N     0.59041   0.65982   0.16417   0.00000  Uiso   1.00
N42    N     0.85965   0.56779   0.47527   0.00000  Uiso   1.00
N43    N     0.66808   0.94334   0.49473   0.00000  Uiso   1.00
N44    N     0.51158   0.62094   0.03869   0.00000  Uiso   1.00
N45    N     0.78083   0.52891   0.34979   0.00000  Uiso   1.00
N46    N     0.58926   0.90446   0.36925   0.00000  Uiso   1.00
C47    C     0.21296   0.22709   0.22248   0.00000  Uiso   1.00
C48    C     0.15992   0.19906   0.31355   0.00000  Uiso   1.00
C49    C     0.15923   0.19714   0.46001   0.00000  Uiso   1.00
C50    C     0.10635   0.16947   0.52357   0.00000  Uiso   1.00
C51    C     0.03166   0.12969   0.67716   0.00000  Uiso   1.00
C52    C     0.23412   0.17369   0.12369   0.00000  Uiso   1.00
C53    C     0.29583   0.15044   0.11052   0.00000  Uiso   1.00
C54    C     0.30541   0.10142   0.01425   0.00000  Uiso   1.00
C55    C     0.34594   0.02228   0.87301   0.00000  Uiso   1.00
C56    C     0.18132   0.27719   0.12908   0.00000  Uiso   1.00
C57    C     0.19864   0.34097   0.12040   0.00000  Uiso   1.00
C58    C     0.16378   0.37908   0.02863   0.00000  Uiso   1.00
C59    C     0.12232   0.46065   0.89576   0.00000  Uiso   1.00
C60    C     0.12027   0.18137   0.07491   0.00000  Uiso   1.00
C61    C     0.10957   0.17422   0.23339   0.00000  Uiso   1.00
C62    C     0.05667   0.14655   0.29674   0.00000  Uiso   1.00
C63    C     0.05591   0.14459   0.44327   0.00000  Uiso   1.00
C64    C     0.18378   0.14885   0.04354   0.00000  Uiso   1.00
C65    C     0.19327   0.09985   0.94725   0.00000  Uiso   1.00
C66    C     0.25497   0.07654   0.93395   0.00000  Uiso   1.00
C67    C     0.13097   0.25235   0.04892   0.00000  Uiso   1.00
C68    C     0.09608   0.29038   0.95714   0.00000  Uiso   1.00
C69    C     0.11334   0.35420   0.94833   0.00000  Uiso   1.00
H70    H     0.25216   0.24642   0.28488   0.00000  Uiso   1.00
H71    H     0.19821   0.21636   0.52200   0.00000  Uiso   1.00
H72    H     0.33478   0.16968   0.17256   0.00000  Uiso   1.00
H73    H     0.23760   0.36017   0.18244   0.00000  Uiso   1.00
H74    H     0.11620   0.17205   0.74955   0.00000  Uiso   1.00
H75    H     0.40418   0.07363   0.01269   0.00000  Uiso   1.00
H76    H     0.19926   0.47533   0.03353   0.00000  Uiso   1.00
H77    H     0.08107   0.16203   0.01250   0.00000  Uiso   1.00
H78    H     0.01772   0.12734   0.23468   0.00000  Uiso   1.00
H79    H     0.15430   0.08065   0.88524   0.00000  Uiso   1.00
H80    H     0.05712   0.27114   0.89513   0.00000  Uiso   1.00
H81    H     0.96971   0.09979   0.51635   0.00000  Uiso   1.00
H82    H     0.25769   0.00137   0.77948   0.00000  Uiso   1.00
H83    H     0.05277   0.40307   0.80033   0.00000  Uiso   1.00
O84    O     0.00438   0.11460   0.78402   0.00000  Uiso   1.00
O85    O     0.38220   0.98549   0.81727   0.00000  Uiso   1.00
O86    O     0.11336   0.51250   0.84463   0.00000  Uiso   1.00
N87    N     0.09041   0.15982   0.66417   0.00000  Uiso   1.00
N88    N     0.35965   0.06779   0.97527   0.00000  Uiso   1.00
N89    N     0.16808   0.44334   0.99473   0.00000  Uiso   1.00
N90    N     0.01158   0.12094   0.53869   0.00000  Uiso   1.00
N91    N     0.28083   0.02891   0.84979   0.00000  Uiso   1.00
N92    N     0.08926   0.40446   0.86925   0.00000  Uiso   1.00
C93    C     0.28704   0.27291   0.72248   0.00000  Uiso   1.00
C94    C     0.34008   0.30094   0.81355   0.00000  Uiso   1.00
C95    C     0.34077   0.30286   0.96001   0.00000  Uiso   1.00
C96    C     0.39365   0.33053   0.02357   0.00000  Uiso   1.00
C97    C     0.46834   0.37031   0.17716   0.00000  Uiso   1.00
C98    C     0.26588   0.32631   0.62369   0.00000  Uiso   1.00
C99    C     0.20417   0.34956   0.61052   0.00000  Uiso   1.00
C100   C     0.19459   0.39858   0.51425   0.00000  Uiso   1.00
C101   C     0.15406   0.47772   0.37301   0.00000  Uiso   1.00
C102   C     0.31868   0.22281   0.62908   0.00000  Uiso   1.00
C103   C     0.30136   0.15903   0.62040   0.00000  Uiso   1.00
C104   C     0.33622   0.12092   0.52863   0.00000  Uiso   1.00
C105   C     0.37768   0.03935   0.39576   0.00000  Uiso   1.00
C106   C     0.37973   0.31863   0.57491   0.00000  Uiso   1.00
C107   C     0.39043   0.32578   0.73339   0.00000  Uiso   1.00
C108   C     0.44333   0.35345   0.79674   0.00000  Uiso   1.00
C109   C     0.44409   0.35541   0.94327   0.00000  Uiso   1.00
C110   C     0.31622   0.35115   0.54354   0.00000  Uiso   1.00
C111   C     0.30673   0.40015   0.44725   0.00000  Uiso   1.00
C112   C     0.24503   0.42346   0.43395   0.00000  Uiso   1.00
C113   C     0.36903   0.24765   0.54892   0.00000  Uiso   1.00
C114   C     0.40392   0.20962   0.45714   0.00000  Uiso   1.00
C115   C     0.38666   0.14580   0.44833   0.00000  Uiso   1.00
H116   H     0.24784   0.25358   0.78488   0.00000  Uiso   1.00
H117   H     0.30179   0.28364   0.02200   0.00000  Uiso   1.00
H118   H     0.16522   0.33032   0.67256   0.00000  Uiso   1.00
H119   H     0.26240   0.13983   0.68244   0.00000  Uiso   1.00
H120   H     0.38380   0.32795   0.24955   0.00000  Uiso   1.00
H121   H     0.09582   0.42637   0.51269   0.00000  Uiso   1.00
H122   H     0.30074   0.02467   0.53353   0.00000  Uiso   1.00
H123   H     0.41893   0.33797   0.51250   0.00000  Uiso   1.00
H124   H     0.48228   0.37266   0.73468   0.00000  Uiso   1.00
H125   H     0.34570   0.41935   0.38524   0.00000  Uiso   1.00
H126   H     0.44288   0.22886   0.39513   0.00000  Uiso   1.00
H127   H     0.53029   0.40021   0.01635   0.00000  Uiso   1.00
H128   H     0.24231   0.49863   0.27948   0.00000  Uiso   1.00
H129   H     0.44723   0.09693   0.30033   0.00000  Uiso   1.00
O130   O     0.49562   0.38540   0.28402   0.00000  Uiso   1.00
O131   O     0.11780   0.51451   0.31727   0.00000  Uiso   1.00
O132   O     0.38664   0.98750   0.34463   0.00000  Uiso   1.00
N133   N     0.40959   0.34018   0.16417   0.00000  Uiso   1.00
N134   N     0.14035   0.43221   0.47527   0.00000  Uiso   1.00
N135   N     0.33192   0.05666   0.49473   0.00000  Uiso   1.00
N136   N     0.48842   0.37906   0.03869   0.00000  Uiso   1.00
N137   N     0.21917   0.47109   0.34979   0.00000  Uiso   1.00
N138   N     0.41074   0.09554   0.36925   0.00000  Uiso   1.00
C139   C     0.78704   0.77291   0.22248   0.00000  Uiso   1.00
C140   C     0.84008   0.80094   0.31355   0.00000  Uiso   1.00
C141   C     0.84077   0.80286   0.46001   0.00000  Uiso   1.00
C142   C     0.89365   0.83053   0.52357   0.00000  Uiso   1.00
C143   C     0.96834   0.87031   0.67716   0.00000  Uiso   1.00
C144   C     0.76588   0.82631   0.12369   0.00000  Uiso   1.00
C145   C     0.70417   0.84956   0.11052   0.00000  Uiso   1.00
C146   C     0.69459   0.89858   0.01425   0.00000  Uiso   1.00
C147   C     0.65406   0.97772   0.87301   0.00000  Uiso   1.00
C148   C     0.81868   0.72281   0.12908   0.00000  Uiso   1.00
C149   C     0.80136   0.65903   0.12040   0.00000  Uiso   1.00
C150   C     0.83622   0.62092   0.02863   0.00000  Uiso   1.00
C151   C     0.87768   0.53935   0.89576   0.00000  Uiso   1.00
C152   C     0.87973   0.81863   0.07491   0.00000  Uiso   1.00
C153   C     0.89043   0.82578   0.23339   0.00000  Uiso   1.00
C154   C     0.94333   0.85345   0.29674   0.00000  Uiso   1.00
C155   C     0.94409   0.85541   0.44327   0.00000  Uiso   1.00
C156   C     0.81622   0.85115   0.04354   0.00000  Uiso   1.00
C157   C     0.80673   0.90015   0.94725   0.00000  Uiso   1.00
C158   C     0.74503   0.92346   0.93395   0.00000  Uiso   1.00
C159   C     0.86903   0.74765   0.04892   0.00000  Uiso   1.00
C160   C     0.90392   0.70962   0.95714   0.00000  Uiso   1.00
C161   C     0.88666   0.64580   0.94833   0.00000  Uiso   1.00
H162   H     0.74784   0.75358   0.28488   0.00000  Uiso   1.00
H163   H     0.80179   0.78364   0.52200   0.00000  Uiso   1.00
H164   H     0.66522   0.83032   0.17256   0.00000  Uiso   1.00
H165   H     0.76240   0.63983   0.18244   0.00000  Uiso   1.00
H166   H     0.88380   0.82795   0.74955   0.00000  Uiso   1.00
H167   H     0.59582   0.92637   0.01269   0.00000  Uiso   1.00
H168   H     0.80074   0.52467   0.03353   0.00000  Uiso   1.00
H169   H     0.91893   0.83797   0.01250   0.00000  Uiso   1.00
H170   H     0.98228   0.87266   0.23468   0.00000  Uiso   1.00
H171   H     0.84570   0.91935   0.88524   0.00000  Uiso   1.00
H172   H     0.94288   0.72886   0.89513   0.00000  Uiso   1.00
H173   H     0.03029   0.90021   0.51635   0.00000  Uiso   1.00
H174   H     0.74231   0.99863   0.77948   0.00000  Uiso   1.00
H175   H     0.94723   0.59693   0.80033   0.00000  Uiso   1.00
O176   O     0.99562   0.88540   0.78402   0.00000  Uiso   1.00
O177   O     0.61780   0.01451   0.81727   0.00000  Uiso   1.00
O178   O     0.88664   0.48750   0.84463   0.00000  Uiso   1.00
N179   N     0.90959   0.84018   0.66417   0.00000  Uiso   1.00
N180   N     0.64035   0.93221   0.97527   0.00000  Uiso   1.00
N181   N     0.83192   0.55666   0.99473   0.00000  Uiso   1.00
N182   N     0.98842   0.87906   0.53869   0.00000  Uiso   1.00
N183   N     0.71917   0.97109   0.84979   0.00000  Uiso   1.00
N184   N     0.91074   0.59554   0.86925   0.00000  Uiso   1.00
C185   C     0.72709   0.28704   0.27752   0.00000  Uiso   1.00
C186   C     0.69906   0.34008   0.18645   0.00000  Uiso   1.00
C187   C     0.69714   0.34077   0.03999   0.00000  Uiso   1.00
C188   C     0.66947   0.39365   0.97643   0.00000  Uiso   1.00
C189   C     0.62969   0.46834   0.82284   0.00000  Uiso   1.00
C190   C     0.67369   0.26588   0.37631   0.00000  Uiso   1.00
C191   C     0.65044   0.20417   0.38948   0.00000  Uiso   1.00
C192   C     0.60142   0.19459   0.48575   0.00000  Uiso   1.00
C193   C     0.52228   0.15406   0.62699   0.00000  Uiso   1.00
C194   C     0.77719   0.31868   0.37092   0.00000  Uiso   1.00
C195   C     0.84097   0.30136   0.37960   0.00000  Uiso   1.00
C196   C     0.87908   0.33622   0.47137   0.00000  Uiso   1.00
C197   C     0.96065   0.37768   0.60424   0.00000  Uiso   1.00
C198   C     0.68137   0.37973   0.42509   0.00000  Uiso   1.00
C199   C     0.67422   0.39043   0.26661   0.00000  Uiso   1.00
C200   C     0.64655   0.44333   0.20326   0.00000  Uiso   1.00
C201   C     0.64459   0.44409   0.05673   0.00000  Uiso   1.00
C202   C     0.64885   0.31622   0.45646   0.00000  Uiso   1.00
C203   C     0.59985   0.30673   0.55275   0.00000  Uiso   1.00
C204   C     0.57654   0.24503   0.56605   0.00000  Uiso   1.00
C205   C     0.75235   0.36903   0.45108   0.00000  Uiso   1.00
C206   C     0.79038   0.40392   0.54286   0.00000  Uiso   1.00
C207   C     0.85420   0.38666   0.55167   0.00000  Uiso   1.00
H208   H     0.74642   0.24784   0.21512   0.00000  Uiso   1.00
H209   H     0.71636   0.30179   0.97800   0.00000  Uiso   1.00
H210   H     0.66968   0.16522   0.32744   0.00000  Uiso   1.00
H211   H     0.86017   0.26240   0.31756   0.00000  Uiso   1.00
H212   H     0.67205   0.38380   0.75045   0.00000  Uiso   1.00
H213   H     0.57363   0.09582   0.48731   0.00000  Uiso   1.00
H214   H     0.97533   0.30074   0.46647   0.00000  Uiso   1.00
H215   H     0.66203   0.41893   0.48750   0.00000  Uiso   1.00
H216   H     0.62734   0.48228   0.26532   0.00000  Uiso   1.00
H217   H     0.58065   0.34570   0.61476   0.00000  Uiso   1.00
H218   H     0.77114   0.44288   0.60487   0.00000  Uiso   1.00
H219   H     0.59979   0.53029   0.98365   0.00000  Uiso   1.00
H220   H     0.50137   0.24231   0.72052   0.00000  Uiso   1.00
H221   H     0.90307   0.44723   0.69967   0.00000  Uiso   1.00
O222   O     0.61460   0.49562   0.71598   0.00000  Uiso   1.00
O223   O     0.48549   0.11780   0.68273   0.00000  Uiso   1.00
O224   O     0.01250   0.38664   0.65537   0.00000  Uiso   1.00
N225   N     0.65982   0.40959   0.83583   0.00000  Uiso   1.00
N226   N     0.56779   0.14035   0.52473   0.00000  Uiso   1.00
N227   N     0.94334   0.33192   0.50527   0.00000  Uiso   1.00
N228   N     0.62094   0.48842   0.96131   0.00000  Uiso   1.00
N229   N     0.52891   0.21917   0.65021   0.00000  Uiso   1.00
N230   N     0.90446   0.41074   0.63075   0.00000  Uiso   1.00
C231   C     0.22709   0.78704   0.77752   0.00000  Uiso   1.00
C232   C     0.19906   0.84008   0.68645   0.00000  Uiso   1.00
C233   C     0.19714   0.84077   0.53999   0.00000  Uiso   1.00
C234   C     0.16947   0.89365   0.47643   0.00000  Uiso   1.00
C235   C     0.12969   0.96834   0.32284   0.00000  Uiso   1.00
C236   C     0.17369   0.76588   0.87631   0.00000  Uiso   1.00
C237   C     0.15044   0.70417   0.88948   0.00000  Uiso   1.00
C238   C     0.10142   0.69459   0.98575   0.00000  Uiso   1.00
C239   C     0.02228   0.65406   0.12699   0.00000  Uiso   1.00
C240   C     0.27719   0.81868   0.87092   0.00000  Uiso   1.00
C241   C     0.34097   0.80136   0.87960   0.00000  Uiso   1.00
C242   C     0.37908   0.83622   0.97137   0.00000  Uiso   1.00
C243   C     0.46065   0.87768   0.10424   0.00000  Uiso   1.00
C244   C     0.18137   0.87973   0.92509   0.00000  Uiso   1.00
C245   C     0.17422   0.89043   0.76661   0.00000  Uiso   1.00
C246   C     0.14655   0.94333   0.70326   0.00000  Uiso   1.00
C247   C     0.14459   0.94409   0.55673   0.00000  Uiso   1.00
C248   C     0.14885   0.81622   0.95646   0.00000  Uiso   1.00
C249   C     0.09985   0.80673   0.05275   0.00000  Uiso   1.00
C250   C     0.07654   0.74503   0.06605   0.00000  Uiso   1.00
C251   C     0.25235   0.86903   0.95108   0.00000  Uiso   1.00
C252   C     0.29038   0.90392   0.04286   0.00000  Uiso   1.00
C253   C     0.35420   0.88666   0.05167   0.00000  Uiso   1.00
H254   H     0.24642   0.74784   0.71512   0.00000  Uiso   1.00
H255   H     0.21636   0.80179   0.47800   0.00000  Uiso   1.00
H256   H     0.16968   0.66522   0.82744   0.00000  Uiso   1.00
H257   H     0.36017   0.76240   0.81756   0.00000  Uiso   1.00
H258   H     0.17205   0.88380   0.25045   0.00000  Uiso   1.00
H259   H     0.07363   0.59582   0.98731   0.00000  Uiso   1.00
H260   H     0.47533   0.80074   0.96647   0.00000  Uiso   1.00
H261   H     0.16203   0.91893   0.98750   0.00000  Uiso   1.00
H262   H     0.12734   0.98228   0.76532   0.00000  Uiso   1.00
H263   H     0.08065   0.84570   0.11476   0.00000  Uiso   1.00
H264   H     0.27114   0.94288   0.10487   0.00000  Uiso   1.00
H265   H     0.09979   0.03029   0.48365   0.00000  Uiso   1.00
H266   H     0.00137   0.74231   0.22052   0.00000  Uiso   1.00
H267   H     0.40307   0.94723   0.19967   0.00000  Uiso   1.00
O268   O     0.11460   0.99562   0.21598   0.00000  Uiso   1.00
O269   O     0.98549   0.61780   0.18273   0.00000  Uiso   1.00
O270   O     0.51250   0.88664   0.15537   0.00000  Uiso   1.00
N271   N     0.15982   0.90959   0.33583   0.00000  Uiso   1.00
N272   N     0.06779   0.64035   0.02473   0.00000  Uiso   1.00
N273   N     0.44334   0.83192   0.00527   0.00000  Uiso   1.00
N274   N     0.12094   0.98842   0.46131   0.00000  Uiso   1.00
N275   N     0.02891   0.71917   0.15021   0.00000  Uiso   1.00
N276   N     0.40446   0.91074   0.13075   0.00000  Uiso   1.00
C277   C     0.27291   0.71296   0.27752   0.00000  Uiso   1.00
C278   C     0.30094   0.65992   0.18645   0.00000  Uiso   1.00
C279   C     0.30286   0.65923   0.03999   0.00000  Uiso   1.00
C280   C     0.33053   0.60635   0.97643   0.00000  Uiso   1.00
C281   C     0.37031   0.53166   0.82284   0.00000  Uiso   1.00
C282   C     0.32631   0.73412   0.37631   0.00000  Uiso   1.00
C283   C     0.34956   0.79583   0.38948   0.00000  Uiso   1.00
C284   C     0.39858   0.80541   0.48575   0.00000  Uiso   1.00
C285   C     0.47772   0.84594   0.62699   0.00000  Uiso   1.00
C286   C     0.22281   0.68132   0.37092   0.00000  Uiso   1.00
C287   C     0.15903   0.69864   0.37960   0.00000  Uiso   1.00
C288   C     0.12092   0.66378   0.47137   0.00000  Uiso   1.00
C289   C     0.03935   0.62232   0.60424   0.00000  Uiso   1.00
C290   C     0.31863   0.62027   0.42509   0.00000  Uiso   1.00
C291   C     0.32578   0.60957   0.26661   0.00000  Uiso   1.00
C292   C     0.35345   0.55667   0.20326   0.00000  Uiso   1.00
C293   C     0.35541   0.55591   0.05673   0.00000  Uiso   1.00
C294   C     0.35115   0.68378   0.45646   0.00000  Uiso   1.00
C295   C     0.40015   0.69327   0.55275   0.00000  Uiso   1.00
C296   C     0.42346   0.75497   0.56605   0.00000  Uiso   1.00
C297   C     0.24765   0.63097   0.45108   0.00000  Uiso   1.00
C298   C     0.20962   0.59608   0.54286   0.00000  Uiso   1.00
C299   C     0.14580   0.61334   0.55167   0.00000  Uiso   1.00
H300   H     0.25358   0.75216   0.21512   0.00000  Uiso   1.00
H301   H     0.28364   0.69821   0.97800   0.00000  Uiso   1.00
H302   H     0.33032   0.83478   0.32744   0.00000  Uiso   1.00
H303   H     0.13983   0.73760   0.31756   0.00000  Uiso   1.00
H304   H     0.32795   0.61620   0.75045   0.00000  Uiso   1.00
H305   H     0.42637   0.90418   0.48731   0.00000  Uiso   1.00
H306   H     0.02467   0.69926   0.46647   0.00000  Uiso   1.00
H307   H     0.33797   0.58107   0.48750   0.00000  Uiso   1.00
H308   H     0.37266   0.51772   0.26532   0.00000  Uiso   1.00
H309   H     0.41935   0.65430   0.61476   0.00000  Uiso   1.00
H310   H     0.22886   0.55712   0.60487   0.00000  Uiso   1.00
H311   H     0.40021   0.46971   0.98365   0.00000  Uiso   1.00
H312   H     0.49863   0.75769   0.72052   0.00000  Uiso   1.00
H313   H     0.09693   0.55277   0.69967   0.00000  Uiso   1.00
O314   O     0.38540   0.50438   0.71598   0.00000  Uiso   1.00
O315   O     0.51451   0.88220   0.68273   0.00000  Uiso   1.00
O316   O     0.98750   0.61336   0.65537   0.00000  Uiso   1.00
N317   N     0.34018   0.59041   0.83583   0.00000  Uiso   1.00
N318   N     0.43221   0.85965   0.52473   0.00000  Uiso   1.00
N319   N     0.05666   0.66808   0.50527   0.00000  Uiso   1.00
N320   N     0.37906   0.51158   0.96131   0.00000  Uiso   1.00
N321   N     0.47109   0.78083   0.65021   0.00000  Uiso   1.00
N322   N     0.09554   0.58926   0.63075   0.00000  Uiso   1.00
C323   C     0.77291   0.21296   0.77752   0.00000  Uiso   1.00
C324   C     0.80094   0.15992   0.68645   0.00000  Uiso   1.00
C325   C     0.80286   0.15923   0.53999   0.00000  Uiso   1.00
C326   C     0.83053   0.10635   0.47643   0.00000  Uiso   1.00
C327   C     0.87031   0.03166   0.32284   0.00000  Uiso   1.00
C328   C     0.82631   0.23412   0.87631   0.00000  Uiso   1.00
C329   C     0.84956   0.29583   0.88948   0.00000  Uiso   1.00
C330   C     0.89858   0.30541   0.98575   0.00000  Uiso   1.00
C331   C     0.97772   0.34594   0.12699   0.00000  Uiso   1.00
C332   C     0.72281   0.18132   0.87092   0.00000  Uiso   1.00
C333   C     0.65903   0.19864   0.87960   0.00000  Uiso   1.00
C334   C     0.62092   0.16378   0.97137   0.00000  Uiso   1.00
C335   C     0.53935   0.12232   0.10424   0.00000  Uiso   1.00
C336   C     0.81863   0.12027   0.92509   0.00000  Uiso   1.00
C337   C     0.82578   0.10957   0.76661   0.00000  Uiso   1.00
C338   C     0.85345   0.05667   0.70326   0.00000  Uiso   1.00
C339   C     0.85541   0.05591   0.55673   0.00000  Uiso   1.00
C340   C     0.85115   0.18378   0.95646   0.00000  Uiso   1.00
C341   C     0.90015   0.19327   0.05275   0.00000  Uiso   1.00
C342   C     0.92346   0.25497   0.06605   0.00000  Uiso   1.00
C343   C     0.74765   0.13097   0.95108   0.00000  Uiso   1.00
C344   C     0.70962   0.09608   0.04286   0.00000  Uiso   1.00
C345   C     0.64580   0.11334   0.05167   0.00000  Uiso   1.00
H346   H     0.75358   0.25216   0.71512   0.00000  Uiso   1.00
H347   H     0.78364   0.19821   0.47800   0.00000  Uiso   1.00
H348   H     0.83032   0.33478   0.82744   0.00000  Uiso   1.00
H349   H     0.63983   0.23760   0.81756   0.00000  Uiso   1.00
H350   H     0.82795   0.11620   0.25045   0.00000  Uiso   1.00
H351   H     0.92637   0.40418   0.98731   0.00000  Uiso   1.00
H352   H     0.52467   0.19926   0.96647   0.00000  Uiso   1.00
H353   H     0.83797   0.08107   0.98750   0.00000  Uiso   1.00
H354   H     0.87266   0.01772   0.76532   0.00000  Uiso   1.00
H355   H     0.91935   0.15430   0.11476   0.00000  Uiso   1.00
H356   H     0.72886   0.05712   0.10487   0.00000  Uiso   1.00
H357   H     0.90021   0.96971   0.48365   0.00000  Uiso   1.00
H358   H     0.99863   0.25769   0.22052   0.00000  Uiso   1.00
H359   H     0.59693   0.05277   0.19967   0.00000  Uiso   1.00
O360   O     0.88540   0.00438   0.21598   0.00000  Uiso   1.00
O361   O     0.01451   0.38220   0.18273   0.00000  Uiso   1.00
O362   O     0.48750   0.11336   0.15537   0.00000  Uiso   1.00
N363   N     0.84018   0.09041   0.33583   0.00000  Uiso   1.00
N364   N     0.93221   0.35965   0.02473   0.00000  Uiso   1.00
N365   N     0.55666   0.16808   0.00527   0.00000  Uiso   1.00
N366   N     0.87906   0.01158   0.46131   0.00000  Uiso   1.00
N367   N     0.97109   0.28083   0.15021   0.00000  Uiso   1.00
N368   N     0.59554   0.08926   0.13075   0.00000  Uiso   1.00
