data_job_01840
_audit_creation_date              2018-12-19
_audit_creation_method            'Materials Studio'
_symmetry_space_group_name_H-M    'P1'
_symmetry_Int_Tables_number       1
_symmetry_cell_setting            triclinic
loop_
_symmetry_equiv_pos_as_xyz
  x,y,z
_cell_length_a                    18.8267
_cell_length_b                    15.2218
_cell_length_c                    9.7126
_cell_angle_alpha                 90.0000
_cell_angle_beta                  89.0889
_cell_angle_gamma                 90.0000
loop_
_atom_site_label
_atom_site_type_symbol
_atom_site_fract_x
_atom_site_fract_y
_atom_site_fract_z
_atom_site_U_iso_or_equiv
_atom_site_adp_type
_atom_site_occupancy
C1     C     0.65945   0.83922   0.59617   0.00000  Uiso   1.00
C2     C     0.73102   0.87759   0.63637   0.00000  Uiso   1.00
C3     C     0.74113   0.94709   0.72644   0.00000  Uiso   1.00
C4     C     0.81076   0.97242   0.74971   0.00000  Uiso   1.00
C5     C     0.91314   0.03852   0.82190   0.00000  Uiso   1.00
C6     C     0.65698   0.84455   0.43954   0.00000  Uiso   1.00
C7     C     0.60484   0.88626   0.36412   0.00000  Uiso   1.00
C8     C     0.61214   0.88377   0.22169   0.00000  Uiso   1.00
C9     C     0.59955   0.89852   0.98829   0.00000  Uiso   1.00
C10    C     0.66278   0.74167   0.63117   0.00000  Uiso   1.00
C11    C     0.61551   0.69686   0.71683   0.00000  Uiso   1.00
C12    C     0.62769   0.60774   0.73572   0.00000  Uiso   1.00
C13    C     0.62411   0.46274   0.79985   0.00000  Uiso   1.00
C14    C     0.76512   0.76063   0.47735   0.00000  Uiso   1.00
C15    C     0.78841   0.83490   0.57183   0.00000  Uiso   1.00
C16    C     0.85804   0.86013   0.59498   0.00000  Uiso   1.00
C17    C     0.86826   0.92965   0.68506   0.00000  Uiso   1.00
C18    C     0.71437   0.80187   0.37500   0.00000  Uiso   1.00
C19    C     0.72174   0.79931   0.23265   0.00000  Uiso   1.00
C20    C     0.66963   0.84100   0.15703   0.00000  Uiso   1.00
C21    C     0.72017   0.69898   0.56663   0.00000  Uiso   1.00
C22    C     0.73242   0.60991   0.58537   0.00000  Uiso   1.00
C23    C     0.68518   0.56497   0.67106   0.00000  Uiso   1.00
H24    H     0.61477   0.87246   0.64641   0.00000  Uiso   1.00
H25    H     0.69670   0.98011   0.77636   0.00000  Uiso   1.00
H26    H     0.56043   0.91928   0.41409   0.00000  Uiso   1.00
H27    H     0.57110   0.72991   0.76676   0.00000  Uiso   1.00
H28    H     0.81285   0.08066   0.89192   0.00000  Uiso   1.00
H29    H     0.52549   0.95238   0.12807   0.00000  Uiso   1.00
H30    H     0.54800   0.55305   0.87174   0.00000  Uiso   1.00
H31    H     0.80980   0.72739   0.42709   0.00000  Uiso   1.00
H32    H     0.90244   0.82708   0.54501   0.00000  Uiso   1.00
H33    H     0.76616   0.76626   0.18274   0.00000  Uiso   1.00
H34    H     0.77684   0.57689   0.53541   0.00000  Uiso   1.00
H35    H     0.97984   0.95646   0.70415   0.00000  Uiso   1.00
H36    H     0.69247   0.82818   0.94029   0.00000  Uiso   1.00
H37    H     0.71499   0.42885   0.68396   0.00000  Uiso   1.00
O38    O     0.95376   0.08678   0.87953   0.00000  Uiso   1.00
O39    O     0.57675   0.91846   0.87738   0.00000  Uiso   1.00
O40    O     0.60628   0.39456   0.85306   0.00000  Uiso   1.00
N41    N     0.83944   0.03774   0.83157   0.00000  Uiso   1.00
N42    N     0.57078   0.91781   0.11741   0.00000  Uiso   1.00
N43    N     0.59181   0.54447   0.81265   0.00000  Uiso   1.00
N44    N     0.92929   0.97091   0.73053   0.00000  Uiso   1.00
N45    N     0.66063   0.85098   0.01637   0.00000  Uiso   1.00
N46    N     0.68167   0.47764   0.71161   0.00000  Uiso   1.00
C47    C     0.15945   0.33922   0.59617   0.00000  Uiso   1.00
C48    C     0.23102   0.37759   0.63637   0.00000  Uiso   1.00
C49    C     0.24113   0.44709   0.72644   0.00000  Uiso   1.00
C50    C     0.31076   0.47242   0.74971   0.00000  Uiso   1.00
C51    C     0.41314   0.53852   0.82190   0.00000  Uiso   1.00
C52    C     0.15698   0.34455   0.43954   0.00000  Uiso   1.00
C53    C     0.10484   0.38626   0.36412   0.00000  Uiso   1.00
C54    C     0.11214   0.38377   0.22169   0.00000  Uiso   1.00
C55    C     0.09955   0.39852   0.98829   0.00000  Uiso   1.00
C56    C     0.16278   0.24167   0.63117   0.00000  Uiso   1.00
C57    C     0.11551   0.19686   0.71683   0.00000  Uiso   1.00
C58    C     0.12769   0.10774   0.73572   0.00000  Uiso   1.00
C59    C     0.12411   0.96274   0.79985   0.00000  Uiso   1.00
C60    C     0.26512   0.26063   0.47735   0.00000  Uiso   1.00
C61    C     0.28841   0.33490   0.57183   0.00000  Uiso   1.00
C62    C     0.35804   0.36013   0.59498   0.00000  Uiso   1.00
C63    C     0.36826   0.42965   0.68506   0.00000  Uiso   1.00
C64    C     0.21437   0.30187   0.37500   0.00000  Uiso   1.00
C65    C     0.22174   0.29931   0.23265   0.00000  Uiso   1.00
C66    C     0.16963   0.34100   0.15703   0.00000  Uiso   1.00
C67    C     0.22017   0.19898   0.56663   0.00000  Uiso   1.00
C68    C     0.23242   0.10991   0.58537   0.00000  Uiso   1.00
C69    C     0.18518   0.06497   0.67106   0.00000  Uiso   1.00
H70    H     0.11477   0.37246   0.64641   0.00000  Uiso   1.00
H71    H     0.19670   0.48011   0.77636   0.00000  Uiso   1.00
H72    H     0.06043   0.41928   0.41409   0.00000  Uiso   1.00
H73    H     0.07110   0.22991   0.76676   0.00000  Uiso   1.00
H74    H     0.31285   0.58066   0.89192   0.00000  Uiso   1.00
H75    H     0.02549   0.45238   0.12807   0.00000  Uiso   1.00
H76    H     0.04800   0.05305   0.87174   0.00000  Uiso   1.00
H77    H     0.30980   0.22739   0.42709   0.00000  Uiso   1.00
H78    H     0.40244   0.32708   0.54501   0.00000  Uiso   1.00
H79    H     0.26616   0.26626   0.18274   0.00000  Uiso   1.00
H80    H     0.27684   0.07689   0.53541   0.00000  Uiso   1.00
H81    H     0.47984   0.45646   0.70415   0.00000  Uiso   1.00
H82    H     0.19247   0.32818   0.94029   0.00000  Uiso   1.00
H83    H     0.21499   0.92885   0.68396   0.00000  Uiso   1.00
O84    O     0.45376   0.58678   0.87953   0.00000  Uiso   1.00
O85    O     0.07675   0.41846   0.87738   0.00000  Uiso   1.00
O86    O     0.10628   0.89456   0.85306   0.00000  Uiso   1.00
N87    N     0.33944   0.53774   0.83157   0.00000  Uiso   1.00
N88    N     0.07078   0.41781   0.11741   0.00000  Uiso   1.00
N89    N     0.09181   0.04447   0.81265   0.00000  Uiso   1.00
N90    N     0.42929   0.47091   0.73053   0.00000  Uiso   1.00
N91    N     0.16063   0.35098   0.01637   0.00000  Uiso   1.00
N92    N     0.18167   0.97764   0.71161   0.00000  Uiso   1.00
C93    C     0.34055   0.83922   0.40383   0.00000  Uiso   1.00
C94    C     0.26898   0.87759   0.36363   0.00000  Uiso   1.00
C95    C     0.25887   0.94709   0.27356   0.00000  Uiso   1.00
C96    C     0.18924   0.97242   0.25029   0.00000  Uiso   1.00
C97    C     0.08686   0.03852   0.17810   0.00000  Uiso   1.00
C98    C     0.34302   0.84455   0.56046   0.00000  Uiso   1.00
C99    C     0.39516   0.88626   0.63588   0.00000  Uiso   1.00
C100   C     0.38786   0.88377   0.77831   0.00000  Uiso   1.00
C101   C     0.40045   0.89852   0.01171   0.00000  Uiso   1.00
C102   C     0.33722   0.74167   0.36883   0.00000  Uiso   1.00
C103   C     0.38449   0.69686   0.28317   0.00000  Uiso   1.00
C104   C     0.37231   0.60774   0.26428   0.00000  Uiso   1.00
C105   C     0.37589   0.46274   0.20015   0.00000  Uiso   1.00
C106   C     0.23488   0.76063   0.52265   0.00000  Uiso   1.00
C107   C     0.21159   0.83490   0.42817   0.00000  Uiso   1.00
C108   C     0.14196   0.86013   0.40502   0.00000  Uiso   1.00
C109   C     0.13174   0.92965   0.31494   0.00000  Uiso   1.00
C110   C     0.28563   0.80187   0.62500   0.00000  Uiso   1.00
C111   C     0.27826   0.79931   0.76735   0.00000  Uiso   1.00
C112   C     0.33037   0.84100   0.84297   0.00000  Uiso   1.00
C113   C     0.27983   0.69898   0.43337   0.00000  Uiso   1.00
C114   C     0.26758   0.60991   0.41463   0.00000  Uiso   1.00
C115   C     0.31482   0.56497   0.32894   0.00000  Uiso   1.00
H116   H     0.38523   0.87246   0.35359   0.00000  Uiso   1.00
H117   H     0.30330   0.98011   0.22364   0.00000  Uiso   1.00
H118   H     0.43957   0.91928   0.58591   0.00000  Uiso   1.00
H119   H     0.42890   0.72991   0.23324   0.00000  Uiso   1.00
H120   H     0.18715   0.08066   0.10808   0.00000  Uiso   1.00
H121   H     0.47451   0.95238   0.87193   0.00000  Uiso   1.00
H122   H     0.45200   0.55305   0.12826   0.00000  Uiso   1.00
H123   H     0.19020   0.72739   0.57291   0.00000  Uiso   1.00
H124   H     0.09756   0.82708   0.45499   0.00000  Uiso   1.00
H125   H     0.23384   0.76626   0.81726   0.00000  Uiso   1.00
H126   H     0.22316   0.57689   0.46459   0.00000  Uiso   1.00
H127   H     0.02016   0.95646   0.29585   0.00000  Uiso   1.00
H128   H     0.30753   0.82818   0.05971   0.00000  Uiso   1.00
H129   H     0.28501   0.42885   0.31604   0.00000  Uiso   1.00
O130   O     0.04624   0.08678   0.12047   0.00000  Uiso   1.00
O131   O     0.42325   0.91846   0.12262   0.00000  Uiso   1.00
O132   O     0.39372   0.39456   0.14694   0.00000  Uiso   1.00
N133   N     0.16056   0.03774   0.16843   0.00000  Uiso   1.00
N134   N     0.42922   0.91781   0.88259   0.00000  Uiso   1.00
N135   N     0.40819   0.54447   0.18735   0.00000  Uiso   1.00
N136   N     0.07071   0.97091   0.26947   0.00000  Uiso   1.00
N137   N     0.33937   0.85098   0.98363   0.00000  Uiso   1.00
N138   N     0.31833   0.47764   0.28839   0.00000  Uiso   1.00
C139   C     0.84055   0.33922   0.40383   0.00000  Uiso   1.00
C140   C     0.76898   0.37759   0.36363   0.00000  Uiso   1.00
C141   C     0.75887   0.44709   0.27356   0.00000  Uiso   1.00
C142   C     0.68924   0.47242   0.25029   0.00000  Uiso   1.00
C143   C     0.58686   0.53852   0.17810   0.00000  Uiso   1.00
C144   C     0.84302   0.34455   0.56046   0.00000  Uiso   1.00
C145   C     0.89516   0.38626   0.63588   0.00000  Uiso   1.00
C146   C     0.88786   0.38377   0.77831   0.00000  Uiso   1.00
C147   C     0.90045   0.39852   0.01171   0.00000  Uiso   1.00
C148   C     0.83722   0.24167   0.36883   0.00000  Uiso   1.00
C149   C     0.88449   0.19686   0.28317   0.00000  Uiso   1.00
C150   C     0.87231   0.10774   0.26428   0.00000  Uiso   1.00
C151   C     0.87589   0.96274   0.20015   0.00000  Uiso   1.00
C152   C     0.73488   0.26063   0.52265   0.00000  Uiso   1.00
C153   C     0.71159   0.33490   0.42817   0.00000  Uiso   1.00
C154   C     0.64196   0.36013   0.40502   0.00000  Uiso   1.00
C155   C     0.63174   0.42965   0.31494   0.00000  Uiso   1.00
C156   C     0.78563   0.30187   0.62500   0.00000  Uiso   1.00
C157   C     0.77826   0.29931   0.76735   0.00000  Uiso   1.00
C158   C     0.83037   0.34100   0.84297   0.00000  Uiso   1.00
C159   C     0.77983   0.19898   0.43337   0.00000  Uiso   1.00
C160   C     0.76758   0.10991   0.41463   0.00000  Uiso   1.00
C161   C     0.81482   0.06497   0.32894   0.00000  Uiso   1.00
H162   H     0.88523   0.37246   0.35359   0.00000  Uiso   1.00
H163   H     0.80330   0.48011   0.22364   0.00000  Uiso   1.00
H164   H     0.93957   0.41928   0.58591   0.00000  Uiso   1.00
H165   H     0.92890   0.22991   0.23324   0.00000  Uiso   1.00
H166   H     0.68715   0.58066   0.10808   0.00000  Uiso   1.00
H167   H     0.97451   0.45238   0.87193   0.00000  Uiso   1.00
H168   H     0.95200   0.05305   0.12826   0.00000  Uiso   1.00
H169   H     0.69020   0.22739   0.57291   0.00000  Uiso   1.00
H170   H     0.59756   0.32708   0.45499   0.00000  Uiso   1.00
H171   H     0.73384   0.26626   0.81726   0.00000  Uiso   1.00
H172   H     0.72316   0.07689   0.46459   0.00000  Uiso   1.00
H173   H     0.52016   0.45646   0.29585   0.00000  Uiso   1.00
H174   H     0.80753   0.32818   0.05971   0.00000  Uiso   1.00
H175   H     0.78501   0.92885   0.31604   0.00000  Uiso   1.00
O176   O     0.54624   0.58678   0.12047   0.00000  Uiso   1.00
O177   O     0.92325   0.41846   0.12262   0.00000  Uiso   1.00
O178   O     0.89372   0.89456   0.14694   0.00000  Uiso   1.00
N179   N     0.66056   0.53774   0.16843   0.00000  Uiso   1.00
N180   N     0.92922   0.41781   0.88259   0.00000  Uiso   1.00
N181   N     0.90819   0.04447   0.18735   0.00000  Uiso   1.00
N182   N     0.57071   0.47091   0.26947   0.00000  Uiso   1.00
N183   N     0.83937   0.35098   0.98363   0.00000  Uiso   1.00
N184   N     0.81833   0.97764   0.28839   0.00000  Uiso   1.00
