data_job_02895
_audit_creation_date              2018-12-19
_audit_creation_method            'Materials Studio'
_symmetry_space_group_name_H-M    'P1'
_symmetry_Int_Tables_number       1
_symmetry_cell_setting            triclinic
loop_
_symmetry_equiv_pos_as_xyz
  x,y,z
_cell_length_a                    14.8901
_cell_length_b                    21.3596
_cell_length_c                    15.7599
_cell_angle_alpha                 90.0000
_cell_angle_beta                  90.0000
_cell_angle_gamma                 90.0000
loop_
_atom_site_label
_atom_site_type_symbol
_atom_site_fract_x
_atom_site_fract_y
_atom_site_fract_z
_atom_site_U_iso_or_equiv
_atom_site_adp_type
_atom_site_occupancy
C1     C     0.35044   0.79235   0.99375   0.00000  Uiso   1.00
C2     C     0.39364   0.84095   0.05169   0.00000  Uiso   1.00
C3     C     0.36048   0.86043   0.12963   0.00000  Uiso   1.00
C4     C     0.40987   0.90537   0.17292   0.00000  Uiso   1.00
C5     C     0.46480   0.97714   0.26796   0.00000  Uiso   1.00
C6     C     0.33644   0.82473   0.90853   0.00000  Uiso   1.00
C7     C     0.25519   0.83055   0.86611   0.00000  Uiso   1.00
C8     C     0.25643   0.86182   0.78889   0.00000  Uiso   1.00
C9     C     0.22258   0.90835   0.66165   0.00000  Uiso   1.00
C10    C     0.42175   0.74232   0.97872   0.00000  Uiso   1.00
C11    C     0.41222   0.67885   0.99530   0.00000  Uiso   1.00
C12    C     0.48528   0.64074   0.97715   0.00000  Uiso   1.00
C13    C     0.58388   0.55933   0.95889   0.00000  Uiso   1.00
C14    C     0.49712   0.83752   0.93202   0.00000  Uiso   1.00
C15    C     0.47331   0.86549   0.01815   0.00000  Uiso   1.00
C16    C     0.52277   0.91041   0.06134   0.00000  Uiso   1.00
C17    C     0.48968   0.92995   0.13933   0.00000  Uiso   1.00
C18    C     0.41611   0.84926   0.87500   0.00000  Uiso   1.00
C19    C     0.41748   0.88053   0.79782   0.00000  Uiso   1.00
C20    C     0.33625   0.88640   0.75530   0.00000  Uiso   1.00
C21    C     0.50142   0.76686   0.94519   0.00000  Uiso   1.00
C22    C     0.57451   0.72884   0.92701   0.00000  Uiso   1.00
C23    C     0.56509   0.66533   0.94356   0.00000  Uiso   1.00
H24    H     0.28841   0.77324   0.01985   0.00000  Uiso   1.00
H25    H     0.29882   0.84144   0.15555   0.00000  Uiso   1.00
H26    H     0.19355   0.81155   0.89207   0.00000  Uiso   1.00
H27    H     0.35056   0.65988   0.02124   0.00000  Uiso   1.00
H28    H     0.34547   0.92788   0.29121   0.00000  Uiso   1.00
H29    H     0.12351   0.86485   0.73563   0.00000  Uiso   1.00
H30    H     0.45459   0.54502   0.00801   0.00000  Uiso   1.00
H31    H     0.55915   0.85662   0.90591   0.00000  Uiso   1.00
H32    H     0.58442   0.92939   0.03537   0.00000  Uiso   1.00
H33    H     0.47914   0.89951   0.77189   0.00000  Uiso   1.00
H34    H     0.63615   0.74784   0.90106   0.00000  Uiso   1.00
H35    H     0.57727   0.99927   0.19366   0.00000  Uiso   1.00
H36    H     0.35531   0.93623   0.63808   0.00000  Uiso   1.00
H37    H     0.68639   0.61641   0.91046   0.00000  Uiso   1.00
O38    O     0.47309   0.00995   0.32964   0.00000  Uiso   1.00
O39    O     0.18189   0.92725   0.60074   0.00000  Uiso   1.00
O40    O     0.61626   0.50765   0.95809   0.00000  Uiso   1.00
N41    N     0.39657   0.93468   0.25049   0.00000  Uiso   1.00
N42    N     0.18905   0.87576   0.73107   0.00000  Uiso   1.00
N43    N     0.49857   0.57675   0.98569   0.00000  Uiso   1.00
N44    N     0.52130   0.97310   0.19801   0.00000  Uiso   1.00
N45    N     0.31378   0.91418   0.67858   0.00000  Uiso   1.00
N46    N     0.62330   0.61516   0.93321   0.00000  Uiso   1.00
C47    C     0.14956   0.20765   0.49375   0.00000  Uiso   1.00
C48    C     0.10636   0.15905   0.55169   0.00000  Uiso   1.00
C49    C     0.13952   0.13957   0.62963   0.00000  Uiso   1.00
C50    C     0.09013   0.09463   0.67292   0.00000  Uiso   1.00
C51    C     0.03520   0.02286   0.76796   0.00000  Uiso   1.00
C52    C     0.16356   0.17527   0.40853   0.00000  Uiso   1.00
C53    C     0.24481   0.16945   0.36611   0.00000  Uiso   1.00
C54    C     0.24357   0.13818   0.28889   0.00000  Uiso   1.00
C55    C     0.27742   0.09165   0.16165   0.00000  Uiso   1.00
C56    C     0.07825   0.25768   0.47872   0.00000  Uiso   1.00
C57    C     0.08778   0.32115   0.49530   0.00000  Uiso   1.00
C58    C     0.01472   0.35926   0.47715   0.00000  Uiso   1.00
C59    C     0.91612   0.44067   0.45889   0.00000  Uiso   1.00
C60    C     0.00288   0.16248   0.43202   0.00000  Uiso   1.00
C61    C     0.02669   0.13451   0.51815   0.00000  Uiso   1.00
C62    C     0.97723   0.08959   0.56134   0.00000  Uiso   1.00
C63    C     0.01032   0.07005   0.63933   0.00000  Uiso   1.00
C64    C     0.08389   0.15074   0.37500   0.00000  Uiso   1.00
C65    C     0.08252   0.11947   0.29782   0.00000  Uiso   1.00
C66    C     0.16375   0.11360   0.25530   0.00000  Uiso   1.00
C67    C     0.99858   0.23314   0.44519   0.00000  Uiso   1.00
C68    C     0.92549   0.27116   0.42701   0.00000  Uiso   1.00
C69    C     0.93491   0.33467   0.44356   0.00000  Uiso   1.00
H70    H     0.21159   0.22676   0.51985   0.00000  Uiso   1.00
H71    H     0.20118   0.15856   0.65555   0.00000  Uiso   1.00
H72    H     0.30645   0.18845   0.39207   0.00000  Uiso   1.00
H73    H     0.14944   0.34012   0.52124   0.00000  Uiso   1.00
H74    H     0.15453   0.07212   0.79121   0.00000  Uiso   1.00
H75    H     0.37649   0.13515   0.23563   0.00000  Uiso   1.00
H76    H     0.04541   0.45498   0.50801   0.00000  Uiso   1.00
H77    H     0.94085   0.14338   0.40591   0.00000  Uiso   1.00
H78    H     0.91558   0.07061   0.53537   0.00000  Uiso   1.00
H79    H     0.02086   0.10049   0.27189   0.00000  Uiso   1.00
H80    H     0.86385   0.25216   0.40106   0.00000  Uiso   1.00
H81    H     0.92273   0.00073   0.69366   0.00000  Uiso   1.00
H82    H     0.14469   0.06377   0.13808   0.00000  Uiso   1.00
H83    H     0.81361   0.38359   0.41046   0.00000  Uiso   1.00
O84    O     0.02691   0.99005   0.82964   0.00000  Uiso   1.00
O85    O     0.31811   0.07275   0.10074   0.00000  Uiso   1.00
O86    O     0.88374   0.49235   0.45809   0.00000  Uiso   1.00
N87    N     0.10343   0.06532   0.75049   0.00000  Uiso   1.00
N88    N     0.31095   0.12424   0.23107   0.00000  Uiso   1.00
N89    N     0.00143   0.42325   0.48569   0.00000  Uiso   1.00
N90    N     0.97870   0.02690   0.69801   0.00000  Uiso   1.00
N91    N     0.18622   0.08582   0.17858   0.00000  Uiso   1.00
N92    N     0.87670   0.38484   0.43321   0.00000  Uiso   1.00
C93    C     0.64956   0.29235   0.50625   0.00000  Uiso   1.00
C94    C     0.60636   0.34095   0.44831   0.00000  Uiso   1.00
C95    C     0.63952   0.36043   0.37037   0.00000  Uiso   1.00
C96    C     0.59013   0.40537   0.32708   0.00000  Uiso   1.00
C97    C     0.53520   0.47714   0.23204   0.00000  Uiso   1.00
C98    C     0.66356   0.32473   0.59147   0.00000  Uiso   1.00
C99    C     0.74481   0.33055   0.63389   0.00000  Uiso   1.00
C100   C     0.74357   0.36182   0.71111   0.00000  Uiso   1.00
C101   C     0.77742   0.40835   0.83835   0.00000  Uiso   1.00
C102   C     0.57825   0.24232   0.52128   0.00000  Uiso   1.00
C103   C     0.58778   0.17885   0.50470   0.00000  Uiso   1.00
C104   C     0.51472   0.14074   0.52285   0.00000  Uiso   1.00
C105   C     0.41612   0.05933   0.54111   0.00000  Uiso   1.00
C106   C     0.50288   0.33752   0.56798   0.00000  Uiso   1.00
C107   C     0.52669   0.36549   0.48185   0.00000  Uiso   1.00
C108   C     0.47723   0.41041   0.43866   0.00000  Uiso   1.00
C109   C     0.51032   0.42995   0.36067   0.00000  Uiso   1.00
C110   C     0.58389   0.34926   0.62500   0.00000  Uiso   1.00
C111   C     0.58252   0.38053   0.70218   0.00000  Uiso   1.00
C112   C     0.66375   0.38640   0.74470   0.00000  Uiso   1.00
C113   C     0.49858   0.26686   0.55481   0.00000  Uiso   1.00
C114   C     0.42549   0.22884   0.57299   0.00000  Uiso   1.00
C115   C     0.43491   0.16533   0.55644   0.00000  Uiso   1.00
H116   H     0.71159   0.27324   0.48015   0.00000  Uiso   1.00
H117   H     0.70118   0.34144   0.34445   0.00000  Uiso   1.00
H118   H     0.80645   0.31155   0.60793   0.00000  Uiso   1.00
H119   H     0.64944   0.15988   0.47876   0.00000  Uiso   1.00
H120   H     0.65453   0.42788   0.20879   0.00000  Uiso   1.00
H121   H     0.87649   0.36485   0.76437   0.00000  Uiso   1.00
H122   H     0.54541   0.04502   0.49199   0.00000  Uiso   1.00
H123   H     0.44085   0.35662   0.59409   0.00000  Uiso   1.00
H124   H     0.41558   0.42939   0.46463   0.00000  Uiso   1.00
H125   H     0.52086   0.39951   0.72811   0.00000  Uiso   1.00
H126   H     0.36385   0.24784   0.59894   0.00000  Uiso   1.00
H127   H     0.42273   0.49927   0.30634   0.00000  Uiso   1.00
H128   H     0.64469   0.43623   0.86192   0.00000  Uiso   1.00
H129   H     0.31361   0.11641   0.58954   0.00000  Uiso   1.00
O130   O     0.52691   0.50995   0.17036   0.00000  Uiso   1.00
O131   O     0.81811   0.42725   0.89926   0.00000  Uiso   1.00
O132   O     0.38374   0.00765   0.54191   0.00000  Uiso   1.00
N133   N     0.60343   0.43468   0.24951   0.00000  Uiso   1.00
N134   N     0.81095   0.37576   0.76893   0.00000  Uiso   1.00
N135   N     0.50143   0.07675   0.51431   0.00000  Uiso   1.00
N136   N     0.47870   0.47310   0.30199   0.00000  Uiso   1.00
N137   N     0.68622   0.41418   0.82142   0.00000  Uiso   1.00
N138   N     0.37670   0.11516   0.56679   0.00000  Uiso   1.00
C139   C     0.85044   0.70765   0.00625   0.00000  Uiso   1.00
C140   C     0.89364   0.65905   0.94831   0.00000  Uiso   1.00
C141   C     0.86048   0.63957   0.87037   0.00000  Uiso   1.00
C142   C     0.90987   0.59463   0.82708   0.00000  Uiso   1.00
C143   C     0.96480   0.52286   0.73204   0.00000  Uiso   1.00
C144   C     0.83644   0.67527   0.09147   0.00000  Uiso   1.00
C145   C     0.75519   0.66945   0.13389   0.00000  Uiso   1.00
C146   C     0.75643   0.63818   0.21111   0.00000  Uiso   1.00
C147   C     0.72258   0.59165   0.33835   0.00000  Uiso   1.00
C148   C     0.92175   0.75768   0.02128   0.00000  Uiso   1.00
C149   C     0.91222   0.82115   0.00470   0.00000  Uiso   1.00
C150   C     0.98528   0.85926   0.02285   0.00000  Uiso   1.00
C151   C     0.08388   0.94067   0.04111   0.00000  Uiso   1.00
C152   C     0.99712   0.66248   0.06798   0.00000  Uiso   1.00
C153   C     0.97331   0.63451   0.98185   0.00000  Uiso   1.00
C154   C     0.02277   0.58959   0.93866   0.00000  Uiso   1.00
C155   C     0.98968   0.57005   0.86067   0.00000  Uiso   1.00
C156   C     0.91611   0.65074   0.12500   0.00000  Uiso   1.00
C157   C     0.91748   0.61947   0.20218   0.00000  Uiso   1.00
C158   C     0.83625   0.61360   0.24470   0.00000  Uiso   1.00
C159   C     0.00142   0.73314   0.05481   0.00000  Uiso   1.00
C160   C     0.07451   0.77116   0.07299   0.00000  Uiso   1.00
C161   C     0.06509   0.83467   0.05644   0.00000  Uiso   1.00
H162   H     0.78841   0.72676   0.98015   0.00000  Uiso   1.00
H163   H     0.79882   0.65856   0.84445   0.00000  Uiso   1.00
H164   H     0.69355   0.68845   0.10793   0.00000  Uiso   1.00
H165   H     0.85056   0.84012   0.97876   0.00000  Uiso   1.00
H166   H     0.84547   0.57212   0.70879   0.00000  Uiso   1.00
H167   H     0.62351   0.63515   0.26437   0.00000  Uiso   1.00
H168   H     0.95459   0.95498   0.99199   0.00000  Uiso   1.00
H169   H     0.05915   0.64338   0.09409   0.00000  Uiso   1.00
H170   H     0.08442   0.57061   0.96463   0.00000  Uiso   1.00
H171   H     0.97914   0.60049   0.22811   0.00000  Uiso   1.00
H172   H     0.13615   0.75216   0.09894   0.00000  Uiso   1.00
H173   H     0.07727   0.50073   0.80634   0.00000  Uiso   1.00
H174   H     0.85531   0.56377   0.36192   0.00000  Uiso   1.00
H175   H     0.18639   0.88359   0.08954   0.00000  Uiso   1.00
O176   O     0.97309   0.49005   0.67036   0.00000  Uiso   1.00
O177   O     0.68189   0.57275   0.39926   0.00000  Uiso   1.00
O178   O     0.11626   0.99235   0.04191   0.00000  Uiso   1.00
N179   N     0.89657   0.56532   0.74951   0.00000  Uiso   1.00
N180   N     0.68905   0.62424   0.26893   0.00000  Uiso   1.00
N181   N     0.99857   0.92325   0.01431   0.00000  Uiso   1.00
N182   N     0.02130   0.52690   0.80199   0.00000  Uiso   1.00
N183   N     0.81378   0.58582   0.32142   0.00000  Uiso   1.00
N184   N     0.12330   0.88484   0.06679   0.00000  Uiso   1.00
C185   C     0.64956   0.20765   0.00625   0.00000  Uiso   1.00
C186   C     0.60636   0.15905   0.94831   0.00000  Uiso   1.00
C187   C     0.63952   0.13957   0.87037   0.00000  Uiso   1.00
C188   C     0.59013   0.09463   0.82708   0.00000  Uiso   1.00
C189   C     0.53520   0.02286   0.73204   0.00000  Uiso   1.00
C190   C     0.66356   0.17527   0.09147   0.00000  Uiso   1.00
C191   C     0.74481   0.16945   0.13389   0.00000  Uiso   1.00
C192   C     0.74357   0.13818   0.21111   0.00000  Uiso   1.00
C193   C     0.77742   0.09165   0.33835   0.00000  Uiso   1.00
C194   C     0.57825   0.25768   0.02128   0.00000  Uiso   1.00
C195   C     0.58778   0.32115   0.00470   0.00000  Uiso   1.00
C196   C     0.51472   0.35926   0.02285   0.00000  Uiso   1.00
C197   C     0.41612   0.44067   0.04111   0.00000  Uiso   1.00
C198   C     0.50288   0.16248   0.06798   0.00000  Uiso   1.00
C199   C     0.52669   0.13451   0.98185   0.00000  Uiso   1.00
C200   C     0.47723   0.08959   0.93866   0.00000  Uiso   1.00
C201   C     0.51032   0.07005   0.86067   0.00000  Uiso   1.00
C202   C     0.58389   0.15074   0.12500   0.00000  Uiso   1.00
C203   C     0.58252   0.11947   0.20218   0.00000  Uiso   1.00
C204   C     0.66375   0.11360   0.24470   0.00000  Uiso   1.00
C205   C     0.49858   0.23314   0.05481   0.00000  Uiso   1.00
C206   C     0.42549   0.27116   0.07299   0.00000  Uiso   1.00
C207   C     0.43491   0.33467   0.05644   0.00000  Uiso   1.00
H208   H     0.71159   0.22676   0.98015   0.00000  Uiso   1.00
H209   H     0.70118   0.15856   0.84445   0.00000  Uiso   1.00
H210   H     0.80645   0.18845   0.10793   0.00000  Uiso   1.00
H211   H     0.64944   0.34012   0.97876   0.00000  Uiso   1.00
H212   H     0.65453   0.07212   0.70879   0.00000  Uiso   1.00
H213   H     0.87649   0.13515   0.26437   0.00000  Uiso   1.00
H214   H     0.54541   0.45498   0.99199   0.00000  Uiso   1.00
H215   H     0.44085   0.14338   0.09409   0.00000  Uiso   1.00
H216   H     0.41558   0.07061   0.96463   0.00000  Uiso   1.00
H217   H     0.52086   0.10049   0.22811   0.00000  Uiso   1.00
H218   H     0.36385   0.25216   0.09894   0.00000  Uiso   1.00
H219   H     0.42273   0.00073   0.80634   0.00000  Uiso   1.00
H220   H     0.64469   0.06377   0.36192   0.00000  Uiso   1.00
H221   H     0.31361   0.38359   0.08954   0.00000  Uiso   1.00
O222   O     0.52691   0.99005   0.67036   0.00000  Uiso   1.00
O223   O     0.81811   0.07275   0.39926   0.00000  Uiso   1.00
O224   O     0.38374   0.49235   0.04191   0.00000  Uiso   1.00
N225   N     0.60343   0.06532   0.74951   0.00000  Uiso   1.00
N226   N     0.81095   0.12424   0.26893   0.00000  Uiso   1.00
N227   N     0.50143   0.42325   0.01431   0.00000  Uiso   1.00
N228   N     0.47870   0.02690   0.80199   0.00000  Uiso   1.00
N229   N     0.68622   0.08582   0.32142   0.00000  Uiso   1.00
N230   N     0.37670   0.38484   0.06679   0.00000  Uiso   1.00
C231   C     0.85044   0.79235   0.50625   0.00000  Uiso   1.00
C232   C     0.89364   0.84095   0.44831   0.00000  Uiso   1.00
C233   C     0.86048   0.86043   0.37037   0.00000  Uiso   1.00
C234   C     0.90987   0.90537   0.32708   0.00000  Uiso   1.00
C235   C     0.96480   0.97714   0.23204   0.00000  Uiso   1.00
C236   C     0.83644   0.82473   0.59147   0.00000  Uiso   1.00
C237   C     0.75519   0.83055   0.63389   0.00000  Uiso   1.00
C238   C     0.75643   0.86182   0.71111   0.00000  Uiso   1.00
C239   C     0.72258   0.90835   0.83835   0.00000  Uiso   1.00
C240   C     0.92175   0.74232   0.52128   0.00000  Uiso   1.00
C241   C     0.91222   0.67885   0.50470   0.00000  Uiso   1.00
C242   C     0.98528   0.64074   0.52285   0.00000  Uiso   1.00
C243   C     0.08388   0.55933   0.54111   0.00000  Uiso   1.00
C244   C     0.99712   0.83752   0.56798   0.00000  Uiso   1.00
C245   C     0.97331   0.86549   0.48185   0.00000  Uiso   1.00
C246   C     0.02277   0.91041   0.43866   0.00000  Uiso   1.00
C247   C     0.98968   0.92995   0.36067   0.00000  Uiso   1.00
C248   C     0.91611   0.84926   0.62500   0.00000  Uiso   1.00
C249   C     0.91748   0.88053   0.70218   0.00000  Uiso   1.00
C250   C     0.83625   0.88640   0.74470   0.00000  Uiso   1.00
C251   C     0.00142   0.76686   0.55481   0.00000  Uiso   1.00
C252   C     0.07451   0.72884   0.57299   0.00000  Uiso   1.00
C253   C     0.06509   0.66533   0.55644   0.00000  Uiso   1.00
H254   H     0.78841   0.77324   0.48015   0.00000  Uiso   1.00
H255   H     0.79882   0.84144   0.34445   0.00000  Uiso   1.00
H256   H     0.69355   0.81155   0.60793   0.00000  Uiso   1.00
H257   H     0.85056   0.65988   0.47876   0.00000  Uiso   1.00
H258   H     0.84547   0.92788   0.20879   0.00000  Uiso   1.00
H259   H     0.62351   0.86485   0.76437   0.00000  Uiso   1.00
H260   H     0.95459   0.54502   0.49199   0.00000  Uiso   1.00
H261   H     0.05915   0.85662   0.59409   0.00000  Uiso   1.00
H262   H     0.08442   0.92939   0.46463   0.00000  Uiso   1.00
H263   H     0.97914   0.89951   0.72811   0.00000  Uiso   1.00
H264   H     0.13615   0.74784   0.59894   0.00000  Uiso   1.00
H265   H     0.07727   0.99927   0.30634   0.00000  Uiso   1.00
H266   H     0.85531   0.93623   0.86192   0.00000  Uiso   1.00
H267   H     0.18639   0.61641   0.58954   0.00000  Uiso   1.00
O268   O     0.97309   0.00995   0.17036   0.00000  Uiso   1.00
O269   O     0.68189   0.92725   0.89926   0.00000  Uiso   1.00
O270   O     0.11626   0.50765   0.54191   0.00000  Uiso   1.00
N271   N     0.89657   0.93468   0.24951   0.00000  Uiso   1.00
N272   N     0.68905   0.87576   0.76893   0.00000  Uiso   1.00
N273   N     0.99857   0.57675   0.51431   0.00000  Uiso   1.00
N274   N     0.02130   0.97310   0.30199   0.00000  Uiso   1.00
N275   N     0.81378   0.91418   0.82142   0.00000  Uiso   1.00
N276   N     0.12330   0.61516   0.56679   0.00000  Uiso   1.00
C277   C     0.35044   0.70765   0.49375   0.00000  Uiso   1.00
C278   C     0.39364   0.65905   0.55169   0.00000  Uiso   1.00
C279   C     0.36048   0.63957   0.62963   0.00000  Uiso   1.00
C280   C     0.40987   0.59463   0.67292   0.00000  Uiso   1.00
C281   C     0.46480   0.52286   0.76796   0.00000  Uiso   1.00
C282   C     0.33644   0.67527   0.40853   0.00000  Uiso   1.00
C283   C     0.25519   0.66945   0.36611   0.00000  Uiso   1.00
C284   C     0.25643   0.63818   0.28889   0.00000  Uiso   1.00
C285   C     0.22258   0.59165   0.16165   0.00000  Uiso   1.00
C286   C     0.42175   0.75768   0.47872   0.00000  Uiso   1.00
C287   C     0.41222   0.82115   0.49530   0.00000  Uiso   1.00
C288   C     0.48528   0.85926   0.47715   0.00000  Uiso   1.00
C289   C     0.58388   0.94067   0.45889   0.00000  Uiso   1.00
C290   C     0.49712   0.66248   0.43202   0.00000  Uiso   1.00
C291   C     0.47331   0.63451   0.51815   0.00000  Uiso   1.00
C292   C     0.52277   0.58959   0.56134   0.00000  Uiso   1.00
C293   C     0.48968   0.57005   0.63933   0.00000  Uiso   1.00
C294   C     0.41611   0.65074   0.37500   0.00000  Uiso   1.00
C295   C     0.41748   0.61947   0.29782   0.00000  Uiso   1.00
C296   C     0.33625   0.61360   0.25530   0.00000  Uiso   1.00
C297   C     0.50142   0.73314   0.44519   0.00000  Uiso   1.00
C298   C     0.57451   0.77116   0.42701   0.00000  Uiso   1.00
C299   C     0.56509   0.83467   0.44356   0.00000  Uiso   1.00
H300   H     0.28841   0.72676   0.51985   0.00000  Uiso   1.00
H301   H     0.29882   0.65856   0.65555   0.00000  Uiso   1.00
H302   H     0.19355   0.68845   0.39207   0.00000  Uiso   1.00
H303   H     0.35056   0.84012   0.52124   0.00000  Uiso   1.00
H304   H     0.34547   0.57212   0.79121   0.00000  Uiso   1.00
H305   H     0.12351   0.63515   0.23563   0.00000  Uiso   1.00
H306   H     0.45459   0.95498   0.50801   0.00000  Uiso   1.00
H307   H     0.55915   0.64338   0.40591   0.00000  Uiso   1.00
H308   H     0.58442   0.57061   0.53537   0.00000  Uiso   1.00
H309   H     0.47914   0.60049   0.27189   0.00000  Uiso   1.00
H310   H     0.63615   0.75216   0.40106   0.00000  Uiso   1.00
H311   H     0.57727   0.50073   0.69366   0.00000  Uiso   1.00
H312   H     0.35531   0.56377   0.13808   0.00000  Uiso   1.00
H313   H     0.68639   0.88359   0.41046   0.00000  Uiso   1.00
O314   O     0.47309   0.49005   0.82964   0.00000  Uiso   1.00
O315   O     0.18189   0.57275   0.10074   0.00000  Uiso   1.00
O316   O     0.61626   0.99235   0.45809   0.00000  Uiso   1.00
N317   N     0.39657   0.56532   0.75049   0.00000  Uiso   1.00
N318   N     0.18905   0.62424   0.23107   0.00000  Uiso   1.00
N319   N     0.49857   0.92325   0.48569   0.00000  Uiso   1.00
N320   N     0.52130   0.52690   0.69801   0.00000  Uiso   1.00
N321   N     0.31378   0.58582   0.17858   0.00000  Uiso   1.00
N322   N     0.62330   0.88484   0.43321   0.00000  Uiso   1.00
C323   C     0.14956   0.29235   0.99375   0.00000  Uiso   1.00
C324   C     0.10636   0.34095   0.05169   0.00000  Uiso   1.00
C325   C     0.13952   0.36043   0.12963   0.00000  Uiso   1.00
C326   C     0.09013   0.40537   0.17292   0.00000  Uiso   1.00
C327   C     0.03520   0.47714   0.26796   0.00000  Uiso   1.00
C328   C     0.16356   0.32473   0.90853   0.00000  Uiso   1.00
C329   C     0.24481   0.33055   0.86611   0.00000  Uiso   1.00
C330   C     0.24357   0.36182   0.78889   0.00000  Uiso   1.00
C331   C     0.27742   0.40835   0.66165   0.00000  Uiso   1.00
C332   C     0.07825   0.24232   0.97872   0.00000  Uiso   1.00
C333   C     0.08778   0.17885   0.99530   0.00000  Uiso   1.00
C334   C     0.01472   0.14074   0.97715   0.00000  Uiso   1.00
C335   C     0.91612   0.05933   0.95889   0.00000  Uiso   1.00
C336   C     0.00288   0.33752   0.93202   0.00000  Uiso   1.00
C337   C     0.02669   0.36549   0.01815   0.00000  Uiso   1.00
C338   C     0.97723   0.41041   0.06134   0.00000  Uiso   1.00
C339   C     0.01032   0.42995   0.13933   0.00000  Uiso   1.00
C340   C     0.08389   0.34926   0.87500   0.00000  Uiso   1.00
C341   C     0.08252   0.38053   0.79782   0.00000  Uiso   1.00
C342   C     0.16375   0.38640   0.75530   0.00000  Uiso   1.00
C343   C     0.99858   0.26686   0.94519   0.00000  Uiso   1.00
C344   C     0.92549   0.22884   0.92701   0.00000  Uiso   1.00
C345   C     0.93491   0.16533   0.94356   0.00000  Uiso   1.00
H346   H     0.21159   0.27324   0.01985   0.00000  Uiso   1.00
H347   H     0.20118   0.34144   0.15555   0.00000  Uiso   1.00
H348   H     0.30645   0.31155   0.89207   0.00000  Uiso   1.00
H349   H     0.14944   0.15988   0.02124   0.00000  Uiso   1.00
H350   H     0.15453   0.42788   0.29121   0.00000  Uiso   1.00
H351   H     0.37649   0.36485   0.73563   0.00000  Uiso   1.00
H352   H     0.04541   0.04502   0.00801   0.00000  Uiso   1.00
H353   H     0.94085   0.35662   0.90591   0.00000  Uiso   1.00
H354   H     0.91558   0.42939   0.03537   0.00000  Uiso   1.00
H355   H     0.02086   0.39951   0.77189   0.00000  Uiso   1.00
H356   H     0.86385   0.24784   0.90106   0.00000  Uiso   1.00
H357   H     0.92273   0.49927   0.19366   0.00000  Uiso   1.00
H358   H     0.14469   0.43623   0.63808   0.00000  Uiso   1.00
H359   H     0.81361   0.11641   0.91046   0.00000  Uiso   1.00
O360   O     0.02691   0.50995   0.32964   0.00000  Uiso   1.00
O361   O     0.31811   0.42725   0.60074   0.00000  Uiso   1.00
O362   O     0.88374   0.00765   0.95809   0.00000  Uiso   1.00
N363   N     0.10343   0.43468   0.25049   0.00000  Uiso   1.00
N364   N     0.31095   0.37576   0.73107   0.00000  Uiso   1.00
N365   N     0.00143   0.07675   0.98569   0.00000  Uiso   1.00
N366   N     0.97870   0.47310   0.19801   0.00000  Uiso   1.00
N367   N     0.18622   0.41418   0.67858   0.00000  Uiso   1.00
N368   N     0.87670   0.11516   0.93321   0.00000  Uiso   1.00
