data_job_00855
_audit_creation_date              2018-12-19
_audit_creation_method            'Materials Studio'
_symmetry_space_group_name_H-M    'P1'
_symmetry_Int_Tables_number       1
_symmetry_cell_setting            triclinic
loop_
_symmetry_equiv_pos_as_xyz
  x,y,z
_cell_length_a                    24.8900
_cell_length_b                    12.5449
_cell_length_c                    12.4396
_cell_angle_alpha                 90.0000
_cell_angle_beta                  50.6724
_cell_angle_gamma                 90.0000
loop_
_atom_site_label
_atom_site_type_symbol
_atom_site_fract_x
_atom_site_fract_y
_atom_site_fract_z
_atom_site_U_iso_or_equiv
_atom_site_adp_type
_atom_site_occupancy
C1     C     0.81917   0.94108   0.31083   0.00000  Uiso   1.00
C2     C     0.84110   0.01583   0.37356   0.00000  Uiso   1.00
C3     C     0.88168   0.10654   0.31061   0.00000  Uiso   1.00
C4     C     0.89599   0.16424   0.38509   0.00000  Uiso   1.00
C5     C     0.93392   0.28514   0.46227   0.00000  Uiso   1.00
C6     C     0.84434   0.83041   0.31141   0.00000  Uiso   1.00
C7     C     0.88763   0.76523   0.19621   0.00000  Uiso   1.00
C8     C     0.90467   0.66683   0.21839   0.00000  Uiso   1.00
C9     C     0.94759   0.49984   0.19911   0.00000  Uiso   1.00
C10    C     0.74006   0.93666   0.41488   0.00000  Uiso   1.00
C11    C     0.69568   0.96079   0.38668   0.00000  Uiso   1.00
C12    C     0.62492   0.95182   0.49597   0.00000  Uiso   1.00
C13    C     0.50594   0.94980   0.63735   0.00000  Uiso   1.00
C14    C     0.77243   0.88223   0.55505   0.00000  Uiso   1.00
C15    C     0.81571   0.98386   0.50620   0.00000  Uiso   1.00
C16    C     0.82996   0.04144   0.58080   0.00000  Uiso   1.00
C17    C     0.87056   0.13222   0.51797   0.00000  Uiso   1.00
C18    C     0.81895   0.79845   0.44405   0.00000  Uiso   1.00
C19    C     0.83592   0.70012   0.46641   0.00000  Uiso   1.00
C20    C     0.87923   0.63481   0.35128   0.00000  Uiso   1.00
C21    C     0.71467   0.90470   0.54754   0.00000  Uiso   1.00
C22    C     0.64397   0.89569   0.65688   0.00000  Uiso   1.00
C23    C     0.59949   0.91980   0.62886   0.00000  Uiso   1.00
H24    H     0.83894   0.96596   0.20756   0.00000  Uiso   1.00
H25    H     0.90132   0.13125   0.20794   0.00000  Uiso   1.00
H26    H     0.90727   0.78998   0.09358   0.00000  Uiso   1.00
H27    H     0.71535   0.98552   0.28402   0.00000  Uiso   1.00
H28    H     0.95930   0.30038   0.26685   0.00000  Uiso   1.00
H29    H     0.97183   0.58080   0.02571   0.00000  Uiso   1.00
H30    H     0.56712   0.99311   0.42729   0.00000  Uiso   1.00
H31    H     0.75266   0.85734   0.65832   0.00000  Uiso   1.00
H32    H     0.81031   0.01668   0.68345   0.00000  Uiso   1.00
H33    H     0.81626   0.67541   0.56908   0.00000  Uiso   1.00
H34    H     0.62434   0.87095   0.75952   0.00000  Uiso   1.00
H35    H     0.88544   0.20739   0.65278   0.00000  Uiso   1.00
H36    H     0.89796   0.48780   0.41164   0.00000  Uiso   1.00
H37    H     0.49326   0.90012   0.81323   0.00000  Uiso   1.00
O38    O     0.96187   0.36064   0.46819   0.00000  Uiso   1.00
O39    O     0.97829   0.41657   0.15183   0.00000  Uiso   1.00
O40    O     0.44733   0.95752   0.67869   0.00000  Uiso   1.00
N41    N     0.93400   0.25664   0.35424   0.00000  Uiso   1.00
N42    N     0.94571   0.58388   0.12878   0.00000  Uiso   1.00
N43    N     0.56735   0.96933   0.50422   0.00000  Uiso   1.00
N44    N     0.89425   0.20661   0.56191   0.00000  Uiso   1.00
N45    N     0.90597   0.53384   0.33645   0.00000  Uiso   1.00
N46    N     0.52760   0.91930   0.71189   0.00000  Uiso   1.00
C47    C     0.18083   0.44108   0.18917   0.00000  Uiso   1.00
C48    C     0.15890   0.51583   0.12644   0.00000  Uiso   1.00
C49    C     0.11832   0.60654   0.18939   0.00000  Uiso   1.00
C50    C     0.10401   0.66424   0.11491   0.00000  Uiso   1.00
C51    C     0.06608   0.78514   0.03773   0.00000  Uiso   1.00
C52    C     0.15566   0.33041   0.18859   0.00000  Uiso   1.00
C53    C     0.11237   0.26523   0.30379   0.00000  Uiso   1.00
C54    C     0.09533   0.16683   0.28161   0.00000  Uiso   1.00
C55    C     0.05241   0.99984   0.30089   0.00000  Uiso   1.00
C56    C     0.25994   0.43666   0.08512   0.00000  Uiso   1.00
C57    C     0.30432   0.46079   0.11332   0.00000  Uiso   1.00
C58    C     0.37508   0.45182   0.00403   0.00000  Uiso   1.00
C59    C     0.49406   0.44980   0.86265   0.00000  Uiso   1.00
C60    C     0.22757   0.38223   0.94495   0.00000  Uiso   1.00
C61    C     0.18429   0.48386   0.99380   0.00000  Uiso   1.00
C62    C     0.17004   0.54144   0.91920   0.00000  Uiso   1.00
C63    C     0.12944   0.63222   0.98203   0.00000  Uiso   1.00
C64    C     0.18105   0.29845   0.05595   0.00000  Uiso   1.00
C65    C     0.16408   0.20012   0.03359   0.00000  Uiso   1.00
C66    C     0.12077   0.13481   0.14872   0.00000  Uiso   1.00
C67    C     0.28533   0.40470   0.95246   0.00000  Uiso   1.00
C68    C     0.35603   0.39569   0.84312   0.00000  Uiso   1.00
C69    C     0.40051   0.41980   0.87114   0.00000  Uiso   1.00
H70    H     0.16106   0.46596   0.29244   0.00000  Uiso   1.00
H71    H     0.09868   0.63125   0.29206   0.00000  Uiso   1.00
H72    H     0.09273   0.28998   0.40642   0.00000  Uiso   1.00
H73    H     0.28465   0.48552   0.21598   0.00000  Uiso   1.00
H74    H     0.04070   0.80038   0.23315   0.00000  Uiso   1.00
H75    H     0.02817   0.08080   0.47429   0.00000  Uiso   1.00
H76    H     0.43288   0.49311   0.07271   0.00000  Uiso   1.00
H77    H     0.24734   0.35734   0.84168   0.00000  Uiso   1.00
H78    H     0.18969   0.51668   0.81655   0.00000  Uiso   1.00
H79    H     0.18374   0.17541   0.93092   0.00000  Uiso   1.00
H80    H     0.37566   0.37095   0.74048   0.00000  Uiso   1.00
H81    H     0.11456   0.70739   0.84722   0.00000  Uiso   1.00
H82    H     0.10204   0.98780   0.08836   0.00000  Uiso   1.00
H83    H     0.50674   0.40012   0.68677   0.00000  Uiso   1.00
O84    O     0.03813   0.86064   0.03181   0.00000  Uiso   1.00
O85    O     0.02171   0.91657   0.34817   0.00000  Uiso   1.00
O86    O     0.55267   0.45752   0.82131   0.00000  Uiso   1.00
N87    N     0.06600   0.75664   0.14576   0.00000  Uiso   1.00
N88    N     0.05429   0.08388   0.37122   0.00000  Uiso   1.00
N89    N     0.43265   0.46933   0.99578   0.00000  Uiso   1.00
N90    N     0.10575   0.70661   0.93809   0.00000  Uiso   1.00
N91    N     0.09403   0.03384   0.16355   0.00000  Uiso   1.00
N92    N     0.47240   0.41930   0.78811   0.00000  Uiso   1.00
C93    C     0.18083   0.05892   0.68917   0.00000  Uiso   1.00
C94    C     0.15890   0.98417   0.62644   0.00000  Uiso   1.00
C95    C     0.11832   0.89346   0.68939   0.00000  Uiso   1.00
C96    C     0.10401   0.83576   0.61491   0.00000  Uiso   1.00
C97    C     0.06608   0.71486   0.53773   0.00000  Uiso   1.00
C98    C     0.15566   0.16959   0.68859   0.00000  Uiso   1.00
C99    C     0.11237   0.23477   0.80379   0.00000  Uiso   1.00
C100   C     0.09533   0.33317   0.78161   0.00000  Uiso   1.00
C101   C     0.05241   0.50016   0.80089   0.00000  Uiso   1.00
C102   C     0.25994   0.06334   0.58512   0.00000  Uiso   1.00
C103   C     0.30432   0.03921   0.61332   0.00000  Uiso   1.00
C104   C     0.37508   0.04818   0.50403   0.00000  Uiso   1.00
C105   C     0.49406   0.05020   0.36265   0.00000  Uiso   1.00
C106   C     0.22757   0.11777   0.44495   0.00000  Uiso   1.00
C107   C     0.18429   0.01614   0.49380   0.00000  Uiso   1.00
C108   C     0.17004   0.95856   0.41920   0.00000  Uiso   1.00
C109   C     0.12944   0.86778   0.48203   0.00000  Uiso   1.00
C110   C     0.18105   0.20155   0.55595   0.00000  Uiso   1.00
C111   C     0.16408   0.29988   0.53359   0.00000  Uiso   1.00
C112   C     0.12077   0.36519   0.64872   0.00000  Uiso   1.00
C113   C     0.28533   0.09530   0.45246   0.00000  Uiso   1.00
C114   C     0.35603   0.10431   0.34312   0.00000  Uiso   1.00
C115   C     0.40051   0.08020   0.37114   0.00000  Uiso   1.00
H116   H     0.16106   0.03404   0.79244   0.00000  Uiso   1.00
H117   H     0.09868   0.86875   0.79206   0.00000  Uiso   1.00
H118   H     0.09273   0.21002   0.90642   0.00000  Uiso   1.00
H119   H     0.28465   0.01448   0.71598   0.00000  Uiso   1.00
H120   H     0.04070   0.69962   0.73315   0.00000  Uiso   1.00
H121   H     0.02817   0.41920   0.97429   0.00000  Uiso   1.00
H122   H     0.43288   0.00689   0.57271   0.00000  Uiso   1.00
H123   H     0.24734   0.14266   0.34168   0.00000  Uiso   1.00
H124   H     0.18969   0.98332   0.31655   0.00000  Uiso   1.00
H125   H     0.18374   0.32459   0.43092   0.00000  Uiso   1.00
H126   H     0.37566   0.12905   0.24048   0.00000  Uiso   1.00
H127   H     0.11456   0.79261   0.34722   0.00000  Uiso   1.00
H128   H     0.10204   0.51220   0.58836   0.00000  Uiso   1.00
H129   H     0.50674   0.09988   0.18677   0.00000  Uiso   1.00
O130   O     0.03813   0.63936   0.53181   0.00000  Uiso   1.00
O131   O     0.02171   0.58343   0.84817   0.00000  Uiso   1.00
O132   O     0.55267   0.04248   0.32131   0.00000  Uiso   1.00
N133   N     0.06600   0.74336   0.64576   0.00000  Uiso   1.00
N134   N     0.05429   0.41612   0.87122   0.00000  Uiso   1.00
N135   N     0.43265   0.03067   0.49578   0.00000  Uiso   1.00
N136   N     0.10575   0.79339   0.43809   0.00000  Uiso   1.00
N137   N     0.09403   0.46616   0.66355   0.00000  Uiso   1.00
N138   N     0.47240   0.08070   0.28811   0.00000  Uiso   1.00
C139   C     0.81917   0.55892   0.81083   0.00000  Uiso   1.00
C140   C     0.84110   0.48417   0.87356   0.00000  Uiso   1.00
C141   C     0.88168   0.39346   0.81061   0.00000  Uiso   1.00
C142   C     0.89599   0.33576   0.88509   0.00000  Uiso   1.00
C143   C     0.93392   0.21486   0.96227   0.00000  Uiso   1.00
C144   C     0.84434   0.66959   0.81141   0.00000  Uiso   1.00
C145   C     0.88763   0.73477   0.69621   0.00000  Uiso   1.00
C146   C     0.90467   0.83317   0.71839   0.00000  Uiso   1.00
C147   C     0.94759   0.00016   0.69911   0.00000  Uiso   1.00
C148   C     0.74006   0.56334   0.91488   0.00000  Uiso   1.00
C149   C     0.69568   0.53921   0.88668   0.00000  Uiso   1.00
C150   C     0.62492   0.54818   0.99597   0.00000  Uiso   1.00
C151   C     0.50594   0.55020   0.13735   0.00000  Uiso   1.00
C152   C     0.77243   0.61777   0.05505   0.00000  Uiso   1.00
C153   C     0.81571   0.51614   0.00620   0.00000  Uiso   1.00
C154   C     0.82996   0.45856   0.08080   0.00000  Uiso   1.00
C155   C     0.87056   0.36778   0.01797   0.00000  Uiso   1.00
C156   C     0.81895   0.70155   0.94405   0.00000  Uiso   1.00
C157   C     0.83592   0.79988   0.96641   0.00000  Uiso   1.00
C158   C     0.87923   0.86519   0.85128   0.00000  Uiso   1.00
C159   C     0.71467   0.59530   0.04754   0.00000  Uiso   1.00
C160   C     0.64397   0.60431   0.15688   0.00000  Uiso   1.00
C161   C     0.59949   0.58020   0.12886   0.00000  Uiso   1.00
H162   H     0.83894   0.53404   0.70756   0.00000  Uiso   1.00
H163   H     0.90132   0.36875   0.70794   0.00000  Uiso   1.00
H164   H     0.90727   0.71002   0.59358   0.00000  Uiso   1.00
H165   H     0.71535   0.51448   0.78402   0.00000  Uiso   1.00
H166   H     0.95930   0.19962   0.76685   0.00000  Uiso   1.00
H167   H     0.97183   0.91920   0.52571   0.00000  Uiso   1.00
H168   H     0.56712   0.50689   0.92729   0.00000  Uiso   1.00
H169   H     0.75266   0.64266   0.15832   0.00000  Uiso   1.00
H170   H     0.81031   0.48332   0.18345   0.00000  Uiso   1.00
H171   H     0.81626   0.82459   0.06908   0.00000  Uiso   1.00
H172   H     0.62434   0.62905   0.25952   0.00000  Uiso   1.00
H173   H     0.88544   0.29261   0.15278   0.00000  Uiso   1.00
H174   H     0.89796   0.01220   0.91164   0.00000  Uiso   1.00
H175   H     0.49326   0.59988   0.31323   0.00000  Uiso   1.00
O176   O     0.96187   0.13936   0.96819   0.00000  Uiso   1.00
O177   O     0.97829   0.08343   0.65183   0.00000  Uiso   1.00
O178   O     0.44733   0.54248   0.17869   0.00000  Uiso   1.00
N179   N     0.93400   0.24336   0.85424   0.00000  Uiso   1.00
N180   N     0.94571   0.91612   0.62878   0.00000  Uiso   1.00
N181   N     0.56735   0.53067   0.00422   0.00000  Uiso   1.00
N182   N     0.89425   0.29339   0.06191   0.00000  Uiso   1.00
N183   N     0.90597   0.96616   0.83645   0.00000  Uiso   1.00
N184   N     0.52760   0.58070   0.21189   0.00000  Uiso   1.00
