data_job_00671
_audit_creation_date              2018-12-19
_audit_creation_method            'Materials Studio'
_symmetry_space_group_name_H-M    'P1'
_symmetry_Int_Tables_number       1
_symmetry_cell_setting            triclinic
loop_
_symmetry_equiv_pos_as_xyz
  x,y,z
_cell_length_a                    16.9651
_cell_length_b                    17.5631
_cell_length_c                    11.1750
_cell_angle_alpha                 90.0000
_cell_angle_beta                  94.0769
_cell_angle_gamma                 90.0000
loop_
_atom_site_label
_atom_site_type_symbol
_atom_site_fract_x
_atom_site_fract_y
_atom_site_fract_z
_atom_site_U_iso_or_equiv
_atom_site_adp_type
_atom_site_occupancy
C1     C     0.13465   0.66320   0.72325   0.00000  Uiso   1.00
C2     C     0.20876   0.62891   0.67535   0.00000  Uiso   1.00
C3     C     0.21028   0.57277   0.58816   0.00000  Uiso   1.00
C4     C     0.28406   0.54901   0.55665   0.00000  Uiso   1.00
C5     C     0.38852   0.49097   0.47413   0.00000  Uiso   1.00
C6     C     0.14274   0.65131   0.85874   0.00000  Uiso   1.00
C7     C     0.08874   0.61401   0.92573   0.00000  Uiso   1.00
C8     C     0.10694   0.60911   0.04860   0.00000  Uiso   1.00
C9     C     0.10888   0.58590   0.25080   0.00000  Uiso   1.00
C10    C     0.14041   0.74888   0.70358   0.00000  Uiso   1.00
C11    C     0.08445   0.79363   0.64013   0.00000  Uiso   1.00
C12    C     0.10068   0.87089   0.63239   0.00000  Uiso   1.00
C13    C     0.09900   0.99917   0.59368   0.00000  Uiso   1.00
C14    C     0.26298   0.72084   0.82235   0.00000  Uiso   1.00
C15    C     0.27846   0.66021   0.72918   0.00000  Uiso   1.00
C16    C     0.35226   0.63653   0.69780   0.00000  Uiso   1.00
C17    C     0.35389   0.58037   0.61056   0.00000  Uiso   1.00
C18    C     0.21244   0.68261   0.91257   0.00000  Uiso   1.00
C19    C     0.23072   0.67777   0.03536   0.00000  Uiso   1.00
C20    C     0.17677   0.64047   0.10252   0.00000  Uiso   1.00
C21    C     0.21011   0.78019   0.75740   0.00000  Uiso   1.00
C22    C     0.22643   0.85739   0.74977   0.00000  Uiso   1.00
C23    C     0.17051   0.90225   0.68631   0.00000  Uiso   1.00
H24    H     0.08039   0.63883   0.68135   0.00000  Uiso   1.00
H25    H     0.15633   0.54856   0.54653   0.00000  Uiso   1.00
H26    H     0.03480   0.58980   0.88405   0.00000  Uiso   1.00
H27    H     0.03052   0.76939   0.59849   0.00000  Uiso   1.00
H28    H     0.27126   0.46225   0.42083   0.00000  Uiso   1.00
H29    H     0.01501   0.54923   0.13251   0.00000  Uiso   1.00
H30    H     0.00596   0.92794   0.53036   0.00000  Uiso   1.00
H31    H     0.31725   0.74521   0.86426   0.00000  Uiso   1.00
H32    H     0.40619   0.66077   0.73946   0.00000  Uiso   1.00
H33    H     0.28466   0.70200   0.07699   0.00000  Uiso   1.00
H34    H     0.28037   0.88160   0.79143   0.00000  Uiso   1.00
H35    H     0.47405   0.55332   0.57742   0.00000  Uiso   1.00
H36    H     0.21780   0.64031   0.28911   0.00000  Uiso   1.00
H37    H     0.20876   0.01901   0.68695   0.00000  Uiso   1.00
O38    O     0.42689   0.45030   0.41376   0.00000  Uiso   1.00
O39    O     0.09069   0.56443   0.34746   0.00000  Uiso   1.00
O40    O     0.07882   0.06128   0.55745   0.00000  Uiso   1.00
N41    N     0.30678   0.49528   0.47479   0.00000  Uiso   1.00
N42    N     0.06721   0.57660   0.14017   0.00000  Uiso   1.00
N43    N     0.05874   0.93066   0.57723   0.00000  Uiso   1.00
N44    N     0.41590   0.54429   0.55905   0.00000  Uiso   1.00
N45    N     0.17633   0.62560   0.22443   0.00000  Uiso   1.00
N46    N     0.16786   0.97966   0.66150   0.00000  Uiso   1.00
C47    C     0.86535   0.66320   0.77675   0.00000  Uiso   1.00
C48    C     0.79124   0.62891   0.82465   0.00000  Uiso   1.00
C49    C     0.78972   0.57277   0.91184   0.00000  Uiso   1.00
C50    C     0.71594   0.54901   0.94335   0.00000  Uiso   1.00
C51    C     0.61148   0.49097   0.02587   0.00000  Uiso   1.00
C52    C     0.85726   0.65131   0.64126   0.00000  Uiso   1.00
C53    C     0.91126   0.61401   0.57427   0.00000  Uiso   1.00
C54    C     0.89306   0.60911   0.45140   0.00000  Uiso   1.00
C55    C     0.89112   0.58590   0.24920   0.00000  Uiso   1.00
C56    C     0.85959   0.74888   0.79642   0.00000  Uiso   1.00
C57    C     0.91555   0.79363   0.85987   0.00000  Uiso   1.00
C58    C     0.89932   0.87089   0.86761   0.00000  Uiso   1.00
C59    C     0.90100   0.99917   0.90632   0.00000  Uiso   1.00
C60    C     0.73702   0.72084   0.67765   0.00000  Uiso   1.00
C61    C     0.72154   0.66021   0.77082   0.00000  Uiso   1.00
C62    C     0.64774   0.63653   0.80220   0.00000  Uiso   1.00
C63    C     0.64611   0.58037   0.88944   0.00000  Uiso   1.00
C64    C     0.78756   0.68261   0.58743   0.00000  Uiso   1.00
C65    C     0.76928   0.67777   0.46464   0.00000  Uiso   1.00
C66    C     0.82323   0.64047   0.39748   0.00000  Uiso   1.00
C67    C     0.78989   0.78019   0.74260   0.00000  Uiso   1.00
C68    C     0.77357   0.85739   0.75023   0.00000  Uiso   1.00
C69    C     0.82949   0.90225   0.81369   0.00000  Uiso   1.00
H70    H     0.91961   0.63883   0.81865   0.00000  Uiso   1.00
H71    H     0.84367   0.54856   0.95347   0.00000  Uiso   1.00
H72    H     0.96520   0.58980   0.61595   0.00000  Uiso   1.00
H73    H     0.96948   0.76939   0.90151   0.00000  Uiso   1.00
H74    H     0.72874   0.46225   0.07917   0.00000  Uiso   1.00
H75    H     0.98499   0.54923   0.36749   0.00000  Uiso   1.00
H76    H     0.99404   0.92794   0.96964   0.00000  Uiso   1.00
H77    H     0.68275   0.74521   0.63574   0.00000  Uiso   1.00
H78    H     0.59381   0.66077   0.76054   0.00000  Uiso   1.00
H79    H     0.71534   0.70200   0.42301   0.00000  Uiso   1.00
H80    H     0.71963   0.88160   0.70857   0.00000  Uiso   1.00
H81    H     0.52595   0.55332   0.92258   0.00000  Uiso   1.00
H82    H     0.78220   0.64031   0.21089   0.00000  Uiso   1.00
H83    H     0.79124   0.01901   0.81305   0.00000  Uiso   1.00
O84    O     0.57311   0.45030   0.08624   0.00000  Uiso   1.00
O85    O     0.90931   0.56443   0.15254   0.00000  Uiso   1.00
O86    O     0.92118   0.06128   0.94255   0.00000  Uiso   1.00
N87    N     0.69322   0.49528   0.02521   0.00000  Uiso   1.00
N88    N     0.93279   0.57660   0.35983   0.00000  Uiso   1.00
N89    N     0.94126   0.93066   0.92277   0.00000  Uiso   1.00
N90    N     0.58410   0.54429   0.94095   0.00000  Uiso   1.00
N91    N     0.82367   0.62560   0.27557   0.00000  Uiso   1.00
N92    N     0.83214   0.97966   0.83850   0.00000  Uiso   1.00
C93    C     0.86535   0.33680   0.27675   0.00000  Uiso   1.00
C94    C     0.79124   0.37109   0.32465   0.00000  Uiso   1.00
C95    C     0.78972   0.42723   0.41184   0.00000  Uiso   1.00
C96    C     0.71594   0.45099   0.44335   0.00000  Uiso   1.00
C97    C     0.61148   0.50903   0.52587   0.00000  Uiso   1.00
C98    C     0.85726   0.34869   0.14126   0.00000  Uiso   1.00
C99    C     0.91126   0.38599   0.07427   0.00000  Uiso   1.00
C100   C     0.89306   0.39089   0.95140   0.00000  Uiso   1.00
C101   C     0.89112   0.41410   0.74920   0.00000  Uiso   1.00
C102   C     0.85959   0.25112   0.29642   0.00000  Uiso   1.00
C103   C     0.91555   0.20637   0.35987   0.00000  Uiso   1.00
C104   C     0.89932   0.12911   0.36761   0.00000  Uiso   1.00
C105   C     0.90100   0.00083   0.40632   0.00000  Uiso   1.00
C106   C     0.73702   0.27916   0.17765   0.00000  Uiso   1.00
C107   C     0.72154   0.33979   0.27082   0.00000  Uiso   1.00
C108   C     0.64774   0.36347   0.30220   0.00000  Uiso   1.00
C109   C     0.64611   0.41963   0.38944   0.00000  Uiso   1.00
C110   C     0.78756   0.31739   0.08743   0.00000  Uiso   1.00
C111   C     0.76928   0.32223   0.96464   0.00000  Uiso   1.00
C112   C     0.82323   0.35953   0.89748   0.00000  Uiso   1.00
C113   C     0.78989   0.21981   0.24260   0.00000  Uiso   1.00
C114   C     0.77357   0.14261   0.25023   0.00000  Uiso   1.00
C115   C     0.82949   0.09775   0.31369   0.00000  Uiso   1.00
H116   H     0.91961   0.36117   0.31865   0.00000  Uiso   1.00
H117   H     0.84367   0.45144   0.45347   0.00000  Uiso   1.00
H118   H     0.96520   0.41020   0.11595   0.00000  Uiso   1.00
H119   H     0.96948   0.23061   0.40151   0.00000  Uiso   1.00
H120   H     0.72874   0.53775   0.57917   0.00000  Uiso   1.00
H121   H     0.98499   0.45077   0.86749   0.00000  Uiso   1.00
H122   H     0.99404   0.07206   0.46964   0.00000  Uiso   1.00
H123   H     0.68275   0.25479   0.13574   0.00000  Uiso   1.00
H124   H     0.59381   0.33923   0.26054   0.00000  Uiso   1.00
H125   H     0.71534   0.29800   0.92301   0.00000  Uiso   1.00
H126   H     0.71963   0.11840   0.20857   0.00000  Uiso   1.00
H127   H     0.52595   0.44668   0.42258   0.00000  Uiso   1.00
H128   H     0.78220   0.35969   0.71089   0.00000  Uiso   1.00
H129   H     0.79124   0.98099   0.31305   0.00000  Uiso   1.00
O130   O     0.57311   0.54970   0.58624   0.00000  Uiso   1.00
O131   O     0.90931   0.43557   0.65254   0.00000  Uiso   1.00
O132   O     0.92118   0.93872   0.44255   0.00000  Uiso   1.00
N133   N     0.69322   0.50472   0.52521   0.00000  Uiso   1.00
N134   N     0.93279   0.42340   0.85983   0.00000  Uiso   1.00
N135   N     0.94126   0.06934   0.42277   0.00000  Uiso   1.00
N136   N     0.58410   0.45571   0.44095   0.00000  Uiso   1.00
N137   N     0.82367   0.37440   0.77557   0.00000  Uiso   1.00
N138   N     0.83214   0.02034   0.33850   0.00000  Uiso   1.00
C139   C     0.13465   0.33680   0.22325   0.00000  Uiso   1.00
C140   C     0.20876   0.37109   0.17535   0.00000  Uiso   1.00
C141   C     0.21028   0.42723   0.08816   0.00000  Uiso   1.00
C142   C     0.28406   0.45099   0.05665   0.00000  Uiso   1.00
C143   C     0.38852   0.50903   0.97413   0.00000  Uiso   1.00
C144   C     0.14274   0.34869   0.35874   0.00000  Uiso   1.00
C145   C     0.08874   0.38599   0.42573   0.00000  Uiso   1.00
C146   C     0.10694   0.39089   0.54860   0.00000  Uiso   1.00
C147   C     0.10888   0.41410   0.75080   0.00000  Uiso   1.00
C148   C     0.14041   0.25112   0.20358   0.00000  Uiso   1.00
C149   C     0.08445   0.20637   0.14013   0.00000  Uiso   1.00
C150   C     0.10068   0.12911   0.13239   0.00000  Uiso   1.00
C151   C     0.09900   0.00083   0.09368   0.00000  Uiso   1.00
C152   C     0.26298   0.27916   0.32235   0.00000  Uiso   1.00
C153   C     0.27846   0.33979   0.22918   0.00000  Uiso   1.00
C154   C     0.35226   0.36347   0.19780   0.00000  Uiso   1.00
C155   C     0.35389   0.41963   0.11056   0.00000  Uiso   1.00
C156   C     0.21244   0.31739   0.41257   0.00000  Uiso   1.00
C157   C     0.23072   0.32223   0.53536   0.00000  Uiso   1.00
C158   C     0.17677   0.35953   0.60252   0.00000  Uiso   1.00
C159   C     0.21011   0.21981   0.25740   0.00000  Uiso   1.00
C160   C     0.22643   0.14261   0.24977   0.00000  Uiso   1.00
C161   C     0.17051   0.09775   0.18631   0.00000  Uiso   1.00
H162   H     0.08039   0.36117   0.18135   0.00000  Uiso   1.00
H163   H     0.15633   0.45144   0.04653   0.00000  Uiso   1.00
H164   H     0.03480   0.41020   0.38405   0.00000  Uiso   1.00
H165   H     0.03052   0.23061   0.09849   0.00000  Uiso   1.00
H166   H     0.27126   0.53775   0.92083   0.00000  Uiso   1.00
H167   H     0.01501   0.45077   0.63251   0.00000  Uiso   1.00
H168   H     0.00596   0.07206   0.03036   0.00000  Uiso   1.00
H169   H     0.31725   0.25479   0.36426   0.00000  Uiso   1.00
H170   H     0.40619   0.33923   0.23946   0.00000  Uiso   1.00
H171   H     0.28466   0.29800   0.57699   0.00000  Uiso   1.00
H172   H     0.28037   0.11840   0.29143   0.00000  Uiso   1.00
H173   H     0.47405   0.44668   0.07742   0.00000  Uiso   1.00
H174   H     0.21780   0.35969   0.78911   0.00000  Uiso   1.00
H175   H     0.20876   0.98099   0.18695   0.00000  Uiso   1.00
O176   O     0.42689   0.54970   0.91376   0.00000  Uiso   1.00
O177   O     0.09069   0.43557   0.84746   0.00000  Uiso   1.00
O178   O     0.07882   0.93872   0.05745   0.00000  Uiso   1.00
N179   N     0.30678   0.50472   0.97479   0.00000  Uiso   1.00
N180   N     0.06721   0.42340   0.64017   0.00000  Uiso   1.00
N181   N     0.05874   0.06934   0.07723   0.00000  Uiso   1.00
N182   N     0.41590   0.45571   0.05905   0.00000  Uiso   1.00
N183   N     0.17633   0.37440   0.72443   0.00000  Uiso   1.00
N184   N     0.16786   0.02034   0.16150   0.00000  Uiso   1.00
