data_job_01109
_audit_creation_date              2018-12-19
_audit_creation_method            'Materials Studio'
_symmetry_space_group_name_H-M    'P1'
_symmetry_Int_Tables_number       1
_symmetry_cell_setting            triclinic
loop_
_symmetry_equiv_pos_as_xyz
  x,y,z
_cell_length_a                    25.6091
_cell_length_b                    15.2773
_cell_length_c                    19.6998
_cell_angle_alpha                 90.0000
_cell_angle_beta                  140.5994
_cell_angle_gamma                 90.0000
loop_
_atom_site_label
_atom_site_type_symbol
_atom_site_fract_x
_atom_site_fract_y
_atom_site_fract_z
_atom_site_U_iso_or_equiv
_atom_site_adp_type
_atom_site_occupancy
C1     C     0.82893   0.73193   0.31991   0.00000  Uiso   1.00
C2     C     0.77697   0.80850   0.24265   0.00000  Uiso   1.00
C3     C     0.70000   0.83187   0.18983   0.00000  Uiso   1.00
C4     C     0.66249   0.90401   0.12249   0.00000  Uiso   1.00
C5     C     0.57600   0.01571   0.00460   0.00000  Uiso   1.00
C6     C     0.84665   0.67571   0.27545   0.00000  Uiso   1.00
C7     C     0.82828   0.58742   0.25023   0.00000  Uiso   1.00
C8     C     0.84944   0.54777   0.21052   0.00000  Uiso   1.00
C9     C     0.87117   0.45330   0.14363   0.00000  Uiso   1.00
C10    C     0.91131   0.77091   0.42405   0.00000  Uiso   1.00
C11    C     0.94732   0.76265   0.52377   0.00000  Uiso   1.00
C12    C     0.02293   0.80313   0.60918   0.00000  Uiso   1.00
C13    C     0.14506   0.85647   0.77301   0.00000  Uiso   1.00
C14    C     0.89920   0.81849   0.29427   0.00000  Uiso   1.00
C15    C     0.81515   0.85551   0.22872   0.00000  Uiso   1.00
C16    C     0.77775   0.92763   0.16145   0.00000  Uiso   1.00
C17    C     0.70073   0.95111   0.10854   0.00000  Uiso   1.00
C18    C     0.88482   0.72272   0.26152   0.00000  Uiso   1.00
C19    C     0.90602   0.68318   0.22185   0.00000  Uiso   1.00
C20    C     0.88768   0.59487   0.19656   0.00000  Uiso   1.00
C21    C     0.94949   0.81792   0.41012   0.00000  Uiso   1.00
C22    C     0.02506   0.85842   0.49539   0.00000  Uiso   1.00
C23    C     0.06117   0.85023   0.59522   0.00000  Uiso   1.00
H24    H     0.79922   0.69533   0.33076   0.00000  Uiso   1.00
H25    H     0.67048   0.79546   0.20062   0.00000  Uiso   1.00
H26    H     0.79874   0.55106   0.26102   0.00000  Uiso   1.00
H27    H     0.91776   0.72626   0.53452   0.00000  Uiso   1.00
H28    H     0.54457   0.92720   0.05017   0.00000  Uiso   1.00
H29    H     0.81505   0.41184   0.17756   0.00000  Uiso   1.00
H30    H     0.06603   0.78129   0.75429   0.00000  Uiso   1.00
H31    H     0.92892   0.85509   0.28342   0.00000  Uiso   1.00
H32    H     0.80730   0.96400   0.15069   0.00000  Uiso   1.00
H33    H     0.93556   0.71959   0.21108   0.00000  Uiso   1.00
H34    H     0.05458   0.89479   0.48458   0.00000  Uiso   1.00
H35    H     0.65562   0.06399   0.00963   0.00000  Uiso   1.00
H36    H     0.92610   0.54862   0.13703   0.00000  Uiso   1.00
H37    H     0.17707   0.91808   0.71376   0.00000  Uiso   1.00
O38    O     0.51774   0.06434   0.94341   0.00000  Uiso   1.00
O39    O     0.87261   0.38820   0.11057   0.00000  Uiso   1.00
O40    O     0.20188   0.87292   0.86722   0.00000  Uiso   1.00
N41    N     0.58740   0.94446   0.05886   0.00000  Uiso   1.00
N42    N     0.84027   0.46263   0.17795   0.00000  Uiso   1.00
N43    N     0.07493   0.80802   0.71715   0.00000  Uiso   1.00
N44    N     0.64716   0.01806   0.03705   0.00000  Uiso   1.00
N45    N     0.90003   0.53623   0.15614   0.00000  Uiso   1.00
N46    N     0.13468   0.88162   0.69534   0.00000  Uiso   1.00
C47    C     0.32893   0.23193   0.31991   0.00000  Uiso   1.00
C48    C     0.27697   0.30850   0.24265   0.00000  Uiso   1.00
C49    C     0.20000   0.33187   0.18983   0.00000  Uiso   1.00
C50    C     0.16249   0.40401   0.12249   0.00000  Uiso   1.00
C51    C     0.07600   0.51571   0.00460   0.00000  Uiso   1.00
C52    C     0.34665   0.17571   0.27545   0.00000  Uiso   1.00
C53    C     0.32828   0.08742   0.25023   0.00000  Uiso   1.00
C54    C     0.34944   0.04777   0.21052   0.00000  Uiso   1.00
C55    C     0.37117   0.95330   0.14363   0.00000  Uiso   1.00
C56    C     0.41131   0.27091   0.42405   0.00000  Uiso   1.00
C57    C     0.44732   0.26265   0.52377   0.00000  Uiso   1.00
C58    C     0.52293   0.30313   0.60918   0.00000  Uiso   1.00
C59    C     0.64506   0.35647   0.77301   0.00000  Uiso   1.00
C60    C     0.39920   0.31849   0.29427   0.00000  Uiso   1.00
C61    C     0.31515   0.35551   0.22872   0.00000  Uiso   1.00
C62    C     0.27775   0.42763   0.16145   0.00000  Uiso   1.00
C63    C     0.20073   0.45111   0.10854   0.00000  Uiso   1.00
C64    C     0.38482   0.22272   0.26152   0.00000  Uiso   1.00
C65    C     0.40602   0.18318   0.22185   0.00000  Uiso   1.00
C66    C     0.38768   0.09487   0.19656   0.00000  Uiso   1.00
C67    C     0.44949   0.31792   0.41012   0.00000  Uiso   1.00
C68    C     0.52506   0.35842   0.49539   0.00000  Uiso   1.00
C69    C     0.56117   0.35023   0.59522   0.00000  Uiso   1.00
H70    H     0.29922   0.19533   0.33076   0.00000  Uiso   1.00
H71    H     0.17048   0.29546   0.20062   0.00000  Uiso   1.00
H72    H     0.29874   0.05106   0.26102   0.00000  Uiso   1.00
H73    H     0.41776   0.22626   0.53452   0.00000  Uiso   1.00
H74    H     0.04457   0.42720   0.05017   0.00000  Uiso   1.00
H75    H     0.31505   0.91184   0.17756   0.00000  Uiso   1.00
H76    H     0.56603   0.28129   0.75429   0.00000  Uiso   1.00
H77    H     0.42892   0.35509   0.28342   0.00000  Uiso   1.00
H78    H     0.30730   0.46400   0.15069   0.00000  Uiso   1.00
H79    H     0.43556   0.21959   0.21108   0.00000  Uiso   1.00
H80    H     0.55458   0.39479   0.48458   0.00000  Uiso   1.00
H81    H     0.15562   0.56399   0.00963   0.00000  Uiso   1.00
H82    H     0.42610   0.04862   0.13703   0.00000  Uiso   1.00
H83    H     0.67707   0.41808   0.71376   0.00000  Uiso   1.00
O84    O     0.01774   0.56434   0.94341   0.00000  Uiso   1.00
O85    O     0.37261   0.88820   0.11057   0.00000  Uiso   1.00
O86    O     0.70188   0.37292   0.86722   0.00000  Uiso   1.00
N87    N     0.08740   0.44446   0.05886   0.00000  Uiso   1.00
N88    N     0.34027   0.96263   0.17795   0.00000  Uiso   1.00
N89    N     0.57493   0.30802   0.71715   0.00000  Uiso   1.00
N90    N     0.14716   0.51806   0.03705   0.00000  Uiso   1.00
N91    N     0.40003   0.03623   0.15614   0.00000  Uiso   1.00
N92    N     0.63468   0.38162   0.69534   0.00000  Uiso   1.00
C93    C     0.17107   0.73193   0.18009   0.00000  Uiso   1.00
C94    C     0.22303   0.80850   0.25735   0.00000  Uiso   1.00
C95    C     0.30000   0.83187   0.31017   0.00000  Uiso   1.00
C96    C     0.33751   0.90401   0.37751   0.00000  Uiso   1.00
C97    C     0.42400   0.01571   0.49540   0.00000  Uiso   1.00
C98    C     0.15335   0.67571   0.22455   0.00000  Uiso   1.00
C99    C     0.17172   0.58742   0.24977   0.00000  Uiso   1.00
C100   C     0.15056   0.54777   0.28948   0.00000  Uiso   1.00
C101   C     0.12883   0.45330   0.35637   0.00000  Uiso   1.00
C102   C     0.08869   0.77091   0.07595   0.00000  Uiso   1.00
C103   C     0.05268   0.76265   0.97623   0.00000  Uiso   1.00
C104   C     0.97707   0.80313   0.89082   0.00000  Uiso   1.00
C105   C     0.85494   0.85647   0.72699   0.00000  Uiso   1.00
C106   C     0.10080   0.81849   0.20573   0.00000  Uiso   1.00
C107   C     0.18485   0.85551   0.27128   0.00000  Uiso   1.00
C108   C     0.22225   0.92763   0.33855   0.00000  Uiso   1.00
C109   C     0.29927   0.95111   0.39146   0.00000  Uiso   1.00
C110   C     0.11518   0.72272   0.23848   0.00000  Uiso   1.00
C111   C     0.09398   0.68318   0.27815   0.00000  Uiso   1.00
C112   C     0.11232   0.59487   0.30344   0.00000  Uiso   1.00
C113   C     0.05051   0.81792   0.08988   0.00000  Uiso   1.00
C114   C     0.97494   0.85842   0.00461   0.00000  Uiso   1.00
C115   C     0.93883   0.85023   0.90478   0.00000  Uiso   1.00
H116   H     0.20078   0.69533   0.16924   0.00000  Uiso   1.00
H117   H     0.32952   0.79546   0.29938   0.00000  Uiso   1.00
H118   H     0.20126   0.55106   0.23898   0.00000  Uiso   1.00
H119   H     0.08224   0.72626   0.96548   0.00000  Uiso   1.00
H120   H     0.45543   0.92720   0.44983   0.00000  Uiso   1.00
H121   H     0.18495   0.41184   0.32244   0.00000  Uiso   1.00
H122   H     0.93397   0.78129   0.74571   0.00000  Uiso   1.00
H123   H     0.07108   0.85509   0.21658   0.00000  Uiso   1.00
H124   H     0.19270   0.96400   0.34931   0.00000  Uiso   1.00
H125   H     0.06444   0.71959   0.28892   0.00000  Uiso   1.00
H126   H     0.94542   0.89479   0.01542   0.00000  Uiso   1.00
H127   H     0.34438   0.06399   0.49037   0.00000  Uiso   1.00
H128   H     0.07390   0.54862   0.36297   0.00000  Uiso   1.00
H129   H     0.82293   0.91808   0.78624   0.00000  Uiso   1.00
O130   O     0.48226   0.06434   0.55659   0.00000  Uiso   1.00
O131   O     0.12739   0.38820   0.38943   0.00000  Uiso   1.00
O132   O     0.79812   0.87292   0.63278   0.00000  Uiso   1.00
N133   N     0.41260   0.94446   0.44114   0.00000  Uiso   1.00
N134   N     0.15973   0.46263   0.32205   0.00000  Uiso   1.00
N135   N     0.92507   0.80802   0.78285   0.00000  Uiso   1.00
N136   N     0.35284   0.01806   0.46295   0.00000  Uiso   1.00
N137   N     0.09997   0.53623   0.34386   0.00000  Uiso   1.00
N138   N     0.86532   0.88162   0.80466   0.00000  Uiso   1.00
C139   C     0.67107   0.23193   0.18009   0.00000  Uiso   1.00
C140   C     0.72303   0.30850   0.25735   0.00000  Uiso   1.00
C141   C     0.80000   0.33187   0.31017   0.00000  Uiso   1.00
C142   C     0.83751   0.40401   0.37751   0.00000  Uiso   1.00
C143   C     0.92400   0.51571   0.49540   0.00000  Uiso   1.00
C144   C     0.65335   0.17571   0.22455   0.00000  Uiso   1.00
C145   C     0.67172   0.08742   0.24977   0.00000  Uiso   1.00
C146   C     0.65056   0.04777   0.28948   0.00000  Uiso   1.00
C147   C     0.62883   0.95330   0.35637   0.00000  Uiso   1.00
C148   C     0.58869   0.27091   0.07595   0.00000  Uiso   1.00
C149   C     0.55268   0.26265   0.97623   0.00000  Uiso   1.00
C150   C     0.47707   0.30313   0.89082   0.00000  Uiso   1.00
C151   C     0.35494   0.35647   0.72699   0.00000  Uiso   1.00
C152   C     0.60080   0.31849   0.20573   0.00000  Uiso   1.00
C153   C     0.68485   0.35551   0.27128   0.00000  Uiso   1.00
C154   C     0.72225   0.42763   0.33855   0.00000  Uiso   1.00
C155   C     0.79927   0.45111   0.39146   0.00000  Uiso   1.00
C156   C     0.61518   0.22272   0.23848   0.00000  Uiso   1.00
C157   C     0.59398   0.18318   0.27815   0.00000  Uiso   1.00
C158   C     0.61232   0.09487   0.30344   0.00000  Uiso   1.00
C159   C     0.55051   0.31792   0.08988   0.00000  Uiso   1.00
C160   C     0.47494   0.35842   0.00461   0.00000  Uiso   1.00
C161   C     0.43883   0.35023   0.90478   0.00000  Uiso   1.00
H162   H     0.70078   0.19533   0.16924   0.00000  Uiso   1.00
H163   H     0.82952   0.29546   0.29938   0.00000  Uiso   1.00
H164   H     0.70126   0.05106   0.23898   0.00000  Uiso   1.00
H165   H     0.58224   0.22626   0.96548   0.00000  Uiso   1.00
H166   H     0.95543   0.42720   0.44983   0.00000  Uiso   1.00
H167   H     0.68495   0.91184   0.32244   0.00000  Uiso   1.00
H168   H     0.43397   0.28129   0.74571   0.00000  Uiso   1.00
H169   H     0.57108   0.35509   0.21658   0.00000  Uiso   1.00
H170   H     0.69270   0.46400   0.34931   0.00000  Uiso   1.00
H171   H     0.56444   0.21959   0.28892   0.00000  Uiso   1.00
H172   H     0.44542   0.39479   0.01542   0.00000  Uiso   1.00
H173   H     0.84438   0.56399   0.49037   0.00000  Uiso   1.00
H174   H     0.57390   0.04862   0.36297   0.00000  Uiso   1.00
H175   H     0.32293   0.41808   0.78624   0.00000  Uiso   1.00
O176   O     0.98226   0.56434   0.55659   0.00000  Uiso   1.00
O177   O     0.62739   0.88820   0.38943   0.00000  Uiso   1.00
O178   O     0.29812   0.37292   0.63278   0.00000  Uiso   1.00
N179   N     0.91260   0.44446   0.44114   0.00000  Uiso   1.00
N180   N     0.65973   0.96263   0.32205   0.00000  Uiso   1.00
N181   N     0.42507   0.30802   0.78285   0.00000  Uiso   1.00
N182   N     0.85284   0.51806   0.46295   0.00000  Uiso   1.00
N183   N     0.59997   0.03623   0.34386   0.00000  Uiso   1.00
N184   N     0.36532   0.38162   0.80466   0.00000  Uiso   1.00
C185   C     0.17107   0.26807   0.68009   0.00000  Uiso   1.00
C186   C     0.22303   0.19150   0.75735   0.00000  Uiso   1.00
C187   C     0.30000   0.16813   0.81017   0.00000  Uiso   1.00
C188   C     0.33751   0.09599   0.87751   0.00000  Uiso   1.00
C189   C     0.42400   0.98429   0.99540   0.00000  Uiso   1.00
C190   C     0.15335   0.32429   0.72455   0.00000  Uiso   1.00
C191   C     0.17172   0.41258   0.74977   0.00000  Uiso   1.00
C192   C     0.15056   0.45223   0.78948   0.00000  Uiso   1.00
C193   C     0.12883   0.54670   0.85637   0.00000  Uiso   1.00
C194   C     0.08869   0.22909   0.57595   0.00000  Uiso   1.00
C195   C     0.05268   0.23735   0.47623   0.00000  Uiso   1.00
C196   C     0.97707   0.19687   0.39082   0.00000  Uiso   1.00
C197   C     0.85494   0.14353   0.22699   0.00000  Uiso   1.00
C198   C     0.10080   0.18151   0.70573   0.00000  Uiso   1.00
C199   C     0.18485   0.14449   0.77128   0.00000  Uiso   1.00
C200   C     0.22225   0.07237   0.83855   0.00000  Uiso   1.00
C201   C     0.29927   0.04889   0.89146   0.00000  Uiso   1.00
C202   C     0.11518   0.27728   0.73848   0.00000  Uiso   1.00
C203   C     0.09398   0.31682   0.77815   0.00000  Uiso   1.00
C204   C     0.11232   0.40513   0.80344   0.00000  Uiso   1.00
C205   C     0.05051   0.18208   0.58988   0.00000  Uiso   1.00
C206   C     0.97494   0.14158   0.50461   0.00000  Uiso   1.00
C207   C     0.93883   0.14977   0.40478   0.00000  Uiso   1.00
H208   H     0.20078   0.30467   0.66924   0.00000  Uiso   1.00
H209   H     0.32952   0.20454   0.79938   0.00000  Uiso   1.00
H210   H     0.20126   0.44894   0.73898   0.00000  Uiso   1.00
H211   H     0.08224   0.27374   0.46548   0.00000  Uiso   1.00
H212   H     0.45543   0.07280   0.94983   0.00000  Uiso   1.00
H213   H     0.18495   0.58816   0.82244   0.00000  Uiso   1.00
H214   H     0.93397   0.21871   0.24571   0.00000  Uiso   1.00
H215   H     0.07108   0.14491   0.71658   0.00000  Uiso   1.00
H216   H     0.19270   0.03600   0.84931   0.00000  Uiso   1.00
H217   H     0.06444   0.28041   0.78892   0.00000  Uiso   1.00
H218   H     0.94542   0.10521   0.51542   0.00000  Uiso   1.00
H219   H     0.34438   0.93601   0.99037   0.00000  Uiso   1.00
H220   H     0.07390   0.45138   0.86297   0.00000  Uiso   1.00
H221   H     0.82293   0.08192   0.28624   0.00000  Uiso   1.00
O222   O     0.48226   0.93566   0.05659   0.00000  Uiso   1.00
O223   O     0.12739   0.61180   0.88943   0.00000  Uiso   1.00
O224   O     0.79812   0.12708   0.13278   0.00000  Uiso   1.00
N225   N     0.41260   0.05554   0.94114   0.00000  Uiso   1.00
N226   N     0.15973   0.53737   0.82205   0.00000  Uiso   1.00
N227   N     0.92507   0.19198   0.28285   0.00000  Uiso   1.00
N228   N     0.35284   0.98194   0.96295   0.00000  Uiso   1.00
N229   N     0.09997   0.46377   0.84386   0.00000  Uiso   1.00
N230   N     0.86532   0.11838   0.30466   0.00000  Uiso   1.00
C231   C     0.67107   0.76807   0.68009   0.00000  Uiso   1.00
C232   C     0.72303   0.69150   0.75735   0.00000  Uiso   1.00
C233   C     0.80000   0.66813   0.81017   0.00000  Uiso   1.00
C234   C     0.83751   0.59599   0.87751   0.00000  Uiso   1.00
C235   C     0.92400   0.48429   0.99540   0.00000  Uiso   1.00
C236   C     0.65335   0.82429   0.72455   0.00000  Uiso   1.00
C237   C     0.67172   0.91258   0.74977   0.00000  Uiso   1.00
C238   C     0.65056   0.95223   0.78948   0.00000  Uiso   1.00
C239   C     0.62883   0.04670   0.85637   0.00000  Uiso   1.00
C240   C     0.58869   0.72909   0.57595   0.00000  Uiso   1.00
C241   C     0.55268   0.73735   0.47623   0.00000  Uiso   1.00
C242   C     0.47707   0.69687   0.39082   0.00000  Uiso   1.00
C243   C     0.35494   0.64353   0.22699   0.00000  Uiso   1.00
C244   C     0.60080   0.68151   0.70573   0.00000  Uiso   1.00
C245   C     0.68485   0.64449   0.77128   0.00000  Uiso   1.00
C246   C     0.72225   0.57237   0.83855   0.00000  Uiso   1.00
C247   C     0.79927   0.54889   0.89146   0.00000  Uiso   1.00
C248   C     0.61518   0.77728   0.73848   0.00000  Uiso   1.00
C249   C     0.59398   0.81682   0.77815   0.00000  Uiso   1.00
C250   C     0.61232   0.90513   0.80344   0.00000  Uiso   1.00
C251   C     0.55051   0.68208   0.58988   0.00000  Uiso   1.00
C252   C     0.47494   0.64158   0.50461   0.00000  Uiso   1.00
C253   C     0.43883   0.64977   0.40478   0.00000  Uiso   1.00
H254   H     0.70078   0.80467   0.66924   0.00000  Uiso   1.00
H255   H     0.82952   0.70454   0.79938   0.00000  Uiso   1.00
H256   H     0.70126   0.94894   0.73898   0.00000  Uiso   1.00
H257   H     0.58224   0.77374   0.46548   0.00000  Uiso   1.00
H258   H     0.95543   0.57280   0.94983   0.00000  Uiso   1.00
H259   H     0.68495   0.08816   0.82244   0.00000  Uiso   1.00
H260   H     0.43397   0.71871   0.24571   0.00000  Uiso   1.00
H261   H     0.57108   0.64491   0.71658   0.00000  Uiso   1.00
H262   H     0.69270   0.53600   0.84931   0.00000  Uiso   1.00
H263   H     0.56444   0.78041   0.78892   0.00000  Uiso   1.00
H264   H     0.44542   0.60521   0.51542   0.00000  Uiso   1.00
H265   H     0.84438   0.43601   0.99037   0.00000  Uiso   1.00
H266   H     0.57390   0.95138   0.86297   0.00000  Uiso   1.00
H267   H     0.32293   0.58192   0.28624   0.00000  Uiso   1.00
O268   O     0.98226   0.43566   0.05659   0.00000  Uiso   1.00
O269   O     0.62739   0.11180   0.88943   0.00000  Uiso   1.00
O270   O     0.29812   0.62708   0.13278   0.00000  Uiso   1.00
N271   N     0.91260   0.55554   0.94114   0.00000  Uiso   1.00
N272   N     0.65973   0.03737   0.82205   0.00000  Uiso   1.00
N273   N     0.42507   0.69198   0.28285   0.00000  Uiso   1.00
N274   N     0.85284   0.48194   0.96295   0.00000  Uiso   1.00
N275   N     0.59997   0.96377   0.84386   0.00000  Uiso   1.00
N276   N     0.36532   0.61838   0.30466   0.00000  Uiso   1.00
C277   C     0.82893   0.26807   0.81991   0.00000  Uiso   1.00
C278   C     0.77697   0.19150   0.74265   0.00000  Uiso   1.00
C279   C     0.70000   0.16813   0.68983   0.00000  Uiso   1.00
C280   C     0.66249   0.09599   0.62249   0.00000  Uiso   1.00
C281   C     0.57600   0.98429   0.50460   0.00000  Uiso   1.00
C282   C     0.84665   0.32429   0.77545   0.00000  Uiso   1.00
C283   C     0.82828   0.41258   0.75023   0.00000  Uiso   1.00
C284   C     0.84944   0.45223   0.71052   0.00000  Uiso   1.00
C285   C     0.87117   0.54670   0.64363   0.00000  Uiso   1.00
C286   C     0.91131   0.22909   0.92405   0.00000  Uiso   1.00
C287   C     0.94732   0.23735   0.02377   0.00000  Uiso   1.00
C288   C     0.02293   0.19687   0.10918   0.00000  Uiso   1.00
C289   C     0.14506   0.14353   0.27301   0.00000  Uiso   1.00
C290   C     0.89920   0.18151   0.79427   0.00000  Uiso   1.00
C291   C     0.81515   0.14449   0.72872   0.00000  Uiso   1.00
C292   C     0.77775   0.07237   0.66145   0.00000  Uiso   1.00
C293   C     0.70073   0.04889   0.60854   0.00000  Uiso   1.00
C294   C     0.88482   0.27728   0.76152   0.00000  Uiso   1.00
C295   C     0.90602   0.31682   0.72185   0.00000  Uiso   1.00
C296   C     0.88768   0.40513   0.69656   0.00000  Uiso   1.00
C297   C     0.94949   0.18208   0.91012   0.00000  Uiso   1.00
C298   C     0.02506   0.14158   0.99539   0.00000  Uiso   1.00
C299   C     0.06117   0.14977   0.09522   0.00000  Uiso   1.00
H300   H     0.79922   0.30467   0.83076   0.00000  Uiso   1.00
H301   H     0.67048   0.20454   0.70062   0.00000  Uiso   1.00
H302   H     0.79874   0.44894   0.76102   0.00000  Uiso   1.00
H303   H     0.91776   0.27374   0.03452   0.00000  Uiso   1.00
H304   H     0.54457   0.07280   0.55017   0.00000  Uiso   1.00
H305   H     0.81505   0.58816   0.67756   0.00000  Uiso   1.00
H306   H     0.06603   0.21871   0.25429   0.00000  Uiso   1.00
H307   H     0.92892   0.14491   0.78342   0.00000  Uiso   1.00
H308   H     0.80730   0.03600   0.65069   0.00000  Uiso   1.00
H309   H     0.93556   0.28041   0.71108   0.00000  Uiso   1.00
H310   H     0.05458   0.10521   0.98458   0.00000  Uiso   1.00
H311   H     0.65562   0.93601   0.50963   0.00000  Uiso   1.00
H312   H     0.92610   0.45138   0.63703   0.00000  Uiso   1.00
H313   H     0.17707   0.08192   0.21376   0.00000  Uiso   1.00
O314   O     0.51774   0.93566   0.44341   0.00000  Uiso   1.00
O315   O     0.87261   0.61180   0.61057   0.00000  Uiso   1.00
O316   O     0.20188   0.12708   0.36722   0.00000  Uiso   1.00
N317   N     0.58740   0.05554   0.55886   0.00000  Uiso   1.00
N318   N     0.84027   0.53737   0.67795   0.00000  Uiso   1.00
N319   N     0.07493   0.19198   0.21715   0.00000  Uiso   1.00
N320   N     0.64716   0.98194   0.53705   0.00000  Uiso   1.00
N321   N     0.90003   0.46377   0.65614   0.00000  Uiso   1.00
N322   N     0.13468   0.11838   0.19534   0.00000  Uiso   1.00
C323   C     0.32893   0.76807   0.81991   0.00000  Uiso   1.00
C324   C     0.27697   0.69150   0.74265   0.00000  Uiso   1.00
C325   C     0.20000   0.66813   0.68983   0.00000  Uiso   1.00
C326   C     0.16249   0.59599   0.62249   0.00000  Uiso   1.00
C327   C     0.07600   0.48429   0.50460   0.00000  Uiso   1.00
C328   C     0.34665   0.82429   0.77545   0.00000  Uiso   1.00
C329   C     0.32828   0.91258   0.75023   0.00000  Uiso   1.00
C330   C     0.34944   0.95223   0.71052   0.00000  Uiso   1.00
C331   C     0.37117   0.04670   0.64363   0.00000  Uiso   1.00
C332   C     0.41131   0.72909   0.92405   0.00000  Uiso   1.00
C333   C     0.44732   0.73735   0.02377   0.00000  Uiso   1.00
C334   C     0.52293   0.69687   0.10918   0.00000  Uiso   1.00
C335   C     0.64506   0.64353   0.27301   0.00000  Uiso   1.00
C336   C     0.39920   0.68151   0.79427   0.00000  Uiso   1.00
C337   C     0.31515   0.64449   0.72872   0.00000  Uiso   1.00
C338   C     0.27775   0.57237   0.66145   0.00000  Uiso   1.00
C339   C     0.20073   0.54889   0.60854   0.00000  Uiso   1.00
C340   C     0.38482   0.77728   0.76152   0.00000  Uiso   1.00
C341   C     0.40602   0.81682   0.72185   0.00000  Uiso   1.00
C342   C     0.38768   0.90513   0.69656   0.00000  Uiso   1.00
C343   C     0.44949   0.68208   0.91012   0.00000  Uiso   1.00
C344   C     0.52506   0.64158   0.99539   0.00000  Uiso   1.00
C345   C     0.56117   0.64977   0.09522   0.00000  Uiso   1.00
H346   H     0.29922   0.80467   0.83076   0.00000  Uiso   1.00
H347   H     0.17048   0.70454   0.70062   0.00000  Uiso   1.00
H348   H     0.29874   0.94894   0.76102   0.00000  Uiso   1.00
H349   H     0.41776   0.77374   0.03452   0.00000  Uiso   1.00
H350   H     0.04457   0.57280   0.55017   0.00000  Uiso   1.00
H351   H     0.31505   0.08816   0.67756   0.00000  Uiso   1.00
H352   H     0.56603   0.71871   0.25429   0.00000  Uiso   1.00
H353   H     0.42892   0.64491   0.78342   0.00000  Uiso   1.00
H354   H     0.30730   0.53600   0.65069   0.00000  Uiso   1.00
H355   H     0.43556   0.78041   0.71108   0.00000  Uiso   1.00
H356   H     0.55458   0.60521   0.98458   0.00000  Uiso   1.00
H357   H     0.15562   0.43601   0.50963   0.00000  Uiso   1.00
H358   H     0.42610   0.95138   0.63703   0.00000  Uiso   1.00
H359   H     0.67707   0.58192   0.21376   0.00000  Uiso   1.00
O360   O     0.01774   0.43566   0.44341   0.00000  Uiso   1.00
O361   O     0.37261   0.11180   0.61057   0.00000  Uiso   1.00
O362   O     0.70188   0.62708   0.36722   0.00000  Uiso   1.00
N363   N     0.08740   0.55554   0.55886   0.00000  Uiso   1.00
N364   N     0.34027   0.03737   0.67795   0.00000  Uiso   1.00
N365   N     0.57493   0.69198   0.21715   0.00000  Uiso   1.00
N366   N     0.14716   0.48194   0.53705   0.00000  Uiso   1.00
N367   N     0.40003   0.96377   0.65614   0.00000  Uiso   1.00
N368   N     0.63468   0.61838   0.19534   0.00000  Uiso   1.00
