data_job_06962
_audit_creation_date              2018-12-19
_audit_creation_method            'Materials Studio'
_symmetry_space_group_name_H-M    'P1'
_symmetry_Int_Tables_number       1
_symmetry_cell_setting            triclinic
loop_
_symmetry_equiv_pos_as_xyz
  x,y,z
_cell_length_a                    17.2019
_cell_length_b                    17.8360
_cell_length_c                    29.3371
_cell_angle_alpha                 89.2690
_cell_angle_beta                  98.3309
_cell_angle_gamma                 87.9803
loop_
_atom_site_label
_atom_site_type_symbol
_atom_site_fract_x
_atom_site_fract_y
_atom_site_fract_z
_atom_site_U_iso_or_equiv
_atom_site_adp_type
_atom_site_occupancy
C1     C     0.84654   0.14656   0.26905   0.00000  Uiso   1.00
C2     C     0.88556   0.10815   0.31370   0.00000  Uiso   1.00
C3     C     0.88825   0.13718   0.35755   0.00000  Uiso   1.00
C4     C     0.92675   0.09336   0.39395   0.00000  Uiso   1.00
C5     C     0.98211   0.04444   0.46438   0.00000  Uiso   1.00
C6     C     0.91029   0.15096   0.23811   0.00000  Uiso   1.00
C7     C     0.93376   0.21598   0.21839   0.00000  Uiso   1.00
C8     C     0.99307   0.20819   0.19115   0.00000  Uiso   1.00
C9     C     0.08678   0.22572   0.14419   0.00000  Uiso   1.00
C10    C     0.78738   0.09186   0.24623   0.00000  Uiso   1.00
C11    C     0.70750   0.10718   0.23332   0.00000  Uiso   1.00
C12    C     0.66333   0.04964   0.21292   0.00000  Uiso   1.00
C13    C     0.56621   0.97540   0.17857   0.00000  Uiso   1.00
C14    C     0.91014   0.01712   0.25575   0.00000  Uiso   1.00
C15    C     0.92010   0.03785   0.30648   0.00000  Uiso   1.00
C16    C     0.95861   0.99397   0.34283   0.00000  Uiso   1.00
C17    C     0.96135   0.02293   0.38672   0.00000  Uiso   1.00
C18    C     0.94483   0.08066   0.23088   0.00000  Uiso   1.00
C19    C     0.00412   0.07277   0.20367   0.00000  Uiso   1.00
C20    C     0.02768   0.13776   0.18391   0.00000  Uiso   1.00
C21    C     0.82192   0.02155   0.23901   0.00000  Uiso   1.00
C22    C     0.77787   0.96397   0.21861   0.00000  Uiso   1.00
C23    C     0.69794   0.97921   0.20568   0.00000  Uiso   1.00
H24    H     0.81965   0.20129   0.27468   0.00000  Uiso   1.00
H25    H     0.86151   0.19159   0.36312   0.00000  Uiso   1.00
H26    H     0.90701   0.27037   0.22398   0.00000  Uiso   1.00
H27    H     0.68079   0.16159   0.23892   0.00000  Uiso   1.00
H28    H     0.92318   0.14985   0.45799   0.00000  Uiso   1.00
H29    H     0.01910   0.31596   0.16459   0.00000  Uiso   1.00
H30    H     0.54207   0.08658   0.19610   0.00000  Uiso   1.00
H31    H     0.93704   0.96238   0.25012   0.00000  Uiso   1.00
H32    H     0.98534   0.93957   0.33723   0.00000  Uiso   1.00
H33    H     0.03084   0.01836   0.19808   0.00000  Uiso   1.00
H34    H     0.80462   0.90958   0.21303   0.00000  Uiso   1.00
H35    H     0.02369   0.94530   0.43698   0.00000  Uiso   1.00
H36    H     0.11960   0.11141   0.14357   0.00000  Uiso   1.00
H37    H     0.64257   0.88203   0.17508   0.00000  Uiso   1.00
O38    O     0.00311   0.03689   0.50523   0.00000  Uiso   1.00
O39    O     0.12894   0.25482   0.12029   0.00000  Uiso   1.00
O40    O     0.50309   0.95388   0.16162   0.00000  Uiso   1.00
N41    N     0.94019   0.10483   0.44110   0.00000  Uiso   1.00
N42    N     0.02988   0.26014   0.16679   0.00000  Uiso   1.00
N43    N     0.58390   0.04569   0.19623   0.00000  Uiso   1.00
N44    N     0.99427   0.99476   0.42979   0.00000  Uiso   1.00
N45    N     0.08396   0.15007   0.15548   0.00000  Uiso   1.00
N46    N     0.63798   0.93562   0.18492   0.00000  Uiso   1.00
C47    C     0.21025   0.71940   0.27557   0.00000  Uiso   1.00
C48    C     0.29240   0.68312   0.28757   0.00000  Uiso   1.00
C49    C     0.33572   0.67750   0.33131   0.00000  Uiso   1.00
C50    C     0.40972   0.64231   0.33510   0.00000  Uiso   1.00
C51    C     0.53281   0.59036   0.35960   0.00000  Uiso   1.00
C52    C     0.21648   0.77967   0.23907   0.00000  Uiso   1.00
C53    C     0.19595   0.85521   0.24203   0.00000  Uiso   1.00
C54    C     0.20604   0.90129   0.20500   0.00000  Uiso   1.00
C55    C     0.21121   0.99922   0.15420   0.00000  Uiso   1.00
C56    C     0.15913   0.65943   0.25138   0.00000  Uiso   1.00
C57    C     0.09037   0.63390   0.26468   0.00000  Uiso   1.00
C58    C     0.05215   0.57876   0.23800   0.00000  Uiso   1.00
C59    C     0.96828   0.49000   0.20631   0.00000  Uiso   1.00
C60    C     0.26464   0.66690   0.20454   0.00000  Uiso   1.00
C61    C     0.32195   0.65461   0.24899   0.00000  Uiso   1.00
C62    C     0.39591   0.61942   0.25272   0.00000  Uiso   1.00
C63    C     0.43932   0.61375   0.29645   0.00000  Uiso   1.00
C64    C     0.24603   0.75116   0.20049   0.00000  Uiso   1.00
C65    C     0.25614   0.79713   0.16345   0.00000  Uiso   1.00
C66    C     0.23564   0.87273   0.16635   0.00000  Uiso   1.00
C67    C     0.18868   0.63092   0.21280   0.00000  Uiso   1.00
C68    C     0.15056   0.57582   0.18610   0.00000  Uiso   1.00
C69    C     0.08175   0.55020   0.19935   0.00000  Uiso   1.00
H70    H     0.18724   0.74160   0.30560   0.00000  Uiso   1.00
H71    H     0.31284   0.69958   0.36115   0.00000  Uiso   1.00
H72    H     0.17308   0.87726   0.27189   0.00000  Uiso   1.00
H73    H     0.06752   0.65597   0.29454   0.00000  Uiso   1.00
H74    H     0.46512   0.64044   0.40573   0.00000  Uiso   1.00
H75    H     0.17042   0.01509   0.21751   0.00000  Uiso   1.00
H76    H     0.94782   0.54847   0.26526   0.00000  Uiso   1.00
H77    H     0.28765   0.64471   0.17450   0.00000  Uiso   1.00
H78    H     0.41876   0.59737   0.22286   0.00000  Uiso   1.00
H79    H     0.27900   0.77505   0.13360   0.00000  Uiso   1.00
H80    H     0.17344   0.55376   0.15624   0.00000  Uiso   1.00
H81    H     0.55109   0.55749   0.29348   0.00000  Uiso   1.00
H82    H     0.25639   0.93213   0.10526   0.00000  Uiso   1.00
H83    H     0.03379   0.46551   0.15301   0.00000  Uiso   1.00
O84    O     0.59255   0.56959   0.38378   0.00000  Uiso   1.00
O85    O     0.20590   0.06111   0.13684   0.00000  Uiso   1.00
O86    O     0.91386   0.44891   0.19949   0.00000  Uiso   1.00
N87    N     0.46736   0.62740   0.37267   0.00000  Uiso   1.00
N88    N     0.19184   0.97768   0.19670   0.00000  Uiso   1.00
N89    N     0.98371   0.54144   0.24134   0.00000  Uiso   1.00
N90    N     0.51362   0.58276   0.31227   0.00000  Uiso   1.00
N91    N     0.23810   0.93304   0.13630   0.00000  Uiso   1.00
N92    N     0.02997   0.49680   0.18094   0.00000  Uiso   1.00
C93    C     0.27558   0.26455   0.90214   0.00000  Uiso   1.00
C94    C     0.31024   0.33609   0.92297   0.00000  Uiso   1.00
C95    C     0.37569   0.37058   0.91105   0.00000  Uiso   1.00
C96    C     0.39809   0.43561   0.93412   0.00000  Uiso   1.00
C97    C     0.45827   0.54221   0.96135   0.00000  Uiso   1.00
C98    C     0.27415   0.21003   0.94245   0.00000  Uiso   1.00
C99    C     0.30924   0.13854   0.94690   0.00000  Uiso   1.00
C100   C     0.30124   0.09745   0.98636   0.00000  Uiso   1.00
C101   C     0.30533   0.00832   0.04381   0.00000  Uiso   1.00
C102   C     0.18983   0.28462   0.88359   0.00000  Uiso   1.00
C103   C     0.15401   0.27582   0.83855   0.00000  Uiso   1.00
C104   C     0.07501   0.29752   0.82846   0.00000  Uiso   1.00
C105   C     0.94819   0.32420   0.79452   0.00000  Uiso   1.00
C106   C     0.19895   0.31869   0.96430   0.00000  Uiso   1.00
C107   C     0.26862   0.36550   0.95674   0.00000  Uiso   1.00
C108   C     0.29091   0.43049   0.97983   0.00000  Uiso   1.00
C109   C     0.35639   0.46508   0.96794   0.00000  Uiso   1.00
C110   C     0.23253   0.23944   0.97621   0.00000  Uiso   1.00
C111   C     0.22446   0.19845   0.01567   0.00000  Uiso   1.00
C112   C     0.25954   0.12692   0.02018   0.00000  Uiso   1.00
C113   C     0.14820   0.31403   0.91735   0.00000  Uiso   1.00
C114   C     0.06924   0.33574   0.90733   0.00000  Uiso   1.00
C115   C     0.03331   0.32699   0.86228   0.00000  Uiso   1.00
H116   H     0.30798   0.24164   0.87585   0.00000  Uiso   1.00
H117   H     0.40789   0.34780   0.88493   0.00000  Uiso   1.00
H118   H     0.34144   0.11579   0.92076   0.00000  Uiso   1.00
H119   H     0.18624   0.25306   0.81243   0.00000  Uiso   1.00
H120   H     0.50033   0.47845   0.90989   0.00000  Uiso   1.00
H121   H     0.36019   0.98924   0.98545   0.00000  Uiso   1.00
H122   H     0.03292   0.27870   0.75701   0.00000  Uiso   1.00
H123   H     0.16654   0.34159   0.99058   0.00000  Uiso   1.00
H124   H     0.25869   0.45324   0.00595   0.00000  Uiso   1.00
H125   H     0.19225   0.22123   0.04179   0.00000  Uiso   1.00
H126   H     0.03705   0.35850   0.93346   0.00000  Uiso   1.00
H127   H     0.37924   0.56403   0.00812   0.00000  Uiso   1.00
H128   H     0.23910   0.07481   0.08368   0.00000  Uiso   1.00
H129   H     0.91182   0.36427   0.85524   0.00000  Uiso   1.00
O130   O     0.50297   0.59287   0.96705   0.00000  Uiso   1.00
O131   O     0.31910   0.95103   0.06618   0.00000  Uiso   1.00
O132   O     0.88973   0.33080   0.76648   0.00000  Uiso   1.00
N133   N     0.45917   0.48328   0.93089   0.00000  Uiso   1.00
N134   N     0.32816   0.02590   0.00154   0.00000  Uiso   1.00
N135   N     0.02219   0.29650   0.78797   0.00000  Uiso   1.00
N136   N     0.39401   0.52933   0.98375   0.00000  Uiso   1.00
N137   N     0.26300   0.07194   0.05439   0.00000  Uiso   1.00
N138   N     0.95703   0.34255   0.84083   0.00000  Uiso   1.00
C139   C     0.31221   0.92081   0.72106   0.00000  Uiso   1.00
C140   C     0.26655   0.99491   0.70883   0.00000  Uiso   1.00
C141   C     0.20795   0.02521   0.73172   0.00000  Uiso   1.00
C142   C     0.17331   0.09360   0.71521   0.00000  Uiso   1.00
C143   C     0.09892   0.20310   0.70202   0.00000  Uiso   1.00
C144   C     0.39886   0.93966   0.72880   0.00000  Uiso   1.00
C145   C     0.45151   0.92349   0.76848   0.00000  Uiso   1.00
C146   C     0.52825   0.94535   0.76878   0.00000  Uiso   1.00
C147   C     0.65928   0.96901   0.78659   0.00000  Uiso   1.00
C148   C     0.30046   0.87418   0.67756   0.00000  Uiso   1.00
C149   C     0.27040   0.80295   0.67416   0.00000  Uiso   1.00
C150   C     0.26432   0.76968   0.63132   0.00000  Uiso   1.00
C151   C     0.24257   0.69168   0.56957   0.00000  Uiso   1.00
C152   C     0.35487   0.98838   0.65103   0.00000  Uiso   1.00
C153   C     0.28973   0.03161   0.67080   0.00000  Uiso   1.00
C154   C     0.25516   0.09997   0.65425   0.00000  Uiso   1.00
C155   C     0.19653   0.13037   0.67711   0.00000  Uiso   1.00
C156   C     0.42203   0.97636   0.69077   0.00000  Uiso   1.00
C157   C     0.49871   0.99825   0.69101   0.00000  Uiso   1.00
C158   C     0.55147   0.98212   0.73068   0.00000  Uiso   1.00
C159   C     0.32363   0.91088   0.63953   0.00000  Uiso   1.00
C160   C     0.31760   0.87771   0.59669   0.00000  Uiso   1.00
C161   C     0.28754   0.80645   0.59322   0.00000  Uiso   1.00
H162   H     0.29417   0.89224   0.75067   0.00000  Uiso   1.00
H163   H     0.19004   0.99680   0.76116   0.00000  Uiso   1.00
H164   H     0.43356   0.89508   0.79791   0.00000  Uiso   1.00
H165   H     0.25247   0.77457   0.70360   0.00000  Uiso   1.00
H166   H     0.08484   0.12892   0.75602   0.00000  Uiso   1.00
H167   H     0.59831   0.91441   0.83351   0.00000  Uiso   1.00
H168   H     0.21646   0.66029   0.63464   0.00000  Uiso   1.00
H169   H     0.37292   0.01696   0.62142   0.00000  Uiso   1.00
H170   H     0.27311   0.12836   0.62481   0.00000  Uiso   1.00
H171   H     0.51663   0.02664   0.66157   0.00000  Uiso   1.00
H172   H     0.33554   0.90613   0.56726   0.00000  Uiso   1.00
H173   H     0.15226   0.23570   0.64536   0.00000  Uiso   1.00
H174   H     0.66574   0.02119   0.72285   0.00000  Uiso   1.00
H175   H     0.28389   0.76707   0.52398   0.00000  Uiso   1.00
O176   O     0.05149   0.25336   0.70526   0.00000  Uiso   1.00
O177   O     0.72515   0.97192   0.80692   0.00000  Uiso   1.00
O178   O     0.22417   0.63852   0.54601   0.00000  Uiso   1.00
N179   N     0.11439   0.13875   0.72950   0.00000  Uiso   1.00
N180   N     0.59446   0.93821   0.80195   0.00000  Uiso   1.00
N181   N     0.23748   0.70062   0.61603   0.00000  Uiso   1.00
N182   N     0.15067   0.19621   0.66996   0.00000  Uiso   1.00
N183   N     0.63074   0.99567   0.74241   0.00000  Uiso   1.00
N184   N     0.27376   0.75808   0.55649   0.00000  Uiso   1.00
C185   C     0.80299   0.72798   0.48374   0.00000  Uiso   1.00
C186   C     0.88990   0.71970   0.47882   0.00000  Uiso   1.00
C187   C     0.92365   0.74357   0.44122   0.00000  Uiso   1.00
C188   C     0.00419   0.73083   0.44336   0.00000  Uiso   1.00
C189   C     0.13229   0.72339   0.42989   0.00000  Uiso   1.00
C190   C     0.79930   0.77060   0.52815   0.00000  Uiso   1.00
C191   C     0.75685   0.83726   0.53203   0.00000  Uiso   1.00
C192   C     0.76112   0.86736   0.57570   0.00000  Uiso   1.00
C193   C     0.74850   0.93891   0.63882   0.00000  Uiso   1.00
C194   C     0.77667   0.64905   0.49267   0.00000  Uiso   1.00
C195   C     0.71519   0.61351   0.46671   0.00000  Uiso   1.00
C196   C     0.70040   0.54128   0.48051   0.00000  Uiso   1.00
C197   C     0.65266   0.42411   0.48854   0.00000  Uiso   1.00
C198   C     0.88603   0.66290   0.55439   0.00000  Uiso   1.00
C199   C     0.93500   0.68435   0.51720   0.00000  Uiso   1.00
C200   C     0.01552   0.67157   0.51939   0.00000  Uiso   1.00
C201   C     0.04938   0.69542   0.48180   0.00000  Uiso   1.00
C202   C     0.84440   0.73525   0.56653   0.00000  Uiso   1.00
C203   C     0.84872   0.76526   0.61020   0.00000  Uiso   1.00
C204   C     0.80630   0.83195   0.61414   0.00000  Uiso   1.00
C205   C     0.82178   0.61370   0.53104   0.00000  Uiso   1.00
C206   C     0.80707   0.54151   0.54488   0.00000  Uiso   1.00
C207   C     0.74558   0.50587   0.51895   0.00000  Uiso   1.00
H208   H     0.76787   0.75550   0.45387   0.00000  Uiso   1.00
H209   H     0.88872   0.77093   0.41153   0.00000  Uiso   1.00
H210   H     0.72195   0.86460   0.50233   0.00000  Uiso   1.00
H211   H     0.68030   0.64088   0.43702   0.00000  Uiso   1.00
H212   H     0.04260   0.77247   0.38153   0.00000  Uiso   1.00
H213   H     0.69092   0.96997   0.57298   0.00000  Uiso   1.00
H214   H     0.60310   0.49822   0.43526   0.00000  Uiso   1.00
H215   H     0.92114   0.63538   0.58427   0.00000  Uiso   1.00
H216   H     0.05041   0.64422   0.54909   0.00000  Uiso   1.00
H217   H     0.88363   0.73789   0.63989   0.00000  Uiso   1.00
H218   H     0.84199   0.51418   0.57458   0.00000  Uiso   1.00
H219   H     0.17384   0.66963   0.49318   0.00000  Uiso   1.00
H220   H     0.82215   0.86713   0.68463   0.00000  Uiso   1.00
H221   H     0.73434   0.39538   0.54691   0.00000  Uiso   1.00
O222   O     0.19049   0.72905   0.41187   0.00000  Uiso   1.00
O223   O     0.72909   0.98815   0.66304   0.00000  Uiso   1.00
O224   O     0.61388   0.36923   0.48236   0.00000  Uiso   1.00
N225   N     0.05575   0.74704   0.41263   0.00000  Uiso   1.00
N226   N     0.72696   0.93170   0.59162   0.00000  Uiso   1.00
N227   N     0.64484   0.49066   0.46288   0.00000  Uiso   1.00
N228   N     0.12636   0.69170   0.47271   0.00000  Uiso   1.00
N229   N     0.79757   0.87636   0.65170   0.00000  Uiso   1.00
N230   N     0.71545   0.43532   0.52296   0.00000  Uiso   1.00
C231   C     0.86570   0.59465   0.83392   0.00000  Uiso   1.00
C232   C     0.80999   0.58110   0.86892   0.00000  Uiso   1.00
C233   C     0.82744   0.53805   0.90908   0.00000  Uiso   1.00
C234   C     0.76850   0.53259   0.93653   0.00000  Uiso   1.00
C235   C     0.69324   0.50606   0.99275   0.00000  Uiso   1.00
C236   C     0.87072   0.67957   0.82957   0.00000  Uiso   1.00
C237   C     0.93924   0.71931   0.83664   0.00000  Uiso   1.00
C238   C     0.93142   0.79674   0.83096   0.00000  Uiso   1.00
C239   C     0.95045   0.92307   0.82606   0.00000  Uiso   1.00
C240   C     0.82337   0.56911   0.78776   0.00000  Uiso   1.00
C241   C     0.85208   0.51597   0.75967   0.00000  Uiso   1.00
C242   C     0.80440   0.50042   0.71878   0.00000  Uiso   1.00
C243   C     0.74990   0.45524   0.64896   0.00000  Uiso   1.00
C244   C     0.72999   0.66151   0.81127   0.00000  Uiso   1.00
C245   C     0.73628   0.61742   0.85661   0.00000  Uiso   1.00
C246   C     0.67730   0.61202   0.88401   0.00000  Uiso   1.00
C247   C     0.69466   0.56897   0.92420   0.00000  Uiso   1.00
C248   C     0.79702   0.71589   0.81726   0.00000  Uiso   1.00
C249   C     0.78909   0.79328   0.81157   0.00000  Uiso   1.00
C250   C     0.85758   0.83312   0.81863   0.00000  Uiso   1.00
C251   C     0.74966   0.60542   0.77545   0.00000  Uiso   1.00
C252   C     0.70193   0.58995   0.73460   0.00000  Uiso   1.00
C253   C     0.73055   0.53680   0.70645   0.00000  Uiso   1.00
H254   H     0.92308   0.56638   0.84351   0.00000  Uiso   1.00
H255   H     0.88450   0.50996   0.91859   0.00000  Uiso   1.00
H256   H     0.99627   0.69119   0.84616   0.00000  Uiso   1.00
H257   H     0.90912   0.48788   0.76920   0.00000  Uiso   1.00
H258   H     0.80922   0.46344   0.99642   0.00000  Uiso   1.00
H259   H     0.04491   0.84556   0.84368   0.00000  Uiso   1.00
H260   H     0.86114   0.41686   0.68140   0.00000  Uiso   1.00
H261   H     0.67260   0.68979   0.80168   0.00000  Uiso   1.00
H262   H     0.62026   0.64014   0.87447   0.00000  Uiso   1.00
H263   H     0.73204   0.82136   0.80204   0.00000  Uiso   1.00
H264   H     0.64489   0.61806   0.72509   0.00000  Uiso   1.00
H265   H     0.59476   0.56910   0.96061   0.00000  Uiso   1.00
H266   H     0.83045   0.95122   0.80787   0.00000  Uiso   1.00
H267   H     0.64667   0.52252   0.64559   0.00000  Uiso   1.00
O268   O     0.67209   0.48140   0.02716   0.00000  Uiso   1.00
O269   O     0.98131   0.98273   0.82676   0.00000  Uiso   1.00
O270   O     0.74020   0.42028   0.61386   0.00000  Uiso   1.00
N271   N     0.76592   0.49511   0.97799   0.00000  Uiso   1.00
N272   N     0.98628   0.85237   0.83520   0.00000  Uiso   1.00
N273   N     0.81448   0.45159   0.68348   0.00000  Uiso   1.00
N274   N     0.65052   0.55197   0.95873   0.00000  Uiso   1.00
N275   N     0.87088   0.90923   0.81593   0.00000  Uiso   1.00
N276   N     0.69908   0.50844   0.66421   0.00000  Uiso   1.00
C277   C     0.28992   0.86261   0.89092   0.00000  Uiso   1.00
C278   C     0.24237   0.82971   0.84841   0.00000  Uiso   1.00
C279   C     0.25333   0.75822   0.83176   0.00000  Uiso   1.00
C280   C     0.20373   0.73874   0.79240   0.00000  Uiso   1.00
C281   C     0.13875   0.68000   0.72974   0.00000  Uiso   1.00
C282   C     0.23046   0.88689   0.92218   0.00000  Uiso   1.00
C283   C     0.23142   0.86347   0.96756   0.00000  Uiso   1.00
C284   C     0.17181   0.89213   0.99029   0.00000  Uiso   1.00
C285   C     0.08839   0.92220   0.04217   0.00000  Uiso   1.00
C286   C     0.32322   0.93464   0.87455   0.00000  Uiso   1.00
C287   C     0.40216   0.95139   0.87989   0.00000  Uiso   1.00
C288   C     0.42064   0.02026   0.86253   0.00000  Uiso   1.00
C289   C     0.48123   0.12448   0.84046   0.00000  Uiso   1.00
C290   C     0.18236   0.95516   0.85061   0.00000  Uiso   1.00
C291   C     0.18394   0.87999   0.82652   0.00000  Uiso   1.00
C292   C     0.13432   0.86061   0.78717   0.00000  Uiso   1.00
C293   C     0.14521   0.78910   0.77047   0.00000  Uiso   1.00
C294   C     0.17204   0.93716   0.90029   0.00000  Uiso   1.00
C295   C     0.11242   0.96587   0.92296   0.00000  Uiso   1.00
C296   C     0.11328   0.94249   0.96836   0.00000  Uiso   1.00
C297   C     0.26479   0.98491   0.85265   0.00000  Uiso   1.00
C298   C     0.28315   0.05378   0.83529   0.00000  Uiso   1.00
C299   C     0.36211   0.07063   0.84060   0.00000  Uiso   1.00
H300   H     0.33541   0.82347   0.90796   0.00000  Uiso   1.00
H301   H     0.29854   0.71933   0.84872   0.00000  Uiso   1.00
H302   H     0.27665   0.82457   0.98449   0.00000  Uiso   1.00
H303   H     0.44736   0.91247   0.89683   0.00000  Uiso   1.00
H304   H     0.23189   0.62602   0.77339   0.00000  Uiso   1.00
H305   H     0.18574   0.84795   0.05968   0.00000  Uiso   1.00
H306   H     0.54571   0.03331   0.87484   0.00000  Uiso   1.00
H307   H     0.13687   0.99430   0.83357   0.00000  Uiso   1.00
H308   H     0.08911   0.89953   0.77023   0.00000  Uiso   1.00
H309   H     0.06722   0.00477   0.90601   0.00000  Uiso   1.00
H310   H     0.23793   0.09267   0.81835   0.00000  Uiso   1.00
H311   H     0.06191   0.77227   0.70969   0.00000  Uiso   1.00
H312   H     0.01576   0.99421   0.99598   0.00000  Uiso   1.00
H313   H     0.37573   0.17957   0.81114   0.00000  Uiso   1.00
O314   O     0.11905   0.63371   0.70123   0.00000  Uiso   1.00
O315   O     0.05851   0.92489   0.07683   0.00000  Uiso   1.00
O316   O     0.53079   0.16807   0.83432   0.00000  Uiso   1.00
N317   N     0.19845   0.67345   0.76708   0.00000  Uiso   1.00
N318   N     0.15529   0.88094   0.03474   0.00000  Uiso   1.00
N319   N     0.49184   0.05424   0.86194   0.00000  Uiso   1.00
N320   N     0.10698   0.75215   0.73281   0.00000  Uiso   1.00
N321   N     0.06383   0.95964   0.00047   0.00000  Uiso   1.00
N322   N     0.40037   0.13294   0.82767   0.00000  Uiso   1.00
C323   C     0.79816   0.22918   0.91107   0.00000  Uiso   1.00
C324   C     0.74013   0.28491   0.88320   0.00000  Uiso   1.00
C325   C     0.74572   0.31264   0.83943   0.00000  Uiso   1.00
C326   C     0.68667   0.36313   0.81978   0.00000  Uiso   1.00
C327   C     0.60604   0.44629   0.77294   0.00000  Uiso   1.00
C328   C     0.75002   0.16331   0.92282   0.00000  Uiso   1.00
C329   C     0.76394   0.08882   0.91236   0.00000  Uiso   1.00
C330   C     0.71321   0.03695   0.92606   0.00000  Uiso   1.00
C331   C     0.64797   0.93133   0.94076   0.00000  Uiso   1.00
C332   C     0.82563   0.26696   0.95662   0.00000  Uiso   1.00
C333   C     0.90312   0.27960   0.97459   0.00000  Uiso   1.00
C334   C     0.91606   0.31498   0.01676   0.00000  Uiso   1.00
C335   C     0.96821   0.37029   0.08394   0.00000  Uiso   1.00
C336   C     0.68335   0.26952   0.95401   0.00000  Uiso   1.00
C337   C     0.67778   0.30681   0.90652   0.00000  Uiso   1.00
C338   C     0.61870   0.35727   0.88693   0.00000  Uiso   1.00
C339   C     0.62421   0.38508   0.84314   0.00000  Uiso   1.00
C340   C     0.68767   0.18522   0.94614   0.00000  Uiso   1.00
C341   C     0.63692   0.13344   0.95986   0.00000  Uiso   1.00
C342   C     0.65074   0.05889   0.94942   0.00000  Uiso   1.00
C343   C     0.76327   0.28887   0.97994   0.00000  Uiso   1.00
C344   C     0.77610   0.32423   0.02209   0.00000  Uiso   1.00
C345   C     0.85359   0.33692   0.04012   0.00000  Uiso   1.00
H346   H     0.84670   0.21212   0.89292   0.00000  Uiso   1.00
H347   H     0.79399   0.29567   0.82140   0.00000  Uiso   1.00
H348   H     0.81220   0.07188   0.89432   0.00000  Uiso   1.00
H349   H     0.95136   0.26264   0.95654   0.00000  Uiso   1.00
H350   H     0.70802   0.39794   0.75237   0.00000  Uiso   1.00
H351   H     0.74645   0.92606   0.90615   0.00000  Uiso   1.00
H352   H     0.03990   0.32831   0.03735   0.00000  Uiso   1.00
H353   H     0.63480   0.28657   0.97216   0.00000  Uiso   1.00
H354   H     0.57046   0.37421   0.90498   0.00000  Uiso   1.00
H355   H     0.58867   0.15042   0.97790   0.00000  Uiso   1.00
H356   H     0.72783   0.34118   0.04012   0.00000  Uiso   1.00
H357   H     0.52660   0.46169   0.82021   0.00000  Uiso   1.00
H358   H     0.56502   0.98980   0.97399   0.00000  Uiso   1.00
H359   H     0.85847   0.39205   0.10519   0.00000  Uiso   1.00
O360   O     0.57879   0.48610   0.74067   0.00000  Uiso   1.00
O361   O     0.62921   0.86702   0.94242   0.00000  Uiso   1.00
O362   O     0.01421   0.39475   0.11455   0.00000  Uiso   1.00
N363   N     0.67416   0.40093   0.77756   0.00000  Uiso   1.00
N364   N     0.71008   0.95975   0.92133   0.00000  Uiso   1.00
N365   N     0.98443   0.33580   0.04399   0.00000  Uiso   1.00
N366   N     0.57654   0.43523   0.81407   0.00000  Uiso   1.00
N367   N     0.61246   0.99405   0.95783   0.00000  Uiso   1.00
N368   N     0.88681   0.37010   0.08050   0.00000  Uiso   1.00
C369   C     0.61986   0.68727   0.18675   0.00000  Uiso   1.00
C370   C     0.62042   0.60398   0.17565   0.00000  Uiso   1.00
C371   C     0.57602   0.55047   0.19358   0.00000  Uiso   1.00
C372   C     0.58489   0.47726   0.17911   0.00000  Uiso   1.00
C373   C     0.57791   0.35081   0.16662   0.00000  Uiso   1.00
C374   C     0.59918   0.72900   0.14065   0.00000  Uiso   1.00
C375   C     0.53692   0.78062   0.12917   0.00000  Uiso   1.00
C376   C     0.52792   0.81266   0.08525   0.00000  Uiso   1.00
C377   C     0.48799   0.88036   0.01844   0.00000  Uiso   1.00
C378   C     0.70488   0.70493   0.20449   0.00000  Uiso   1.00
C379   C     0.73150   0.73633   0.24667   0.00000  Uiso   1.00
C380   C     0.81150   0.74811   0.25648   0.00000  Uiso   1.00
C381   C     0.93569   0.77844   0.28878   0.00000  Uiso   1.00
C382   C     0.71458   0.65239   0.12918   0.00000  Uiso   1.00
C383   C     0.67187   0.58504   0.14438   0.00000  Uiso   1.00
C384   C     0.68082   0.51188   0.12988   0.00000  Uiso   1.00
C385   C     0.63644   0.45827   0.14779   0.00000  Uiso   1.00
C386   C     0.65062   0.71006   0.10938   0.00000  Uiso   1.00
C387   C     0.64172   0.74203   0.06547   0.00000  Uiso   1.00
C388   C     0.57946   0.79368   0.05392   0.00000  Uiso   1.00
C389   C     0.75633   0.68598   0.17322   0.00000  Uiso   1.00
C390   C     0.83630   0.69773   0.18297   0.00000  Uiso   1.00
C391   C     0.86304   0.72913   0.22516   0.00000  Uiso   1.00
H392   H     0.57980   0.70203   0.21109   0.00000  Uiso   1.00
H393   H     0.53620   0.56516   0.21777   0.00000  Uiso   1.00
H394   H     0.49712   0.79528   0.15338   0.00000  Uiso   1.00
H395   H     0.69167   0.75098   0.27085   0.00000  Uiso   1.00
H396   H     0.51053   0.40507   0.21138   0.00000  Uiso   1.00
H397   H     0.42814   0.89030   0.07560   0.00000  Uiso   1.00
H398   H     0.83839   0.79691   0.32333   0.00000  Uiso   1.00
H399   H     0.75464   0.63764   0.10483   0.00000  Uiso   1.00
H400   H     0.72064   0.49723   0.10568   0.00000  Uiso   1.00
H401   H     0.68155   0.72736   0.04128   0.00000  Uiso   1.00
H402   H     0.87610   0.68306   0.15876   0.00000  Uiso   1.00
H403   H     0.66022   0.34994   0.12040   0.00000  Uiso   1.00
H404   H     0.57783   0.83518   0.98462   0.00000  Uiso   1.00
H405   H     0.98808   0.74177   0.23235   0.00000  Uiso   1.00
O406   O     0.55984   0.28631   0.16836   0.00000  Uiso   1.00
O407   O     0.45175   0.92293   0.99022   0.00000  Uiso   1.00
O408   O     0.98998   0.80038   0.31523   0.00000  Uiso   1.00
N409   N     0.55044   0.41136   0.18986   0.00000  Uiso   1.00
N410   N     0.47340   0.86502   0.06291   0.00000  Uiso   1.00
N411   N     0.85695   0.77772   0.29451   0.00000  Uiso   1.00
N412   N     0.63099   0.38169   0.14090   0.00000  Uiso   1.00
N413   N     0.55395   0.83535   0.01395   0.00000  Uiso   1.00
N414   N     0.93749   0.74805   0.24555   0.00000  Uiso   1.00
C415   C     0.69928   0.20185   0.46227   0.00000  Uiso   1.00
C416   C     0.72886   0.12317   0.45193   0.00000  Uiso   1.00
C417   C     0.72060   0.09053   0.40889   0.00000  Uiso   1.00
C418   C     0.75170   0.01800   0.40662   0.00000  Uiso   1.00
C419   C     0.79182   0.90167   0.38458   0.00000  Uiso   1.00
C420   C     0.64602   0.19197   0.49901   0.00000  Uiso   1.00
C421   C     0.56810   0.21719   0.49556   0.00000  Uiso   1.00
C422   C     0.52946   0.20259   0.53294   0.00000  Uiso   1.00
C423   C     0.44098   0.19312   0.58401   0.00000  Uiso   1.00
C424   C     0.77089   0.24191   0.48555   0.00000  Uiso   1.00
C425   C     0.79795   0.30913   0.47080   0.00000  Uiso   1.00
C426   C     0.86445   0.33659   0.49685   0.00000  Uiso   1.00
C427   C     0.96984   0.40466   0.52702   0.00000  Uiso   1.00
C428   C     0.76922   0.13109   0.53477   0.00000  Uiso   1.00
C429   C     0.76685   0.08474   0.49131   0.00000  Uiso   1.00
C430   C     0.79798   0.01225   0.48911   0.00000  Uiso   1.00
C431   C     0.78976   0.97950   0.44607   0.00000  Uiso   1.00
C432   C     0.68400   0.15354   0.53839   0.00000  Uiso   1.00
C433   C     0.64548   0.13891   0.57578   0.00000  Uiso   1.00
C434   C     0.56752   0.16409   0.57239   0.00000  Uiso   1.00
C435   C     0.80888   0.20348   0.52494   0.00000  Uiso   1.00
C436   C     0.87534   0.23084   0.55102   0.00000  Uiso   1.00
C437   C     0.90250   0.29809   0.53630   0.00000  Uiso   1.00
H438   H     0.66970   0.23177   0.43161   0.00000  Uiso   1.00
H439   H     0.69119   0.12028   0.37842   0.00000  Uiso   1.00
H440   H     0.53872   0.24693   0.46508   0.00000  Uiso   1.00
H441   H     0.76854   0.33885   0.44032   0.00000  Uiso   1.00
H442   H     0.73173   0.97973   0.33682   0.00000  Uiso   1.00
H443   H     0.41025   0.24679   0.51956   0.00000  Uiso   1.00
H444   H     0.89488   0.44063   0.46734   0.00000  Uiso   1.00
H445   H     0.79880   0.10117   0.56544   0.00000  Uiso   1.00
H446   H     0.82737   0.98252   0.51959   0.00000  Uiso   1.00
H447   H     0.67489   0.10917   0.60626   0.00000  Uiso   1.00
H448   H     0.90472   0.20109   0.58149   0.00000  Uiso   1.00
H449   H     0.84226   0.86791   0.45140   0.00000  Uiso   1.00
H450   H     0.52077   0.13498   0.63415   0.00000  Uiso   1.00
H451   H     0.00540   0.32882   0.58192   0.00000  Uiso   1.00
O452   O     0.80344   0.84812   0.36154   0.00000  Uiso   1.00
O453   O     0.38167   0.19850   0.60129   0.00000  Uiso   1.00
O454   O     0.01749   0.45281   0.53278   0.00000  Uiso   1.00
N455   N     0.75384   0.96970   0.37008   0.00000  Uiso   1.00
N456   N     0.45326   0.21938   0.54093   0.00000  Uiso   1.00
N457   N     0.90634   0.40061   0.49211   0.00000  Uiso   1.00
N458   N     0.81331   0.90953   0.43173   0.00000  Uiso   1.00
N459   N     0.51274   0.15921   0.60258   0.00000  Uiso   1.00
N460   N     0.96581   0.34045   0.55377   0.00000  Uiso   1.00
C461   C     0.34845   0.43967   0.77030   0.00000  Uiso   1.00
C462   C     0.27376   0.44867   0.73539   0.00000  Uiso   1.00
C463   C     0.19911   0.42924   0.74277   0.00000  Uiso   1.00
C464   C     0.13845   0.44187   0.70649   0.00000  Uiso   1.00
C465   C     0.02041   0.45110   0.65868   0.00000  Uiso   1.00
C466   C     0.40623   0.39196   0.74712   0.00000  Uiso   1.00
C467   C     0.44296   0.32486   0.76436   0.00000  Uiso   1.00
C468   C     0.49382   0.28975   0.73796   0.00000  Uiso   1.00
C469   C     0.58149   0.21096   0.70838   0.00000  Uiso   1.00
C470   C     0.38252   0.51742   0.77526   0.00000  Uiso   1.00
C471   C     0.39935   0.55580   0.81615   0.00000  Uiso   1.00
C472   C     0.43027   0.62631   0.81344   0.00000  Uiso   1.00
C473   C     0.48113   0.74232   0.82754   0.00000  Uiso   1.00
C474   C     0.37348   0.49664   0.69277   0.00000  Uiso   1.00
C475   C     0.28736   0.47961   0.69328   0.00000  Uiso   1.00
C476   C     0.22680   0.49228   0.65698   0.00000  Uiso   1.00
C477   C     0.15207   0.47287   0.66430   0.00000  Uiso   1.00
C478   C     0.41982   0.42290   0.70501   0.00000  Uiso   1.00
C479   C     0.47065   0.38789   0.67858   0.00000  Uiso   1.00
C480   C     0.50744   0.32075   0.69577   0.00000  Uiso   1.00
C481   C     0.39612   0.54837   0.73314   0.00000  Uiso   1.00
C482   C     0.42703   0.61883   0.73037   0.00000  Uiso   1.00
C483   C     0.44389   0.65731   0.77125   0.00000  Uiso   1.00
H484   H     0.33788   0.41558   0.80309   0.00000  Uiso   1.00
H485   H     0.18861   0.40529   0.77536   0.00000  Uiso   1.00
H486   H     0.43243   0.30093   0.79695   0.00000  Uiso   1.00
H487   H     0.38882   0.53183   0.84874   0.00000  Uiso   1.00
H488   H     0.02913   0.40751   0.72604   0.00000  Uiso   1.00
H489   H     0.54326   0.18746   0.77158   0.00000  Uiso   1.00
H490   H     0.45129   0.67437   0.88077   0.00000  Uiso   1.00
H491   H     0.38407   0.52073   0.65998   0.00000  Uiso   1.00
H492   H     0.23734   0.51622   0.62439   0.00000  Uiso   1.00
H493   H     0.48116   0.41185   0.64599   0.00000  Uiso   1.00
H494   H     0.43754   0.64276   0.69777   0.00000  Uiso   1.00
H495   H     0.06868   0.49754   0.60351   0.00000  Uiso   1.00
H496   H     0.58281   0.27749   0.64905   0.00000  Uiso   1.00
H497   H     0.49084   0.76440   0.75824   0.00000  Uiso   1.00
O498   O     0.95155   0.44763   0.64394   0.00000  Uiso   1.00
O499   O     0.62608   0.15895   0.70369   0.00000  Uiso   1.00
O500   O     0.50541   0.79776   0.84696   0.00000  Uiso   1.00
N501   N     0.05857   0.42933   0.70209   0.00000  Uiso   1.00
N502   N     0.53924   0.22359   0.74466   0.00000  Uiso   1.00
N503   N     0.45328   0.67880   0.84675   0.00000  Uiso   1.00
N504   N     0.07985   0.47778   0.63616   0.00000  Uiso   1.00
N505   N     0.56052   0.27204   0.67873   0.00000  Uiso   1.00
N506   N     0.47456   0.72725   0.78082   0.00000  Uiso   1.00
C507   C     0.31431   0.54757   0.44729   0.00000  Uiso   1.00
C508   C     0.35209   0.50333   0.41157   0.00000  Uiso   1.00
C509   C     0.32465   0.50207   0.36472   0.00000  Uiso   1.00
C510   C     0.36754   0.45808   0.33780   0.00000  Uiso   1.00
C511   C     0.41585   0.39563   0.27940   0.00000  Uiso   1.00
C512   C     0.29850   0.49035   0.48359   0.00000  Uiso   1.00
C513   C     0.22600   0.47819   0.49731   0.00000  Uiso   1.00
C514   C     0.22379   0.42329   0.53102   0.00000  Uiso   1.00
C515   C     0.18891   0.34073   0.58447   0.00000  Uiso   1.00
C516   C     0.37798   0.59701   0.47104   0.00000  Uiso   1.00
C517   C     0.37231   0.67452   0.47421   0.00000  Uiso   1.00
C518   C     0.43701   0.70941   0.49736   0.00000  Uiso   1.00
C519   C     0.52554   0.79245   0.53132   0.00000  Uiso   1.00
C520   C     0.43928   0.47169   0.48279   0.00000  Uiso   1.00
C521   C     0.41996   0.46211   0.43085   0.00000  Uiso   1.00
C522   C     0.46291   0.41812   0.40399   0.00000  Uiso   1.00
C523   C     0.43554   0.41679   0.35711   0.00000  Uiso   1.00
C524   C     0.36637   0.44914   0.50288   0.00000  Uiso   1.00
C525   C     0.36426   0.39424   0.53658   0.00000  Uiso   1.00
C526   C     0.29178   0.38200   0.55034   0.00000  Uiso   1.00
C527   C     0.44586   0.55579   0.49032   0.00000  Uiso   1.00
C528   C     0.51057   0.59057   0.51348   0.00000  Uiso   1.00
C529   C     0.50501   0.66812   0.51668   0.00000  Uiso   1.00
H530   H     0.26146   0.57965   0.43228   0.00000  Uiso   1.00
H531   H     0.27211   0.53397   0.34981   0.00000  Uiso   1.00
H532   H     0.17349   0.51010   0.48238   0.00000  Uiso   1.00
H533   H     0.31978   0.70640   0.45928   0.00000  Uiso   1.00
H534   H     0.31384   0.46512   0.26688   0.00000  Uiso   1.00
H535   H     0.10588   0.41482   0.54643   0.00000  Uiso   1.00
H536   H     0.41436   0.82875   0.49772   0.00000  Uiso   1.00
H537   H     0.49212   0.43959   0.49781   0.00000  Uiso   1.00
H538   H     0.51543   0.38623   0.41893   0.00000  Uiso   1.00
H539   H     0.41680   0.36236   0.55150   0.00000  Uiso   1.00
H540   H     0.56309   0.55866   0.52840   0.00000  Uiso   1.00
H541   H     0.51133   0.34521   0.32298   0.00000  Uiso   1.00
H542   H     0.30337   0.29490   0.60253   0.00000  Uiso   1.00
H543   H     0.61184   0.70883   0.55382   0.00000  Uiso   1.00
O544   O     0.42374   0.37257   0.24186   0.00000  Uiso   1.00
O545   O     0.15091   0.30658   0.60862   0.00000  Uiso   1.00
O546   O     0.55563   0.84964   0.54471   0.00000  Uiso   1.00
N547   N     0.35713   0.44424   0.29091   0.00000  Uiso   1.00
N548   N     0.16270   0.39720   0.55226   0.00000  Uiso   1.00
N549   N     0.45109   0.78418   0.50673   0.00000  Uiso   1.00
N550   N     0.46340   0.37971   0.32109   0.00000  Uiso   1.00
N551   N     0.26896   0.33267   0.58245   0.00000  Uiso   1.00
N552   N     0.55735   0.71966   0.53692   0.00000  Uiso   1.00
