data_job_02011
_audit_creation_date              2018-12-19
_audit_creation_method            'Materials Studio'
_symmetry_space_group_name_H-M    'P1'
_symmetry_Int_Tables_number       1
_symmetry_cell_setting            triclinic
loop_
_symmetry_equiv_pos_as_xyz
  x,y,z
_cell_length_a                    28.8634
_cell_length_b                    15.4078
_cell_length_c                    18.8162
_cell_angle_alpha                 90.0000
_cell_angle_beta                  60.4298
_cell_angle_gamma                 90.0000
loop_
_atom_site_label
_atom_site_type_symbol
_atom_site_fract_x
_atom_site_fract_y
_atom_site_fract_z
_atom_site_U_iso_or_equiv
_atom_site_adp_type
_atom_site_occupancy
C1     C     0.25644   0.68297   0.74893   0.00000  Uiso   1.00
C2     C     0.30507   0.71627   0.75230   0.00000  Uiso   1.00
C3     C     0.31021   0.72069   0.82176   0.00000  Uiso   1.00
C4     C     0.35784   0.75317   0.81211   0.00000  Uiso   1.00
C5     C     0.42711   0.80081   0.82897   0.00000  Uiso   1.00
C6     C     0.23943   0.75643   0.71247   0.00000  Uiso   1.00
C7     C     0.18937   0.79461   0.74844   0.00000  Uiso   1.00
C8     C     0.18176   0.86089   0.70525   0.00000  Uiso   1.00
C9     C     0.14910   0.97083   0.66025   0.00000  Uiso   1.00
C10    C     0.27653   0.61034   0.68563   0.00000  Uiso   1.00
C11    C     0.25767   0.52568   0.69902   0.00000  Uiso   1.00
C12    C     0.28128   0.46896   0.63324   0.00000  Uiso   1.00
C13    C     0.30623   0.35208   0.54657   0.00000  Uiso   1.00
C14    C     0.33190   0.73278   0.60828   0.00000  Uiso   1.00
C15    C     0.34606   0.74333   0.67591   0.00000  Uiso   1.00
C16    C     0.39370   0.77581   0.66615   0.00000  Uiso   1.00
C17    C     0.39891   0.78028   0.73558   0.00000  Uiso   1.00
C18    C     0.28041   0.78349   0.63608   0.00000  Uiso   1.00
C19    C     0.27287   0.84972   0.59283   0.00000  Uiso   1.00
C20    C     0.22282   0.88799   0.62872   0.00000  Uiso   1.00
C21    C     0.31752   0.63740   0.60924   0.00000  Uiso   1.00
C22    C     0.34116   0.58080   0.54342   0.00000  Uiso   1.00
C23    C     0.32234   0.49607   0.55671   0.00000  Uiso   1.00
H24    H     0.22452   0.66190   0.80840   0.00000  Uiso   1.00
H25    H     0.27847   0.69975   0.88087   0.00000  Uiso   1.00
H26    H     0.15766   0.77365   0.80755   0.00000  Uiso   1.00
H27    H     0.22595   0.50477   0.75815   0.00000  Uiso   1.00
H28    H     0.35636   0.75368   0.92752   0.00000  Uiso   1.00
H29    H     0.10161   0.90947   0.77292   0.00000  Uiso   1.00
H30    H     0.24560   0.34248   0.66874   0.00000  Uiso   1.00
H31    H     0.36382   0.75385   0.54881   0.00000  Uiso   1.00
H32    H     0.42541   0.79675   0.60703   0.00000  Uiso   1.00
H33    H     0.30460   0.87064   0.53371   0.00000  Uiso   1.00
H34    H     0.37288   0.60176   0.48431   0.00000  Uiso   1.00
H35    H     0.47562   0.83241   0.70527   0.00000  Uiso   1.00
H36    H     0.22087   0.98820   0.55066   0.00000  Uiso   1.00
H37    H     0.36486   0.42120   0.44649   0.00000  Uiso   1.00
O38    O     0.45399   0.81963   0.85938   0.00000  Uiso   1.00
O39    O     0.11976   0.02401   0.65654   0.00000  Uiso   1.00
O40    O     0.30868   0.28013   0.51987   0.00000  Uiso   1.00
N41    N     0.37598   0.76631   0.86722   0.00000  Uiso   1.00
N42    N     0.13780   0.91197   0.72268   0.00000  Uiso   1.00
N43    N     0.27242   0.38188   0.62528   0.00000  Uiso   1.00
N44    N     0.44015   0.80867   0.74763   0.00000  Uiso   1.00
N45    N     0.20198   0.95433   0.60309   0.00000  Uiso   1.00
N46    N     0.33659   0.42425   0.50569   0.00000  Uiso   1.00
C47    C     0.75644   0.18297   0.74893   0.00000  Uiso   1.00
C48    C     0.80507   0.21627   0.75230   0.00000  Uiso   1.00
C49    C     0.81021   0.22069   0.82176   0.00000  Uiso   1.00
C50    C     0.85784   0.25317   0.81211   0.00000  Uiso   1.00
C51    C     0.92711   0.30081   0.82897   0.00000  Uiso   1.00
C52    C     0.73943   0.25643   0.71247   0.00000  Uiso   1.00
C53    C     0.68937   0.29461   0.74844   0.00000  Uiso   1.00
C54    C     0.68176   0.36089   0.70525   0.00000  Uiso   1.00
C55    C     0.64910   0.47083   0.66025   0.00000  Uiso   1.00
C56    C     0.77653   0.11034   0.68563   0.00000  Uiso   1.00
C57    C     0.75767   0.02568   0.69902   0.00000  Uiso   1.00
C58    C     0.78128   0.96896   0.63324   0.00000  Uiso   1.00
C59    C     0.80623   0.85208   0.54657   0.00000  Uiso   1.00
C60    C     0.83190   0.23278   0.60828   0.00000  Uiso   1.00
C61    C     0.84606   0.24333   0.67591   0.00000  Uiso   1.00
C62    C     0.89370   0.27581   0.66615   0.00000  Uiso   1.00
C63    C     0.89891   0.28028   0.73558   0.00000  Uiso   1.00
C64    C     0.78041   0.28349   0.63608   0.00000  Uiso   1.00
C65    C     0.77287   0.34972   0.59283   0.00000  Uiso   1.00
C66    C     0.72282   0.38799   0.62872   0.00000  Uiso   1.00
C67    C     0.81752   0.13740   0.60924   0.00000  Uiso   1.00
C68    C     0.84116   0.08080   0.54342   0.00000  Uiso   1.00
C69    C     0.82234   0.99607   0.55671   0.00000  Uiso   1.00
H70    H     0.72452   0.16190   0.80840   0.00000  Uiso   1.00
H71    H     0.77847   0.19975   0.88087   0.00000  Uiso   1.00
H72    H     0.65766   0.27365   0.80755   0.00000  Uiso   1.00
H73    H     0.72595   0.00477   0.75815   0.00000  Uiso   1.00
H74    H     0.85636   0.25368   0.92752   0.00000  Uiso   1.00
H75    H     0.60161   0.40947   0.77292   0.00000  Uiso   1.00
H76    H     0.74560   0.84248   0.66874   0.00000  Uiso   1.00
H77    H     0.86382   0.25385   0.54881   0.00000  Uiso   1.00
H78    H     0.92541   0.29675   0.60703   0.00000  Uiso   1.00
H79    H     0.80460   0.37064   0.53371   0.00000  Uiso   1.00
H80    H     0.87288   0.10176   0.48431   0.00000  Uiso   1.00
H81    H     0.97562   0.33241   0.70527   0.00000  Uiso   1.00
H82    H     0.72087   0.48820   0.55066   0.00000  Uiso   1.00
H83    H     0.86486   0.92120   0.44649   0.00000  Uiso   1.00
O84    O     0.95399   0.31963   0.85938   0.00000  Uiso   1.00
O85    O     0.61976   0.52401   0.65654   0.00000  Uiso   1.00
O86    O     0.80868   0.78013   0.51987   0.00000  Uiso   1.00
N87    N     0.87598   0.26631   0.86722   0.00000  Uiso   1.00
N88    N     0.63780   0.41197   0.72268   0.00000  Uiso   1.00
N89    N     0.77242   0.88188   0.62528   0.00000  Uiso   1.00
N90    N     0.94015   0.30867   0.74763   0.00000  Uiso   1.00
N91    N     0.70198   0.45433   0.60309   0.00000  Uiso   1.00
N92    N     0.83659   0.92425   0.50569   0.00000  Uiso   1.00
C93    C     0.74356   0.68297   0.75107   0.00000  Uiso   1.00
C94    C     0.69493   0.71627   0.74770   0.00000  Uiso   1.00
C95    C     0.68979   0.72069   0.67824   0.00000  Uiso   1.00
C96    C     0.64216   0.75317   0.68789   0.00000  Uiso   1.00
C97    C     0.57289   0.80081   0.67103   0.00000  Uiso   1.00
C98    C     0.76057   0.75643   0.78753   0.00000  Uiso   1.00
C99    C     0.81063   0.79461   0.75156   0.00000  Uiso   1.00
C100   C     0.81824   0.86089   0.79475   0.00000  Uiso   1.00
C101   C     0.85090   0.97083   0.83975   0.00000  Uiso   1.00
C102   C     0.72347   0.61034   0.81437   0.00000  Uiso   1.00
C103   C     0.74233   0.52568   0.80098   0.00000  Uiso   1.00
C104   C     0.71872   0.46896   0.86676   0.00000  Uiso   1.00
C105   C     0.69377   0.35208   0.95343   0.00000  Uiso   1.00
C106   C     0.66810   0.73278   0.89172   0.00000  Uiso   1.00
C107   C     0.65394   0.74333   0.82409   0.00000  Uiso   1.00
C108   C     0.60630   0.77581   0.83385   0.00000  Uiso   1.00
C109   C     0.60109   0.78028   0.76442   0.00000  Uiso   1.00
C110   C     0.71959   0.78349   0.86392   0.00000  Uiso   1.00
C111   C     0.72713   0.84972   0.90717   0.00000  Uiso   1.00
C112   C     0.77718   0.88799   0.87128   0.00000  Uiso   1.00
C113   C     0.68248   0.63740   0.89076   0.00000  Uiso   1.00
C114   C     0.65884   0.58080   0.95658   0.00000  Uiso   1.00
C115   C     0.67766   0.49607   0.94329   0.00000  Uiso   1.00
H116   H     0.77548   0.66190   0.69160   0.00000  Uiso   1.00
H117   H     0.72153   0.69975   0.61913   0.00000  Uiso   1.00
H118   H     0.84234   0.77365   0.69245   0.00000  Uiso   1.00
H119   H     0.77405   0.50477   0.74185   0.00000  Uiso   1.00
H120   H     0.64364   0.75368   0.57248   0.00000  Uiso   1.00
H121   H     0.89839   0.90947   0.72708   0.00000  Uiso   1.00
H122   H     0.75440   0.34248   0.83126   0.00000  Uiso   1.00
H123   H     0.63618   0.75385   0.95119   0.00000  Uiso   1.00
H124   H     0.57459   0.79675   0.89297   0.00000  Uiso   1.00
H125   H     0.69540   0.87064   0.96629   0.00000  Uiso   1.00
H126   H     0.62712   0.60176   0.01569   0.00000  Uiso   1.00
H127   H     0.52438   0.83241   0.79473   0.00000  Uiso   1.00
H128   H     0.77913   0.98820   0.94934   0.00000  Uiso   1.00
H129   H     0.63514   0.42120   0.05351   0.00000  Uiso   1.00
O130   O     0.54601   0.81963   0.64062   0.00000  Uiso   1.00
O131   O     0.88024   0.02401   0.84346   0.00000  Uiso   1.00
O132   O     0.69132   0.28013   0.98013   0.00000  Uiso   1.00
N133   N     0.62402   0.76631   0.63278   0.00000  Uiso   1.00
N134   N     0.86220   0.91197   0.77732   0.00000  Uiso   1.00
N135   N     0.72758   0.38188   0.87472   0.00000  Uiso   1.00
N136   N     0.55985   0.80867   0.75237   0.00000  Uiso   1.00
N137   N     0.79802   0.95433   0.89691   0.00000  Uiso   1.00
N138   N     0.66341   0.42425   0.99431   0.00000  Uiso   1.00
C139   C     0.24356   0.18297   0.75107   0.00000  Uiso   1.00
C140   C     0.19493   0.21627   0.74770   0.00000  Uiso   1.00
C141   C     0.18979   0.22069   0.67824   0.00000  Uiso   1.00
C142   C     0.14216   0.25317   0.68789   0.00000  Uiso   1.00
C143   C     0.07289   0.30081   0.67103   0.00000  Uiso   1.00
C144   C     0.26057   0.25643   0.78753   0.00000  Uiso   1.00
C145   C     0.31063   0.29461   0.75156   0.00000  Uiso   1.00
C146   C     0.31824   0.36089   0.79475   0.00000  Uiso   1.00
C147   C     0.35090   0.47083   0.83975   0.00000  Uiso   1.00
C148   C     0.22347   0.11034   0.81437   0.00000  Uiso   1.00
C149   C     0.24233   0.02568   0.80098   0.00000  Uiso   1.00
C150   C     0.21872   0.96896   0.86676   0.00000  Uiso   1.00
C151   C     0.19377   0.85208   0.95343   0.00000  Uiso   1.00
C152   C     0.16810   0.23278   0.89172   0.00000  Uiso   1.00
C153   C     0.15394   0.24333   0.82409   0.00000  Uiso   1.00
C154   C     0.10630   0.27581   0.83385   0.00000  Uiso   1.00
C155   C     0.10109   0.28028   0.76442   0.00000  Uiso   1.00
C156   C     0.21959   0.28349   0.86392   0.00000  Uiso   1.00
C157   C     0.22713   0.34972   0.90717   0.00000  Uiso   1.00
C158   C     0.27718   0.38799   0.87128   0.00000  Uiso   1.00
C159   C     0.18248   0.13740   0.89076   0.00000  Uiso   1.00
C160   C     0.15884   0.08080   0.95658   0.00000  Uiso   1.00
C161   C     0.17766   0.99607   0.94329   0.00000  Uiso   1.00
H162   H     0.27548   0.16190   0.69160   0.00000  Uiso   1.00
H163   H     0.22153   0.19975   0.61913   0.00000  Uiso   1.00
H164   H     0.34234   0.27365   0.69245   0.00000  Uiso   1.00
H165   H     0.27405   0.00477   0.74185   0.00000  Uiso   1.00
H166   H     0.14364   0.25368   0.57248   0.00000  Uiso   1.00
H167   H     0.39839   0.40947   0.72708   0.00000  Uiso   1.00
H168   H     0.25440   0.84248   0.83126   0.00000  Uiso   1.00
H169   H     0.13618   0.25385   0.95119   0.00000  Uiso   1.00
H170   H     0.07459   0.29675   0.89297   0.00000  Uiso   1.00
H171   H     0.19540   0.37064   0.96629   0.00000  Uiso   1.00
H172   H     0.12712   0.10176   0.01569   0.00000  Uiso   1.00
H173   H     0.02438   0.33241   0.79473   0.00000  Uiso   1.00
H174   H     0.27913   0.48820   0.94934   0.00000  Uiso   1.00
H175   H     0.13514   0.92120   0.05351   0.00000  Uiso   1.00
O176   O     0.04601   0.31963   0.64062   0.00000  Uiso   1.00
O177   O     0.38024   0.52401   0.84346   0.00000  Uiso   1.00
O178   O     0.19132   0.78013   0.98013   0.00000  Uiso   1.00
N179   N     0.12402   0.26631   0.63278   0.00000  Uiso   1.00
N180   N     0.36220   0.41197   0.77732   0.00000  Uiso   1.00
N181   N     0.22758   0.88188   0.87472   0.00000  Uiso   1.00
N182   N     0.05985   0.30867   0.75237   0.00000  Uiso   1.00
N183   N     0.29802   0.45433   0.89691   0.00000  Uiso   1.00
N184   N     0.16341   0.92425   0.99431   0.00000  Uiso   1.00
C185   C     0.74356   0.31703   0.25107   0.00000  Uiso   1.00
C186   C     0.69493   0.28373   0.24770   0.00000  Uiso   1.00
C187   C     0.68979   0.27931   0.17824   0.00000  Uiso   1.00
C188   C     0.64216   0.24683   0.18789   0.00000  Uiso   1.00
C189   C     0.57289   0.19919   0.17103   0.00000  Uiso   1.00
C190   C     0.76057   0.24357   0.28753   0.00000  Uiso   1.00
C191   C     0.81063   0.20539   0.25156   0.00000  Uiso   1.00
C192   C     0.81824   0.13911   0.29475   0.00000  Uiso   1.00
C193   C     0.85090   0.02917   0.33975   0.00000  Uiso   1.00
C194   C     0.72347   0.38966   0.31437   0.00000  Uiso   1.00
C195   C     0.74233   0.47432   0.30098   0.00000  Uiso   1.00
C196   C     0.71872   0.53104   0.36676   0.00000  Uiso   1.00
C197   C     0.69377   0.64792   0.45343   0.00000  Uiso   1.00
C198   C     0.66810   0.26722   0.39172   0.00000  Uiso   1.00
C199   C     0.65394   0.25667   0.32409   0.00000  Uiso   1.00
C200   C     0.60630   0.22419   0.33385   0.00000  Uiso   1.00
C201   C     0.60109   0.21972   0.26442   0.00000  Uiso   1.00
C202   C     0.71959   0.21651   0.36392   0.00000  Uiso   1.00
C203   C     0.72713   0.15028   0.40717   0.00000  Uiso   1.00
C204   C     0.77718   0.11201   0.37128   0.00000  Uiso   1.00
C205   C     0.68248   0.36260   0.39076   0.00000  Uiso   1.00
C206   C     0.65884   0.41920   0.45658   0.00000  Uiso   1.00
C207   C     0.67766   0.50393   0.44329   0.00000  Uiso   1.00
H208   H     0.77548   0.33810   0.19160   0.00000  Uiso   1.00
H209   H     0.72153   0.30025   0.11913   0.00000  Uiso   1.00
H210   H     0.84234   0.22635   0.19245   0.00000  Uiso   1.00
H211   H     0.77405   0.49523   0.24185   0.00000  Uiso   1.00
H212   H     0.64364   0.24632   0.07248   0.00000  Uiso   1.00
H213   H     0.89839   0.09053   0.22708   0.00000  Uiso   1.00
H214   H     0.75440   0.65752   0.33126   0.00000  Uiso   1.00
H215   H     0.63618   0.24615   0.45119   0.00000  Uiso   1.00
H216   H     0.57459   0.20325   0.39297   0.00000  Uiso   1.00
H217   H     0.69540   0.12936   0.46629   0.00000  Uiso   1.00
H218   H     0.62712   0.39824   0.51569   0.00000  Uiso   1.00
H219   H     0.52438   0.16759   0.29473   0.00000  Uiso   1.00
H220   H     0.77913   0.01180   0.44934   0.00000  Uiso   1.00
H221   H     0.63514   0.57880   0.55351   0.00000  Uiso   1.00
O222   O     0.54601   0.18037   0.14062   0.00000  Uiso   1.00
O223   O     0.88024   0.97599   0.34346   0.00000  Uiso   1.00
O224   O     0.69132   0.71987   0.48013   0.00000  Uiso   1.00
N225   N     0.62402   0.23369   0.13278   0.00000  Uiso   1.00
N226   N     0.86220   0.08803   0.27732   0.00000  Uiso   1.00
N227   N     0.72758   0.61812   0.37472   0.00000  Uiso   1.00
N228   N     0.55985   0.19133   0.25237   0.00000  Uiso   1.00
N229   N     0.79802   0.04567   0.39691   0.00000  Uiso   1.00
N230   N     0.66341   0.57575   0.49431   0.00000  Uiso   1.00
C231   C     0.24356   0.81703   0.25107   0.00000  Uiso   1.00
C232   C     0.19493   0.78373   0.24770   0.00000  Uiso   1.00
C233   C     0.18979   0.77931   0.17824   0.00000  Uiso   1.00
C234   C     0.14216   0.74683   0.18789   0.00000  Uiso   1.00
C235   C     0.07289   0.69919   0.17103   0.00000  Uiso   1.00
C236   C     0.26057   0.74357   0.28753   0.00000  Uiso   1.00
C237   C     0.31063   0.70539   0.25156   0.00000  Uiso   1.00
C238   C     0.31824   0.63911   0.29475   0.00000  Uiso   1.00
C239   C     0.35090   0.52917   0.33975   0.00000  Uiso   1.00
C240   C     0.22347   0.88966   0.31437   0.00000  Uiso   1.00
C241   C     0.24233   0.97432   0.30098   0.00000  Uiso   1.00
C242   C     0.21872   0.03104   0.36676   0.00000  Uiso   1.00
C243   C     0.19377   0.14792   0.45343   0.00000  Uiso   1.00
C244   C     0.16810   0.76722   0.39172   0.00000  Uiso   1.00
C245   C     0.15394   0.75667   0.32409   0.00000  Uiso   1.00
C246   C     0.10630   0.72419   0.33385   0.00000  Uiso   1.00
C247   C     0.10109   0.71972   0.26442   0.00000  Uiso   1.00
C248   C     0.21959   0.71651   0.36392   0.00000  Uiso   1.00
C249   C     0.22713   0.65028   0.40717   0.00000  Uiso   1.00
C250   C     0.27718   0.61201   0.37128   0.00000  Uiso   1.00
C251   C     0.18248   0.86260   0.39076   0.00000  Uiso   1.00
C252   C     0.15884   0.91920   0.45658   0.00000  Uiso   1.00
C253   C     0.17766   0.00393   0.44329   0.00000  Uiso   1.00
H254   H     0.27548   0.83810   0.19160   0.00000  Uiso   1.00
H255   H     0.22153   0.80025   0.11913   0.00000  Uiso   1.00
H256   H     0.34234   0.72635   0.19245   0.00000  Uiso   1.00
H257   H     0.27405   0.99523   0.24185   0.00000  Uiso   1.00
H258   H     0.14364   0.74632   0.07248   0.00000  Uiso   1.00
H259   H     0.39839   0.59053   0.22708   0.00000  Uiso   1.00
H260   H     0.25440   0.15752   0.33126   0.00000  Uiso   1.00
H261   H     0.13618   0.74615   0.45119   0.00000  Uiso   1.00
H262   H     0.07459   0.70325   0.39297   0.00000  Uiso   1.00
H263   H     0.19540   0.62936   0.46629   0.00000  Uiso   1.00
H264   H     0.12712   0.89824   0.51569   0.00000  Uiso   1.00
H265   H     0.02438   0.66759   0.29473   0.00000  Uiso   1.00
H266   H     0.27913   0.51180   0.44934   0.00000  Uiso   1.00
H267   H     0.13514   0.07880   0.55351   0.00000  Uiso   1.00
O268   O     0.04601   0.68037   0.14062   0.00000  Uiso   1.00
O269   O     0.38024   0.47599   0.34346   0.00000  Uiso   1.00
O270   O     0.19132   0.21987   0.48013   0.00000  Uiso   1.00
N271   N     0.12402   0.73369   0.13278   0.00000  Uiso   1.00
N272   N     0.36220   0.58803   0.27732   0.00000  Uiso   1.00
N273   N     0.22758   0.11812   0.37472   0.00000  Uiso   1.00
N274   N     0.05985   0.69133   0.25237   0.00000  Uiso   1.00
N275   N     0.29802   0.54567   0.39691   0.00000  Uiso   1.00
N276   N     0.16341   0.07575   0.49431   0.00000  Uiso   1.00
C277   C     0.25644   0.31703   0.24893   0.00000  Uiso   1.00
C278   C     0.30507   0.28373   0.25230   0.00000  Uiso   1.00
C279   C     0.31021   0.27931   0.32176   0.00000  Uiso   1.00
C280   C     0.35784   0.24683   0.31211   0.00000  Uiso   1.00
C281   C     0.42711   0.19919   0.32897   0.00000  Uiso   1.00
C282   C     0.23943   0.24357   0.21247   0.00000  Uiso   1.00
C283   C     0.18937   0.20539   0.24844   0.00000  Uiso   1.00
C284   C     0.18176   0.13911   0.20525   0.00000  Uiso   1.00
C285   C     0.14910   0.02917   0.16025   0.00000  Uiso   1.00
C286   C     0.27653   0.38966   0.18563   0.00000  Uiso   1.00
C287   C     0.25767   0.47432   0.19902   0.00000  Uiso   1.00
C288   C     0.28128   0.53104   0.13324   0.00000  Uiso   1.00
C289   C     0.30623   0.64792   0.04657   0.00000  Uiso   1.00
C290   C     0.33190   0.26722   0.10828   0.00000  Uiso   1.00
C291   C     0.34606   0.25667   0.17591   0.00000  Uiso   1.00
C292   C     0.39370   0.22419   0.16615   0.00000  Uiso   1.00
C293   C     0.39891   0.21972   0.23558   0.00000  Uiso   1.00
C294   C     0.28041   0.21651   0.13608   0.00000  Uiso   1.00
C295   C     0.27287   0.15028   0.09283   0.00000  Uiso   1.00
C296   C     0.22282   0.11201   0.12872   0.00000  Uiso   1.00
C297   C     0.31752   0.36260   0.10924   0.00000  Uiso   1.00
C298   C     0.34116   0.41920   0.04342   0.00000  Uiso   1.00
C299   C     0.32234   0.50393   0.05671   0.00000  Uiso   1.00
H300   H     0.22452   0.33810   0.30840   0.00000  Uiso   1.00
H301   H     0.27847   0.30025   0.38087   0.00000  Uiso   1.00
H302   H     0.15766   0.22635   0.30755   0.00000  Uiso   1.00
H303   H     0.22595   0.49523   0.25815   0.00000  Uiso   1.00
H304   H     0.35636   0.24632   0.42752   0.00000  Uiso   1.00
H305   H     0.10161   0.09053   0.27292   0.00000  Uiso   1.00
H306   H     0.24560   0.65752   0.16874   0.00000  Uiso   1.00
H307   H     0.36382   0.24615   0.04881   0.00000  Uiso   1.00
H308   H     0.42541   0.20325   0.10703   0.00000  Uiso   1.00
H309   H     0.30460   0.12936   0.03371   0.00000  Uiso   1.00
H310   H     0.37288   0.39824   0.98431   0.00000  Uiso   1.00
H311   H     0.47562   0.16759   0.20527   0.00000  Uiso   1.00
H312   H     0.22087   0.01180   0.05066   0.00000  Uiso   1.00
H313   H     0.36486   0.57880   0.94649   0.00000  Uiso   1.00
O314   O     0.45399   0.18037   0.35938   0.00000  Uiso   1.00
O315   O     0.11976   0.97599   0.15654   0.00000  Uiso   1.00
O316   O     0.30868   0.71987   0.01987   0.00000  Uiso   1.00
N317   N     0.37598   0.23369   0.36722   0.00000  Uiso   1.00
N318   N     0.13780   0.08803   0.22268   0.00000  Uiso   1.00
N319   N     0.27242   0.61812   0.12528   0.00000  Uiso   1.00
N320   N     0.44015   0.19133   0.24763   0.00000  Uiso   1.00
N321   N     0.20198   0.04567   0.10309   0.00000  Uiso   1.00
N322   N     0.33659   0.57575   0.00569   0.00000  Uiso   1.00
C323   C     0.75644   0.81703   0.24893   0.00000  Uiso   1.00
C324   C     0.80507   0.78373   0.25230   0.00000  Uiso   1.00
C325   C     0.81021   0.77931   0.32176   0.00000  Uiso   1.00
C326   C     0.85784   0.74683   0.31211   0.00000  Uiso   1.00
C327   C     0.92711   0.69919   0.32897   0.00000  Uiso   1.00
C328   C     0.73943   0.74357   0.21247   0.00000  Uiso   1.00
C329   C     0.68937   0.70539   0.24844   0.00000  Uiso   1.00
C330   C     0.68176   0.63911   0.20525   0.00000  Uiso   1.00
C331   C     0.64910   0.52917   0.16025   0.00000  Uiso   1.00
C332   C     0.77653   0.88966   0.18563   0.00000  Uiso   1.00
C333   C     0.75767   0.97432   0.19902   0.00000  Uiso   1.00
C334   C     0.78128   0.03104   0.13324   0.00000  Uiso   1.00
C335   C     0.80623   0.14792   0.04657   0.00000  Uiso   1.00
C336   C     0.83190   0.76722   0.10828   0.00000  Uiso   1.00
C337   C     0.84606   0.75667   0.17591   0.00000  Uiso   1.00
C338   C     0.89370   0.72419   0.16615   0.00000  Uiso   1.00
C339   C     0.89891   0.71972   0.23558   0.00000  Uiso   1.00
C340   C     0.78041   0.71651   0.13608   0.00000  Uiso   1.00
C341   C     0.77287   0.65028   0.09283   0.00000  Uiso   1.00
C342   C     0.72282   0.61201   0.12872   0.00000  Uiso   1.00
C343   C     0.81752   0.86260   0.10924   0.00000  Uiso   1.00
C344   C     0.84116   0.91920   0.04342   0.00000  Uiso   1.00
C345   C     0.82234   0.00393   0.05671   0.00000  Uiso   1.00
H346   H     0.72452   0.83810   0.30840   0.00000  Uiso   1.00
H347   H     0.77847   0.80025   0.38087   0.00000  Uiso   1.00
H348   H     0.65766   0.72635   0.30755   0.00000  Uiso   1.00
H349   H     0.72595   0.99523   0.25815   0.00000  Uiso   1.00
H350   H     0.85636   0.74632   0.42752   0.00000  Uiso   1.00
H351   H     0.60161   0.59053   0.27292   0.00000  Uiso   1.00
H352   H     0.74560   0.15752   0.16874   0.00000  Uiso   1.00
H353   H     0.86382   0.74615   0.04881   0.00000  Uiso   1.00
H354   H     0.92541   0.70325   0.10703   0.00000  Uiso   1.00
H355   H     0.80460   0.62936   0.03371   0.00000  Uiso   1.00
H356   H     0.87288   0.89824   0.98431   0.00000  Uiso   1.00
H357   H     0.97562   0.66759   0.20527   0.00000  Uiso   1.00
H358   H     0.72087   0.51180   0.05066   0.00000  Uiso   1.00
H359   H     0.86486   0.07880   0.94649   0.00000  Uiso   1.00
O360   O     0.95399   0.68037   0.35938   0.00000  Uiso   1.00
O361   O     0.61976   0.47599   0.15654   0.00000  Uiso   1.00
O362   O     0.80868   0.21987   0.01987   0.00000  Uiso   1.00
N363   N     0.87598   0.73369   0.36722   0.00000  Uiso   1.00
N364   N     0.63780   0.58803   0.22268   0.00000  Uiso   1.00
N365   N     0.77242   0.11812   0.12528   0.00000  Uiso   1.00
N366   N     0.94015   0.69133   0.24763   0.00000  Uiso   1.00
N367   N     0.70198   0.54567   0.10309   0.00000  Uiso   1.00
N368   N     0.83659   0.07575   0.00569   0.00000  Uiso   1.00
