data_job_03415
_audit_creation_date              2018-12-19
_audit_creation_method            'Materials Studio'
_symmetry_space_group_name_H-M    'P1'
_symmetry_Int_Tables_number       1
_symmetry_cell_setting            triclinic
loop_
_symmetry_equiv_pos_as_xyz
  x,y,z
_cell_length_a                    17.4454
_cell_length_b                    17.4454
_cell_length_c                    16.1491
_cell_angle_alpha                 90.0000
_cell_angle_beta                  90.0000
_cell_angle_gamma                 90.0000
loop_
_atom_site_label
_atom_site_type_symbol
_atom_site_fract_x
_atom_site_fract_y
_atom_site_fract_z
_atom_site_U_iso_or_equiv
_atom_site_adp_type
_atom_site_occupancy
C1     C     0.74511   0.75242   0.94368   0.00000  Uiso   1.00
C2     C     0.69297   0.70434   0.99888   0.00000  Uiso   1.00
C3     C     0.61721   0.72089   0.01804   0.00000  Uiso   1.00
C4     C     0.57930   0.66974   0.06963   0.00000  Uiso   1.00
C5     C     0.49279   0.60504   0.15061   0.00000  Uiso   1.00
C6     C     0.81528   0.77169   0.99601   0.00000  Uiso   1.00
C7     C     0.84236   0.84487   0.01276   0.00000  Uiso   1.00
C8     C     0.90741   0.85042   0.06192   0.00000  Uiso   1.00
C9     C     0.01081   0.89028   0.13840   0.00000  Uiso   1.00
C10    C     0.77328   0.69881   0.87559   0.00000  Uiso   1.00
C11    C     0.76506   0.71072   0.79109   0.00000  Uiso   1.00
C12    C     0.79477   0.65491   0.73887   0.00000  Uiso   1.00
C13    C     0.83296   0.58161   0.62838   0.00000  Uiso   1.00
C14    C     0.81251   0.63215   0.00121   0.00000  Uiso   1.00
C15    C     0.72958   0.63901   0.03012   0.00000  Uiso   1.00
C16    C     0.69178   0.58782   0.08169   0.00000  Uiso   1.00
C17    C     0.61597   0.60429   0.10093   0.00000  Uiso   1.00
C18    C     0.85188   0.70637   0.02725   0.00000  Uiso   1.00
C19    C     0.91692   0.71181   0.07640   0.00000  Uiso   1.00
C20    C     0.94409   0.78497   0.09322   0.00000  Uiso   1.00
C21    C     0.80988   0.63348   0.90684   0.00000  Uiso   1.00
C22    C     0.83962   0.57765   0.85473   0.00000  Uiso   1.00
C23    C     0.83145   0.58946   0.77017   0.00000  Uiso   1.00
H24    H     0.71662   0.80328   0.91936   0.00000  Uiso   1.00
H25    H     0.58891   0.77145   0.99386   0.00000  Uiso   1.00
H26    H     0.81402   0.89542   0.98856   0.00000  Uiso   1.00
H27    H     0.73673   0.76128   0.76693   0.00000  Uiso   1.00
H28    H     0.46347   0.70737   0.09026   0.00000  Uiso   1.00
H29    H     0.93815   0.96875   0.07907   0.00000  Uiso   1.00
H30    H     0.77517   0.68590   0.61171   0.00000  Uiso   1.00
H31    H     0.84101   0.58129   0.02553   0.00000  Uiso   1.00
H32    H     0.72012   0.53727   0.10586   0.00000  Uiso   1.00
H33    H     0.94523   0.66124   0.10056   0.00000  Uiso   1.00
H34    H     0.86794   0.52710   0.87893   0.00000  Uiso   1.00
H35    H     0.56996   0.51731   0.18116   0.00000  Uiso   1.00
H36    H     0.04465   0.77869   0.16997   0.00000  Uiso   1.00
H37    H     0.88167   0.49583   0.70262   0.00000  Uiso   1.00
O38    O     0.43495   0.58740   0.18666   0.00000  Uiso   1.00
O39    O     0.05772   0.93033   0.17196   0.00000  Uiso   1.00
O40    O     0.84390   0.55922   0.55881   0.00000  Uiso   1.00
N41    N     0.50512   0.66867   0.10061   0.00000  Uiso   1.00
N42    N     0.94891   0.91305   0.09016   0.00000  Uiso   1.00
N43    N     0.79655   0.64861   0.65323   0.00000  Uiso   1.00
N44    N     0.56242   0.56640   0.14953   0.00000  Uiso   1.00
N45    N     0.00621   0.81077   0.13908   0.00000  Uiso   1.00
N46    N     0.85386   0.54634   0.70214   0.00000  Uiso   1.00
C47    C     0.24511   0.25242   0.44368   0.00000  Uiso   1.00
C48    C     0.19297   0.20434   0.49888   0.00000  Uiso   1.00
C49    C     0.11721   0.22089   0.51804   0.00000  Uiso   1.00
C50    C     0.07930   0.16974   0.56963   0.00000  Uiso   1.00
C51    C     0.99279   0.10504   0.65061   0.00000  Uiso   1.00
C52    C     0.31528   0.27169   0.49601   0.00000  Uiso   1.00
C53    C     0.34236   0.34487   0.51276   0.00000  Uiso   1.00
C54    C     0.40741   0.35042   0.56192   0.00000  Uiso   1.00
C55    C     0.51081   0.39028   0.63840   0.00000  Uiso   1.00
C56    C     0.27328   0.19881   0.37559   0.00000  Uiso   1.00
C57    C     0.26506   0.21072   0.29109   0.00000  Uiso   1.00
C58    C     0.29477   0.15491   0.23887   0.00000  Uiso   1.00
C59    C     0.33296   0.08161   0.12838   0.00000  Uiso   1.00
C60    C     0.31251   0.13215   0.50121   0.00000  Uiso   1.00
C61    C     0.22958   0.13901   0.53012   0.00000  Uiso   1.00
C62    C     0.19178   0.08782   0.58169   0.00000  Uiso   1.00
C63    C     0.11597   0.10429   0.60093   0.00000  Uiso   1.00
C64    C     0.35188   0.20637   0.52725   0.00000  Uiso   1.00
C65    C     0.41692   0.21181   0.57640   0.00000  Uiso   1.00
C66    C     0.44409   0.28497   0.59322   0.00000  Uiso   1.00
C67    C     0.30988   0.13348   0.40684   0.00000  Uiso   1.00
C68    C     0.33962   0.07765   0.35473   0.00000  Uiso   1.00
C69    C     0.33145   0.08946   0.27017   0.00000  Uiso   1.00
H70    H     0.21662   0.30328   0.41936   0.00000  Uiso   1.00
H71    H     0.08891   0.27145   0.49386   0.00000  Uiso   1.00
H72    H     0.31402   0.39542   0.48856   0.00000  Uiso   1.00
H73    H     0.23673   0.26128   0.26693   0.00000  Uiso   1.00
H74    H     0.96347   0.20737   0.59026   0.00000  Uiso   1.00
H75    H     0.43815   0.46875   0.57907   0.00000  Uiso   1.00
H76    H     0.27517   0.18590   0.11171   0.00000  Uiso   1.00
H77    H     0.34101   0.08129   0.52553   0.00000  Uiso   1.00
H78    H     0.22012   0.03727   0.60586   0.00000  Uiso   1.00
H79    H     0.44523   0.16124   0.60056   0.00000  Uiso   1.00
H80    H     0.36794   0.02710   0.37893   0.00000  Uiso   1.00
H81    H     0.06996   0.01731   0.68116   0.00000  Uiso   1.00
H82    H     0.54465   0.27869   0.66997   0.00000  Uiso   1.00
H83    H     0.38167   0.99583   0.20262   0.00000  Uiso   1.00
O84    O     0.93495   0.08740   0.68666   0.00000  Uiso   1.00
O85    O     0.55772   0.43033   0.67196   0.00000  Uiso   1.00
O86    O     0.34390   0.05922   0.05881   0.00000  Uiso   1.00
N87    N     0.00512   0.16867   0.60061   0.00000  Uiso   1.00
N88    N     0.44891   0.41305   0.59016   0.00000  Uiso   1.00
N89    N     0.29655   0.14861   0.15323   0.00000  Uiso   1.00
N90    N     0.06242   0.06640   0.64953   0.00000  Uiso   1.00
N91    N     0.50621   0.31077   0.63908   0.00000  Uiso   1.00
N92    N     0.35386   0.04634   0.20214   0.00000  Uiso   1.00
C93    C     0.25489   0.24758   0.94368   0.00000  Uiso   1.00
C94    C     0.30703   0.29566   0.99888   0.00000  Uiso   1.00
C95    C     0.38279   0.27911   0.01804   0.00000  Uiso   1.00
C96    C     0.42070   0.33026   0.06963   0.00000  Uiso   1.00
C97    C     0.50721   0.39496   0.15061   0.00000  Uiso   1.00
C98    C     0.18472   0.22831   0.99601   0.00000  Uiso   1.00
C99    C     0.15764   0.15513   0.01276   0.00000  Uiso   1.00
C100   C     0.09259   0.14958   0.06192   0.00000  Uiso   1.00
C101   C     0.98919   0.10972   0.13840   0.00000  Uiso   1.00
C102   C     0.22672   0.30119   0.87559   0.00000  Uiso   1.00
C103   C     0.23494   0.28928   0.79109   0.00000  Uiso   1.00
C104   C     0.20523   0.34509   0.73887   0.00000  Uiso   1.00
C105   C     0.16704   0.41839   0.62838   0.00000  Uiso   1.00
C106   C     0.18749   0.36785   0.00121   0.00000  Uiso   1.00
C107   C     0.27042   0.36099   0.03012   0.00000  Uiso   1.00
C108   C     0.30822   0.41218   0.08169   0.00000  Uiso   1.00
C109   C     0.38403   0.39571   0.10093   0.00000  Uiso   1.00
C110   C     0.14812   0.29363   0.02725   0.00000  Uiso   1.00
C111   C     0.08308   0.28819   0.07640   0.00000  Uiso   1.00
C112   C     0.05591   0.21503   0.09322   0.00000  Uiso   1.00
C113   C     0.19012   0.36652   0.90684   0.00000  Uiso   1.00
C114   C     0.16038   0.42235   0.85473   0.00000  Uiso   1.00
C115   C     0.16855   0.41054   0.77017   0.00000  Uiso   1.00
H116   H     0.28338   0.19672   0.91936   0.00000  Uiso   1.00
H117   H     0.41109   0.22855   0.99386   0.00000  Uiso   1.00
H118   H     0.18598   0.10458   0.98856   0.00000  Uiso   1.00
H119   H     0.26327   0.23872   0.76693   0.00000  Uiso   1.00
H120   H     0.53653   0.29263   0.09026   0.00000  Uiso   1.00
H121   H     0.06185   0.03125   0.07907   0.00000  Uiso   1.00
H122   H     0.22483   0.31410   0.61171   0.00000  Uiso   1.00
H123   H     0.15899   0.41871   0.02553   0.00000  Uiso   1.00
H124   H     0.27988   0.46273   0.10586   0.00000  Uiso   1.00
H125   H     0.05477   0.33876   0.10056   0.00000  Uiso   1.00
H126   H     0.13206   0.47290   0.87893   0.00000  Uiso   1.00
H127   H     0.43004   0.48269   0.18116   0.00000  Uiso   1.00
H128   H     0.95535   0.22131   0.16997   0.00000  Uiso   1.00
H129   H     0.11833   0.50417   0.70262   0.00000  Uiso   1.00
O130   O     0.56505   0.41260   0.18666   0.00000  Uiso   1.00
O131   O     0.94228   0.06967   0.17196   0.00000  Uiso   1.00
O132   O     0.15610   0.44078   0.55881   0.00000  Uiso   1.00
N133   N     0.49488   0.33133   0.10061   0.00000  Uiso   1.00
N134   N     0.05109   0.08695   0.09016   0.00000  Uiso   1.00
N135   N     0.20345   0.35139   0.65323   0.00000  Uiso   1.00
N136   N     0.43758   0.43360   0.14953   0.00000  Uiso   1.00
N137   N     0.99379   0.18923   0.13908   0.00000  Uiso   1.00
N138   N     0.14614   0.45366   0.70214   0.00000  Uiso   1.00
C139   C     0.75489   0.74758   0.44368   0.00000  Uiso   1.00
C140   C     0.80703   0.79566   0.49888   0.00000  Uiso   1.00
C141   C     0.88279   0.77911   0.51804   0.00000  Uiso   1.00
C142   C     0.92070   0.83026   0.56963   0.00000  Uiso   1.00
C143   C     0.00721   0.89496   0.65061   0.00000  Uiso   1.00
C144   C     0.68472   0.72831   0.49601   0.00000  Uiso   1.00
C145   C     0.65764   0.65513   0.51276   0.00000  Uiso   1.00
C146   C     0.59259   0.64958   0.56192   0.00000  Uiso   1.00
C147   C     0.48919   0.60972   0.63840   0.00000  Uiso   1.00
C148   C     0.72672   0.80119   0.37559   0.00000  Uiso   1.00
C149   C     0.73494   0.78928   0.29109   0.00000  Uiso   1.00
C150   C     0.70523   0.84509   0.23887   0.00000  Uiso   1.00
C151   C     0.66704   0.91839   0.12838   0.00000  Uiso   1.00
C152   C     0.68749   0.86785   0.50121   0.00000  Uiso   1.00
C153   C     0.77042   0.86099   0.53012   0.00000  Uiso   1.00
C154   C     0.80822   0.91218   0.58169   0.00000  Uiso   1.00
C155   C     0.88403   0.89571   0.60093   0.00000  Uiso   1.00
C156   C     0.64812   0.79363   0.52725   0.00000  Uiso   1.00
C157   C     0.58308   0.78819   0.57640   0.00000  Uiso   1.00
C158   C     0.55591   0.71503   0.59322   0.00000  Uiso   1.00
C159   C     0.69012   0.86652   0.40684   0.00000  Uiso   1.00
C160   C     0.66038   0.92235   0.35473   0.00000  Uiso   1.00
C161   C     0.66855   0.91054   0.27017   0.00000  Uiso   1.00
H162   H     0.78338   0.69672   0.41936   0.00000  Uiso   1.00
H163   H     0.91109   0.72855   0.49386   0.00000  Uiso   1.00
H164   H     0.68598   0.60458   0.48856   0.00000  Uiso   1.00
H165   H     0.76327   0.73872   0.26693   0.00000  Uiso   1.00
H166   H     0.03653   0.79263   0.59026   0.00000  Uiso   1.00
H167   H     0.56185   0.53125   0.57907   0.00000  Uiso   1.00
H168   H     0.72483   0.81410   0.11171   0.00000  Uiso   1.00
H169   H     0.65899   0.91871   0.52553   0.00000  Uiso   1.00
H170   H     0.77988   0.96273   0.60586   0.00000  Uiso   1.00
H171   H     0.55477   0.83876   0.60056   0.00000  Uiso   1.00
H172   H     0.63206   0.97290   0.37893   0.00000  Uiso   1.00
H173   H     0.93004   0.98269   0.68116   0.00000  Uiso   1.00
H174   H     0.45535   0.72131   0.66997   0.00000  Uiso   1.00
H175   H     0.61833   0.00417   0.20262   0.00000  Uiso   1.00
O176   O     0.06505   0.91260   0.68666   0.00000  Uiso   1.00
O177   O     0.44228   0.56967   0.67196   0.00000  Uiso   1.00
O178   O     0.65610   0.94078   0.05881   0.00000  Uiso   1.00
N179   N     0.99488   0.83133   0.60061   0.00000  Uiso   1.00
N180   N     0.55109   0.58695   0.59016   0.00000  Uiso   1.00
N181   N     0.70345   0.85139   0.15323   0.00000  Uiso   1.00
N182   N     0.93758   0.93360   0.64953   0.00000  Uiso   1.00
N183   N     0.49379   0.68923   0.63908   0.00000  Uiso   1.00
N184   N     0.64614   0.95366   0.20214   0.00000  Uiso   1.00
C185   C     0.75242   0.25489   0.05632   0.00000  Uiso   1.00
C186   C     0.70434   0.30703   0.00112   0.00000  Uiso   1.00
C187   C     0.72089   0.38279   0.98196   0.00000  Uiso   1.00
C188   C     0.66974   0.42070   0.93037   0.00000  Uiso   1.00
C189   C     0.60504   0.50721   0.84939   0.00000  Uiso   1.00
C190   C     0.77169   0.18472   0.00399   0.00000  Uiso   1.00
C191   C     0.84487   0.15764   0.98724   0.00000  Uiso   1.00
C192   C     0.85042   0.09259   0.93808   0.00000  Uiso   1.00
C193   C     0.89028   0.98919   0.86160   0.00000  Uiso   1.00
C194   C     0.69881   0.22672   0.12441   0.00000  Uiso   1.00
C195   C     0.71072   0.23494   0.20891   0.00000  Uiso   1.00
C196   C     0.65491   0.20523   0.26113   0.00000  Uiso   1.00
C197   C     0.58161   0.16704   0.37162   0.00000  Uiso   1.00
C198   C     0.63215   0.18749   0.99879   0.00000  Uiso   1.00
C199   C     0.63901   0.27042   0.96988   0.00000  Uiso   1.00
C200   C     0.58782   0.30822   0.91831   0.00000  Uiso   1.00
C201   C     0.60429   0.38403   0.89907   0.00000  Uiso   1.00
C202   C     0.70637   0.14812   0.97275   0.00000  Uiso   1.00
C203   C     0.71181   0.08308   0.92360   0.00000  Uiso   1.00
C204   C     0.78497   0.05591   0.90678   0.00000  Uiso   1.00
C205   C     0.63348   0.19012   0.09316   0.00000  Uiso   1.00
C206   C     0.57765   0.16038   0.14527   0.00000  Uiso   1.00
C207   C     0.58946   0.16855   0.22983   0.00000  Uiso   1.00
H208   H     0.80328   0.28338   0.08064   0.00000  Uiso   1.00
H209   H     0.77145   0.41109   0.00614   0.00000  Uiso   1.00
H210   H     0.89542   0.18598   0.01144   0.00000  Uiso   1.00
H211   H     0.76128   0.26327   0.23307   0.00000  Uiso   1.00
H212   H     0.70737   0.53653   0.90974   0.00000  Uiso   1.00
H213   H     0.96875   0.06185   0.92093   0.00000  Uiso   1.00
H214   H     0.68590   0.22483   0.38829   0.00000  Uiso   1.00
H215   H     0.58129   0.15899   0.97447   0.00000  Uiso   1.00
H216   H     0.53727   0.27988   0.89414   0.00000  Uiso   1.00
H217   H     0.66124   0.05477   0.89944   0.00000  Uiso   1.00
H218   H     0.52710   0.13206   0.12107   0.00000  Uiso   1.00
H219   H     0.51731   0.43004   0.81884   0.00000  Uiso   1.00
H220   H     0.77869   0.95535   0.83003   0.00000  Uiso   1.00
H221   H     0.49583   0.11833   0.29738   0.00000  Uiso   1.00
O222   O     0.58740   0.56505   0.81334   0.00000  Uiso   1.00
O223   O     0.93033   0.94228   0.82804   0.00000  Uiso   1.00
O224   O     0.55922   0.15610   0.44119   0.00000  Uiso   1.00
N225   N     0.66867   0.49488   0.89939   0.00000  Uiso   1.00
N226   N     0.91305   0.05109   0.90984   0.00000  Uiso   1.00
N227   N     0.64861   0.20345   0.34677   0.00000  Uiso   1.00
N228   N     0.56640   0.43758   0.85047   0.00000  Uiso   1.00
N229   N     0.81077   0.99379   0.86092   0.00000  Uiso   1.00
N230   N     0.54634   0.14614   0.29786   0.00000  Uiso   1.00
C231   C     0.25242   0.75489   0.55632   0.00000  Uiso   1.00
C232   C     0.20434   0.80703   0.50112   0.00000  Uiso   1.00
C233   C     0.22089   0.88279   0.48196   0.00000  Uiso   1.00
C234   C     0.16974   0.92070   0.43037   0.00000  Uiso   1.00
C235   C     0.10504   0.00721   0.34939   0.00000  Uiso   1.00
C236   C     0.27169   0.68472   0.50399   0.00000  Uiso   1.00
C237   C     0.34487   0.65764   0.48724   0.00000  Uiso   1.00
C238   C     0.35042   0.59259   0.43808   0.00000  Uiso   1.00
C239   C     0.39028   0.48919   0.36160   0.00000  Uiso   1.00
C240   C     0.19881   0.72672   0.62441   0.00000  Uiso   1.00
C241   C     0.21072   0.73494   0.70891   0.00000  Uiso   1.00
C242   C     0.15491   0.70523   0.76113   0.00000  Uiso   1.00
C243   C     0.08161   0.66704   0.87162   0.00000  Uiso   1.00
C244   C     0.13215   0.68749   0.49879   0.00000  Uiso   1.00
C245   C     0.13901   0.77042   0.46988   0.00000  Uiso   1.00
C246   C     0.08782   0.80822   0.41831   0.00000  Uiso   1.00
C247   C     0.10429   0.88403   0.39907   0.00000  Uiso   1.00
C248   C     0.20637   0.64812   0.47275   0.00000  Uiso   1.00
C249   C     0.21181   0.58308   0.42360   0.00000  Uiso   1.00
C250   C     0.28497   0.55591   0.40678   0.00000  Uiso   1.00
C251   C     0.13348   0.69012   0.59316   0.00000  Uiso   1.00
C252   C     0.07765   0.66038   0.64527   0.00000  Uiso   1.00
C253   C     0.08946   0.66855   0.72983   0.00000  Uiso   1.00
H254   H     0.30328   0.78338   0.58064   0.00000  Uiso   1.00
H255   H     0.27145   0.91109   0.50614   0.00000  Uiso   1.00
H256   H     0.39542   0.68598   0.51144   0.00000  Uiso   1.00
H257   H     0.26128   0.76327   0.73307   0.00000  Uiso   1.00
H258   H     0.20737   0.03653   0.40974   0.00000  Uiso   1.00
H259   H     0.46875   0.56185   0.42093   0.00000  Uiso   1.00
H260   H     0.18590   0.72483   0.88829   0.00000  Uiso   1.00
H261   H     0.08129   0.65899   0.47447   0.00000  Uiso   1.00
H262   H     0.03727   0.77988   0.39414   0.00000  Uiso   1.00
H263   H     0.16124   0.55477   0.39944   0.00000  Uiso   1.00
H264   H     0.02710   0.63206   0.62107   0.00000  Uiso   1.00
H265   H     0.01731   0.93004   0.31884   0.00000  Uiso   1.00
H266   H     0.27869   0.45535   0.33003   0.00000  Uiso   1.00
H267   H     0.99583   0.61833   0.79738   0.00000  Uiso   1.00
O268   O     0.08740   0.06505   0.31334   0.00000  Uiso   1.00
O269   O     0.43033   0.44228   0.32804   0.00000  Uiso   1.00
O270   O     0.05922   0.65610   0.94119   0.00000  Uiso   1.00
N271   N     0.16867   0.99488   0.39939   0.00000  Uiso   1.00
N272   N     0.41305   0.55109   0.40984   0.00000  Uiso   1.00
N273   N     0.14861   0.70345   0.84677   0.00000  Uiso   1.00
N274   N     0.06640   0.93758   0.35047   0.00000  Uiso   1.00
N275   N     0.31077   0.49379   0.36092   0.00000  Uiso   1.00
N276   N     0.04634   0.64614   0.79786   0.00000  Uiso   1.00
C277   C     0.24758   0.74511   0.05632   0.00000  Uiso   1.00
C278   C     0.29566   0.69297   0.00112   0.00000  Uiso   1.00
C279   C     0.27911   0.61721   0.98196   0.00000  Uiso   1.00
C280   C     0.33026   0.57930   0.93037   0.00000  Uiso   1.00
C281   C     0.39496   0.49279   0.84939   0.00000  Uiso   1.00
C282   C     0.22831   0.81528   0.00399   0.00000  Uiso   1.00
C283   C     0.15513   0.84236   0.98724   0.00000  Uiso   1.00
C284   C     0.14958   0.90741   0.93808   0.00000  Uiso   1.00
C285   C     0.10972   0.01081   0.86160   0.00000  Uiso   1.00
C286   C     0.30119   0.77328   0.12441   0.00000  Uiso   1.00
C287   C     0.28928   0.76506   0.20891   0.00000  Uiso   1.00
C288   C     0.34509   0.79477   0.26113   0.00000  Uiso   1.00
C289   C     0.41839   0.83296   0.37162   0.00000  Uiso   1.00
C290   C     0.36785   0.81251   0.99879   0.00000  Uiso   1.00
C291   C     0.36099   0.72958   0.96988   0.00000  Uiso   1.00
C292   C     0.41218   0.69178   0.91831   0.00000  Uiso   1.00
C293   C     0.39571   0.61597   0.89907   0.00000  Uiso   1.00
C294   C     0.29363   0.85188   0.97275   0.00000  Uiso   1.00
C295   C     0.28819   0.91692   0.92360   0.00000  Uiso   1.00
C296   C     0.21503   0.94409   0.90678   0.00000  Uiso   1.00
C297   C     0.36652   0.80988   0.09316   0.00000  Uiso   1.00
C298   C     0.42235   0.83962   0.14527   0.00000  Uiso   1.00
C299   C     0.41054   0.83145   0.22983   0.00000  Uiso   1.00
H300   H     0.19672   0.71662   0.08064   0.00000  Uiso   1.00
H301   H     0.22855   0.58891   0.00614   0.00000  Uiso   1.00
H302   H     0.10458   0.81402   0.01144   0.00000  Uiso   1.00
H303   H     0.23872   0.73673   0.23307   0.00000  Uiso   1.00
H304   H     0.29263   0.46347   0.90974   0.00000  Uiso   1.00
H305   H     0.03125   0.93815   0.92093   0.00000  Uiso   1.00
H306   H     0.31410   0.77517   0.38829   0.00000  Uiso   1.00
H307   H     0.41871   0.84101   0.97447   0.00000  Uiso   1.00
H308   H     0.46273   0.72012   0.89414   0.00000  Uiso   1.00
H309   H     0.33876   0.94523   0.89944   0.00000  Uiso   1.00
H310   H     0.47290   0.86794   0.12107   0.00000  Uiso   1.00
H311   H     0.48269   0.56996   0.81884   0.00000  Uiso   1.00
H312   H     0.22131   0.04465   0.83003   0.00000  Uiso   1.00
H313   H     0.50417   0.88167   0.29738   0.00000  Uiso   1.00
O314   O     0.41260   0.43495   0.81334   0.00000  Uiso   1.00
O315   O     0.06967   0.05772   0.82804   0.00000  Uiso   1.00
O316   O     0.44078   0.84390   0.44119   0.00000  Uiso   1.00
N317   N     0.33133   0.50512   0.89939   0.00000  Uiso   1.00
N318   N     0.08695   0.94891   0.90984   0.00000  Uiso   1.00
N319   N     0.35139   0.79655   0.34677   0.00000  Uiso   1.00
N320   N     0.43360   0.56242   0.85047   0.00000  Uiso   1.00
N321   N     0.18923   0.00621   0.86092   0.00000  Uiso   1.00
N322   N     0.45366   0.85386   0.29786   0.00000  Uiso   1.00
C323   C     0.74758   0.24511   0.55632   0.00000  Uiso   1.00
C324   C     0.79566   0.19297   0.50112   0.00000  Uiso   1.00
C325   C     0.77911   0.11721   0.48196   0.00000  Uiso   1.00
C326   C     0.83026   0.07930   0.43037   0.00000  Uiso   1.00
C327   C     0.89496   0.99279   0.34939   0.00000  Uiso   1.00
C328   C     0.72831   0.31528   0.50399   0.00000  Uiso   1.00
C329   C     0.65513   0.34236   0.48724   0.00000  Uiso   1.00
C330   C     0.64958   0.40741   0.43808   0.00000  Uiso   1.00
C331   C     0.60972   0.51081   0.36160   0.00000  Uiso   1.00
C332   C     0.80119   0.27328   0.62441   0.00000  Uiso   1.00
C333   C     0.78928   0.26506   0.70891   0.00000  Uiso   1.00
C334   C     0.84509   0.29477   0.76113   0.00000  Uiso   1.00
C335   C     0.91839   0.33296   0.87162   0.00000  Uiso   1.00
C336   C     0.86785   0.31251   0.49879   0.00000  Uiso   1.00
C337   C     0.86099   0.22958   0.46988   0.00000  Uiso   1.00
C338   C     0.91218   0.19178   0.41831   0.00000  Uiso   1.00
C339   C     0.89571   0.11597   0.39907   0.00000  Uiso   1.00
C340   C     0.79363   0.35188   0.47275   0.00000  Uiso   1.00
C341   C     0.78819   0.41692   0.42360   0.00000  Uiso   1.00
C342   C     0.71503   0.44409   0.40678   0.00000  Uiso   1.00
C343   C     0.86652   0.30988   0.59316   0.00000  Uiso   1.00
C344   C     0.92235   0.33962   0.64527   0.00000  Uiso   1.00
C345   C     0.91054   0.33145   0.72983   0.00000  Uiso   1.00
H346   H     0.69672   0.21662   0.58064   0.00000  Uiso   1.00
H347   H     0.72855   0.08891   0.50614   0.00000  Uiso   1.00
H348   H     0.60458   0.31402   0.51144   0.00000  Uiso   1.00
H349   H     0.73872   0.23673   0.73307   0.00000  Uiso   1.00
H350   H     0.79263   0.96347   0.40974   0.00000  Uiso   1.00
H351   H     0.53125   0.43815   0.42093   0.00000  Uiso   1.00
H352   H     0.81410   0.27517   0.88829   0.00000  Uiso   1.00
H353   H     0.91871   0.34101   0.47447   0.00000  Uiso   1.00
H354   H     0.96273   0.22012   0.39414   0.00000  Uiso   1.00
H355   H     0.83876   0.44523   0.39944   0.00000  Uiso   1.00
H356   H     0.97290   0.36794   0.62107   0.00000  Uiso   1.00
H357   H     0.98269   0.06996   0.31884   0.00000  Uiso   1.00
H358   H     0.72131   0.54465   0.33003   0.00000  Uiso   1.00
H359   H     0.00417   0.38167   0.79738   0.00000  Uiso   1.00
O360   O     0.91260   0.93495   0.31334   0.00000  Uiso   1.00
O361   O     0.56967   0.55772   0.32804   0.00000  Uiso   1.00
O362   O     0.94078   0.34390   0.94119   0.00000  Uiso   1.00
N363   N     0.83133   0.00512   0.39939   0.00000  Uiso   1.00
N364   N     0.58695   0.44891   0.40984   0.00000  Uiso   1.00
N365   N     0.85139   0.29655   0.84677   0.00000  Uiso   1.00
N366   N     0.93360   0.06242   0.35047   0.00000  Uiso   1.00
N367   N     0.68923   0.50621   0.36092   0.00000  Uiso   1.00
N368   N     0.95366   0.35386   0.79786   0.00000  Uiso   1.00
