data_job_04559
_audit_creation_date              2018-12-19
_audit_creation_method            'Materials Studio'
_symmetry_space_group_name_H-M    'P1'
_symmetry_Int_Tables_number       1
_symmetry_cell_setting            triclinic
loop_
_symmetry_equiv_pos_as_xyz
  x,y,z
_cell_length_a                    18.8246
_cell_length_b                    22.6505
_cell_length_c                    12.4745
_cell_angle_alpha                 90.0000
_cell_angle_beta                  89.6685
_cell_angle_gamma                 90.0000
loop_
_atom_site_label
_atom_site_type_symbol
_atom_site_fract_x
_atom_site_fract_y
_atom_site_fract_z
_atom_site_U_iso_or_equiv
_atom_site_adp_type
_atom_site_occupancy
C1     C     0.18121   0.35585   0.03022   0.00000  Uiso   1.00
C2     C     0.21543   0.34815   0.92000   0.00000  Uiso   1.00
C3     C     0.20931   0.29876   0.85487   0.00000  Uiso   1.00
C4     C     0.24468   0.30032   0.75693   0.00000  Uiso   1.00
C5     C     0.29176   0.28086   0.59063   0.00000  Uiso   1.00
C6     C     0.24178   0.36939   0.10706   0.00000  Uiso   1.00
C7     C     0.25780   0.33786   0.19920   0.00000  Uiso   1.00
C8     C     0.31534   0.35730   0.25873   0.00000  Uiso   1.00
C9     C     0.40329   0.37084   0.38286   0.00000  Uiso   1.00
C10    C     0.13692   0.41210   0.02377   0.00000  Uiso   1.00
C11    C     0.06478   0.41649   0.04592   0.00000  Uiso   1.00
C12    C     0.03404   0.47189   0.03536   0.00000  Uiso   1.00
C13    C     0.95918   0.55174   0.03019   0.00000  Uiso   1.00
C14    C     0.25489   0.44644   0.97211   0.00000  Uiso   1.00
C15    C     0.25546   0.39735   0.88845   0.00000  Uiso   1.00
C16    C     0.29084   0.39899   0.79058   0.00000  Uiso   1.00
C17    C     0.28477   0.34961   0.72531   0.00000  Uiso   1.00
C18    C     0.28180   0.41859   0.07550   0.00000  Uiso   1.00
C19    C     0.33932   0.43808   0.13491   0.00000  Uiso   1.00
C20    C     0.35543   0.40659   0.22711   0.00000  Uiso   1.00
C21    C     0.17694   0.46130   0.99221   0.00000  Uiso   1.00
C22    C     0.14630   0.51671   0.98162   0.00000  Uiso   1.00
C23    C     0.07413   0.52118   0.00374   0.00000  Uiso   1.00
H24    H     0.15005   0.31755   0.05479   0.00000  Uiso   1.00
H25    H     0.17834   0.26069   0.87933   0.00000  Uiso   1.00
H26    H     0.22681   0.29979   0.22361   0.00000  Uiso   1.00
H27    H     0.03383   0.37840   0.07034   0.00000  Uiso   1.00
H28    H     0.22737   0.21935   0.67089   0.00000  Uiso   1.00
H29    H     0.32957   0.30180   0.39684   0.00000  Uiso   1.00
H30    H     0.92261   0.46757   0.07366   0.00000  Uiso   1.00
H31    H     0.28605   0.48475   0.94754   0.00000  Uiso   1.00
H32    H     0.32180   0.43707   0.76618   0.00000  Uiso   1.00
H33    H     0.37028   0.47616   0.11046   0.00000  Uiso   1.00
H34    H     0.17729   0.55477   0.95720   0.00000  Uiso   1.00
H35    H     0.34382   0.36250   0.57906   0.00000  Uiso   1.00
H36    H     0.44601   0.44495   0.30501   0.00000  Uiso   1.00
H37    H     0.03906   0.61072   0.98183   0.00000  Uiso   1.00
O38    O     0.30668   0.25653   0.50762   0.00000  Uiso   1.00
O39    O     0.44074   0.36471   0.46005   0.00000  Uiso   1.00
O40    O     0.90683   0.58219   0.03604   0.00000  Uiso   1.00
N41    N     0.24986   0.25959   0.67416   0.00000  Uiso   1.00
N42    N     0.34541   0.33667   0.35287   0.00000  Uiso   1.00
N43    N     0.96495   0.49165   0.05075   0.00000  Uiso   1.00
N44    N     0.31252   0.33662   0.62474   0.00000  Uiso   1.00
N45    N     0.40807   0.41369   0.30345   0.00000  Uiso   1.00
N46    N     0.02761   0.56868   0.00133   0.00000  Uiso   1.00
C47    C     0.07707   0.67804   0.52826   0.00000  Uiso   1.00
C48    C     0.04477   0.68496   0.41714   0.00000  Uiso   1.00
C49    C     0.05323   0.73338   0.35011   0.00000  Uiso   1.00
C50    C     0.01935   0.73123   0.25162   0.00000  Uiso   1.00
C51    C     0.97538   0.74943   0.08371   0.00000  Uiso   1.00
C52    C     0.01497   0.66660   0.60451   0.00000  Uiso   1.00
C53    C     0.99838   0.69958   0.69502   0.00000  Uiso   1.00
C54    C     0.93942   0.68197   0.75426   0.00000  Uiso   1.00
C55    C     0.84922   0.67163   0.87728   0.00000  Uiso   1.00
C56    C     0.11992   0.62093   0.52496   0.00000  Uiso   1.00
C57    C     0.19157   0.61550   0.54861   0.00000  Uiso   1.00
C58    C     0.22096   0.55943   0.54091   0.00000  Uiso   1.00
C59    C     0.29371   0.47818   0.54041   0.00000  Uiso   1.00
C60    C     0.00186   0.58811   0.47255   0.00000  Uiso   1.00
C61    C     0.00391   0.63612   0.38689   0.00000  Uiso   1.00
C62    C     0.97002   0.63389   0.28847   0.00000  Uiso   1.00
C63    C     0.97843   0.68230   0.22131   0.00000  Uiso   1.00
C64    C     0.97412   0.61776   0.57425   0.00000  Uiso   1.00
C65    C     0.91517   0.60009   0.63338   0.00000  Uiso   1.00
C66    C     0.89850   0.63303   0.72395   0.00000  Uiso   1.00
C67    C     0.07906   0.57208   0.49470   0.00000  Uiso   1.00
C68    C     0.10835   0.51601   0.48697   0.00000  Uiso   1.00
C69    C     0.18003   0.51049   0.51059   0.00000  Uiso   1.00
H70    H     0.10887   0.71607   0.55182   0.00000  Uiso   1.00
H71    H     0.08484   0.77118   0.37356   0.00000  Uiso   1.00
H72    H     0.03001   0.73737   0.71842   0.00000  Uiso   1.00
H73    H     0.22316   0.65331   0.57202   0.00000  Uiso   1.00
H74    H     0.04017   0.81075   0.16259   0.00000  Uiso   1.00
H75    H     0.92457   0.73946   0.88976   0.00000  Uiso   1.00
H76    H     0.33187   0.56219   0.58107   0.00000  Uiso   1.00
H77    H     0.97005   0.55008   0.44900   0.00000  Uiso   1.00
H78    H     0.93841   0.59609   0.26508   0.00000  Uiso   1.00
H79    H     0.88357   0.56229   0.60994   0.00000  Uiso   1.00
H80    H     0.07672   0.47822   0.46355   0.00000  Uiso   1.00
H81    H     0.92131   0.66864   0.07455   0.00000  Uiso   1.00
H82    H     0.80571   0.59735   0.80173   0.00000  Uiso   1.00
H83    H     0.21301   0.42008   0.49303   0.00000  Uiso   1.00
O84    O     0.96241   0.77296   0.99946   0.00000  Uiso   1.00
O85    O     0.81075   0.67943   0.95349   0.00000  Uiso   1.00
O86    O     0.34512   0.44685   0.54849   0.00000  Uiso   1.00
N87    N     0.01655   0.77099   0.16710   0.00000  Uiso   1.00
N88    N     0.90846   0.70434   0.84696   0.00000  Uiso   1.00
N89    N     0.28925   0.53860   0.55838   0.00000  Uiso   1.00
N90    N     0.95259   0.69452   0.11973   0.00000  Uiso   1.00
N91    N     0.84451   0.62787   0.79958   0.00000  Uiso   1.00
N92    N     0.22529   0.46214   0.51101   0.00000  Uiso   1.00
C93    C     0.57147   0.67228   0.12029   0.00000  Uiso   1.00
C94    C     0.53796   0.67943   0.23112   0.00000  Uiso   1.00
C95    C     0.54599   0.72786   0.29810   0.00000  Uiso   1.00
C96    C     0.51098   0.72594   0.39631   0.00000  Uiso   1.00
C97    C     0.46524   0.74446   0.56381   0.00000  Uiso   1.00
C98    C     0.51016   0.66107   0.04356   0.00000  Uiso   1.00
C99    C     0.49482   0.69405   0.95284   0.00000  Uiso   1.00
C100   C     0.43641   0.67666   0.89315   0.00000  Uiso   1.00
C101   C     0.34754   0.66664   0.76941   0.00000  Uiso   1.00
C102   C     0.61390   0.61498   0.12408   0.00000  Uiso   1.00
C103   C     0.68578   0.60921   0.10103   0.00000  Uiso   1.00
C104   C     0.71472   0.55301   0.10911   0.00000  Uiso   1.00
C105   C     0.78692   0.47143   0.11039   0.00000  Uiso   1.00
C106   C     0.49504   0.58274   0.17558   0.00000  Uiso   1.00
C107   C     0.49645   0.63080   0.26114   0.00000  Uiso   1.00
C108   C     0.46143   0.62880   0.35928   0.00000  Uiso   1.00
C109   C     0.46940   0.67722   0.42640   0.00000  Uiso   1.00
C110   C     0.46865   0.61244   0.07359   0.00000  Uiso   1.00
C111   C     0.41026   0.59499   0.01401   0.00000  Uiso   1.00
C112   C     0.39483   0.62794   0.92323   0.00000  Uiso   1.00
C113   C     0.57239   0.56634   0.15411   0.00000  Uiso   1.00
C114   C     0.60122   0.51014   0.16222   0.00000  Uiso   1.00
C115   C     0.67313   0.50428   0.13919   0.00000  Uiso   1.00
H116   H     0.60379   0.71014   0.09690   0.00000  Uiso   1.00
H117   H     0.57811   0.76550   0.27482   0.00000  Uiso   1.00
H118   H     0.52696   0.73168   0.92961   0.00000  Uiso   1.00
H119   H     0.71789   0.64685   0.07779   0.00000  Uiso   1.00
H120   H     0.53132   0.80543   0.48532   0.00000  Uiso   1.00
H121   H     0.42347   0.73412   0.75739   0.00000  Uiso   1.00
H122   H     0.82609   0.55523   0.06986   0.00000  Uiso   1.00
H123   H     0.46272   0.54487   0.19896   0.00000  Uiso   1.00
H124   H     0.42930   0.59116   0.38250   0.00000  Uiso   1.00
H125   H     0.37815   0.55735   0.03728   0.00000  Uiso   1.00
H126   H     0.56908   0.47251   0.18546   0.00000  Uiso   1.00
H127   H     0.41054   0.66393   0.57271   0.00000  Uiso   1.00
H128   H     0.30269   0.59262   0.84478   0.00000  Uiso   1.00
H129   H     0.70530   0.41373   0.15724   0.00000  Uiso   1.00
O130   O     0.45147   0.76812   0.64789   0.00000  Uiso   1.00
O131   O     0.30999   0.67456   0.69287   0.00000  Uiso   1.00
O132   O     0.83821   0.43986   0.10282   0.00000  Uiso   1.00
N133   N     0.50749   0.76577   0.48071   0.00000  Uiso   1.00
N134   N     0.40665   0.69911   0.80015   0.00000  Uiso   1.00
N135   N     0.78306   0.53186   0.09225   0.00000  Uiso   1.00
N136   N     0.44250   0.68963   0.52773   0.00000  Uiso   1.00
N137   N     0.34166   0.62297   0.84717   0.00000  Uiso   1.00
N138   N     0.71807   0.45572   0.13927   0.00000  Uiso   1.00
C139   C     0.68196   0.34235   0.62005   0.00000  Uiso   1.00
C140   C     0.71665   0.33319   0.72896   0.00000  Uiso   1.00
C141   C     0.70821   0.28407   0.79429   0.00000  Uiso   1.00
C142   C     0.74448   0.28412   0.89088   0.00000  Uiso   1.00
C143   C     0.79181   0.26267   0.05539   0.00000  Uiso   1.00
C144   C     0.74257   0.35346   0.54096   0.00000  Uiso   1.00
C145   C     0.75591   0.32138   0.44821   0.00000  Uiso   1.00
C146   C     0.81398   0.33850   0.38655   0.00000  Uiso   1.00
C147   C     0.90152   0.34854   0.25914   0.00000  Uiso   1.00
C148   C     0.64109   0.40031   0.62818   0.00000  Uiso   1.00
C149   C     0.56911   0.40764   0.60874   0.00000  Uiso   1.00
C150   C     0.54175   0.46421   0.62048   0.00000  Uiso   1.00
C151   C     0.47173   0.54700   0.62850   0.00000  Uiso   1.00
C152   C     0.76137   0.42980   0.67543   0.00000  Uiso   1.00
C153   C     0.75979   0.38069   0.75903   0.00000  Uiso   1.00
C154   C     0.79607   0.38082   0.85556   0.00000  Uiso   1.00
C155   C     0.78769   0.33171   0.92102   0.00000  Uiso   1.00
C156   C     0.78570   0.40096   0.57103   0.00000  Uiso   1.00
C157   C     0.84377   0.41813   0.50949   0.00000  Uiso   1.00
C158   C     0.85720   0.38609   0.41668   0.00000  Uiso   1.00
C159   C     0.68422   0.44781   0.65826   0.00000  Uiso   1.00
C160   C     0.65697   0.50439   0.67002   0.00000  Uiso   1.00
C161   C     0.58497   0.51180   0.65061   0.00000  Uiso   1.00
H162   H     0.64838   0.30536   0.59662   0.00000  Uiso   1.00
H163   H     0.67483   0.24731   0.77097   0.00000  Uiso   1.00
H164   H     0.72251   0.28463   0.42495   0.00000  Uiso   1.00
H165   H     0.53575   0.37087   0.58547   0.00000  Uiso   1.00
H166   H     0.72320   0.20389   0.97752   0.00000  Uiso   1.00
H167   H     0.82373   0.28258   0.24790   0.00000  Uiso   1.00
H168   H     0.42989   0.46444   0.58636   0.00000  Uiso   1.00
H169   H     0.79496   0.46678   0.69884   0.00000  Uiso   1.00
H170   H     0.82945   0.41759   0.87881   0.00000  Uiso   1.00
H171   H     0.87713   0.45490   0.53279   0.00000  Uiso   1.00
H172   H     0.69037   0.54114   0.69330   0.00000  Uiso   1.00
H173   H     0.84869   0.34209   0.06504   0.00000  Uiso   1.00
H174   H     0.94922   0.42078   0.33541   0.00000  Uiso   1.00
H175   H     0.55539   0.60263   0.67389   0.00000  Uiso   1.00
O176   O     0.80601   0.23771   0.13781   0.00000  Uiso   1.00
O177   O     0.93789   0.34095   0.18056   0.00000  Uiso   1.00
O178   O     0.42119   0.57954   0.62463   0.00000  Uiso   1.00
N179   N     0.74799   0.24317   0.97343   0.00000  Uiso   1.00
N180   N     0.84198   0.31674   0.29128   0.00000  Uiso   1.00
N181   N     0.47379   0.48676   0.60769   0.00000  Uiso   1.00
N182   N     0.81552   0.31754   0.02053   0.00000  Uiso   1.00
N183   N     0.90951   0.39110   0.33838   0.00000  Uiso   1.00
N184   N     0.54132   0.56112   0.65479   0.00000  Uiso   1.00
C185   C     0.81879   0.85585   0.96978   0.00000  Uiso   1.00
C186   C     0.78457   0.84815   0.08000   0.00000  Uiso   1.00
C187   C     0.79069   0.79876   0.14513   0.00000  Uiso   1.00
C188   C     0.75532   0.80032   0.24307   0.00000  Uiso   1.00
C189   C     0.70824   0.78086   0.40937   0.00000  Uiso   1.00
C190   C     0.75822   0.86939   0.89294   0.00000  Uiso   1.00
C191   C     0.74220   0.83786   0.80080   0.00000  Uiso   1.00
C192   C     0.68466   0.85730   0.74127   0.00000  Uiso   1.00
C193   C     0.59671   0.87084   0.61714   0.00000  Uiso   1.00
C194   C     0.86308   0.91210   0.97623   0.00000  Uiso   1.00
C195   C     0.93522   0.91649   0.95408   0.00000  Uiso   1.00
C196   C     0.96596   0.97189   0.96464   0.00000  Uiso   1.00
C197   C     0.04082   0.05174   0.96981   0.00000  Uiso   1.00
C198   C     0.74511   0.94644   0.02789   0.00000  Uiso   1.00
C199   C     0.74454   0.89735   0.11155   0.00000  Uiso   1.00
C200   C     0.70916   0.89899   0.20942   0.00000  Uiso   1.00
C201   C     0.71523   0.84961   0.27469   0.00000  Uiso   1.00
C202   C     0.71820   0.91859   0.92450   0.00000  Uiso   1.00
C203   C     0.66068   0.93808   0.86509   0.00000  Uiso   1.00
C204   C     0.64457   0.90659   0.77289   0.00000  Uiso   1.00
C205   C     0.82306   0.96130   0.00779   0.00000  Uiso   1.00
C206   C     0.85370   0.01671   0.01838   0.00000  Uiso   1.00
C207   C     0.92587   0.02118   0.99626   0.00000  Uiso   1.00
H208   H     0.84995   0.81755   0.94521   0.00000  Uiso   1.00
H209   H     0.82166   0.76069   0.12067   0.00000  Uiso   1.00
H210   H     0.77319   0.79979   0.77639   0.00000  Uiso   1.00
H211   H     0.96617   0.87840   0.92966   0.00000  Uiso   1.00
H212   H     0.77263   0.71935   0.32911   0.00000  Uiso   1.00
H213   H     0.67043   0.80180   0.60316   0.00000  Uiso   1.00
H214   H     0.07739   0.96757   0.92634   0.00000  Uiso   1.00
H215   H     0.71395   0.98475   0.05246   0.00000  Uiso   1.00
H216   H     0.67820   0.93707   0.23382   0.00000  Uiso   1.00
H217   H     0.62972   0.97616   0.88954   0.00000  Uiso   1.00
H218   H     0.82271   0.05477   0.04280   0.00000  Uiso   1.00
H219   H     0.65618   0.86250   0.42094   0.00000  Uiso   1.00
H220   H     0.55399   0.94495   0.69499   0.00000  Uiso   1.00
H221   H     0.96094   0.11072   0.01817   0.00000  Uiso   1.00
O222   O     0.69332   0.75653   0.49238   0.00000  Uiso   1.00
O223   O     0.55926   0.86471   0.53995   0.00000  Uiso   1.00
O224   O     0.09317   0.08219   0.96396   0.00000  Uiso   1.00
N225   N     0.75014   0.75959   0.32584   0.00000  Uiso   1.00
N226   N     0.65459   0.83667   0.64713   0.00000  Uiso   1.00
N227   N     0.03505   0.99165   0.94925   0.00000  Uiso   1.00
N228   N     0.68748   0.83662   0.37526   0.00000  Uiso   1.00
N229   N     0.59193   0.91369   0.69655   0.00000  Uiso   1.00
N230   N     0.97239   0.06868   0.99867   0.00000  Uiso   1.00
C231   C     0.92293   0.17804   0.47174   0.00000  Uiso   1.00
C232   C     0.95523   0.18496   0.58286   0.00000  Uiso   1.00
C233   C     0.94677   0.23338   0.64989   0.00000  Uiso   1.00
C234   C     0.98065   0.23123   0.74838   0.00000  Uiso   1.00
C235   C     0.02462   0.24943   0.91629   0.00000  Uiso   1.00
C236   C     0.98503   0.16660   0.39549   0.00000  Uiso   1.00
C237   C     0.00162   0.19958   0.30498   0.00000  Uiso   1.00
C238   C     0.06058   0.18197   0.24574   0.00000  Uiso   1.00
C239   C     0.15078   0.17163   0.12272   0.00000  Uiso   1.00
C240   C     0.88008   0.12093   0.47504   0.00000  Uiso   1.00
C241   C     0.80843   0.11550   0.45139   0.00000  Uiso   1.00
C242   C     0.77904   0.05943   0.45909   0.00000  Uiso   1.00
C243   C     0.70629   0.97818   0.45959   0.00000  Uiso   1.00
C244   C     0.99814   0.08811   0.52745   0.00000  Uiso   1.00
C245   C     0.99609   0.13612   0.61311   0.00000  Uiso   1.00
C246   C     0.02998   0.13389   0.71153   0.00000  Uiso   1.00
C247   C     0.02157   0.18230   0.77869   0.00000  Uiso   1.00
C248   C     0.02588   0.11776   0.42575   0.00000  Uiso   1.00
C249   C     0.08483   0.10009   0.36662   0.00000  Uiso   1.00
C250   C     0.10150   0.13303   0.27605   0.00000  Uiso   1.00
C251   C     0.92094   0.07208   0.50530   0.00000  Uiso   1.00
C252   C     0.89165   0.01601   0.51303   0.00000  Uiso   1.00
C253   C     0.81997   0.01049   0.48941   0.00000  Uiso   1.00
H254   H     0.89113   0.21607   0.44818   0.00000  Uiso   1.00
H255   H     0.91516   0.27118   0.62644   0.00000  Uiso   1.00
H256   H     0.96999   0.23737   0.28158   0.00000  Uiso   1.00
H257   H     0.77684   0.15331   0.42798   0.00000  Uiso   1.00
H258   H     0.95983   0.31075   0.83741   0.00000  Uiso   1.00
H259   H     0.07543   0.23946   0.11024   0.00000  Uiso   1.00
H260   H     0.66813   0.06219   0.41893   0.00000  Uiso   1.00
H261   H     0.02995   0.05008   0.55100   0.00000  Uiso   1.00
H262   H     0.06159   0.09609   0.73492   0.00000  Uiso   1.00
H263   H     0.11643   0.06229   0.39006   0.00000  Uiso   1.00
H264   H     0.92328   0.97822   0.53645   0.00000  Uiso   1.00
H265   H     0.07869   0.16864   0.92545   0.00000  Uiso   1.00
H266   H     0.19429   0.09735   0.19827   0.00000  Uiso   1.00
H267   H     0.78699   0.92008   0.50697   0.00000  Uiso   1.00
O268   O     0.03759   0.27296   0.00054   0.00000  Uiso   1.00
O269   O     0.18925   0.17943   0.04651   0.00000  Uiso   1.00
O270   O     0.65488   0.94685   0.45151   0.00000  Uiso   1.00
N271   N     0.98345   0.27099   0.83290   0.00000  Uiso   1.00
N272   N     0.09154   0.20434   0.15304   0.00000  Uiso   1.00
N273   N     0.71075   0.03860   0.44162   0.00000  Uiso   1.00
N274   N     0.04741   0.19452   0.88027   0.00000  Uiso   1.00
N275   N     0.15549   0.12787   0.20042   0.00000  Uiso   1.00
N276   N     0.77471   0.96214   0.48899   0.00000  Uiso   1.00
C277   C     0.42853   0.17228   0.87971   0.00000  Uiso   1.00
C278   C     0.46204   0.17943   0.76888   0.00000  Uiso   1.00
C279   C     0.45401   0.22786   0.70190   0.00000  Uiso   1.00
C280   C     0.48902   0.22594   0.60369   0.00000  Uiso   1.00
C281   C     0.53476   0.24446   0.43619   0.00000  Uiso   1.00
C282   C     0.48984   0.16107   0.95644   0.00000  Uiso   1.00
C283   C     0.50518   0.19405   0.04716   0.00000  Uiso   1.00
C284   C     0.56359   0.17666   0.10685   0.00000  Uiso   1.00
C285   C     0.65246   0.16664   0.23059   0.00000  Uiso   1.00
C286   C     0.38610   0.11498   0.87592   0.00000  Uiso   1.00
C287   C     0.31422   0.10921   0.89897   0.00000  Uiso   1.00
C288   C     0.28528   0.05301   0.89089   0.00000  Uiso   1.00
C289   C     0.21308   0.97143   0.88961   0.00000  Uiso   1.00
C290   C     0.50496   0.08274   0.82442   0.00000  Uiso   1.00
C291   C     0.50355   0.13080   0.73886   0.00000  Uiso   1.00
C292   C     0.53857   0.12880   0.64072   0.00000  Uiso   1.00
C293   C     0.53060   0.17722   0.57360   0.00000  Uiso   1.00
C294   C     0.53135   0.11244   0.92641   0.00000  Uiso   1.00
C295   C     0.58974   0.09499   0.98599   0.00000  Uiso   1.00
C296   C     0.60517   0.12794   0.07677   0.00000  Uiso   1.00
C297   C     0.42761   0.06634   0.84589   0.00000  Uiso   1.00
C298   C     0.39878   0.01014   0.83778   0.00000  Uiso   1.00
C299   C     0.32687   0.00428   0.86081   0.00000  Uiso   1.00
H300   H     0.39621   0.21014   0.90310   0.00000  Uiso   1.00
H301   H     0.42189   0.26550   0.72518   0.00000  Uiso   1.00
H302   H     0.47304   0.23168   0.07039   0.00000  Uiso   1.00
H303   H     0.28211   0.14685   0.92221   0.00000  Uiso   1.00
H304   H     0.46868   0.30543   0.51468   0.00000  Uiso   1.00
H305   H     0.57653   0.23412   0.24261   0.00000  Uiso   1.00
H306   H     0.17391   0.05523   0.93014   0.00000  Uiso   1.00
H307   H     0.53728   0.04487   0.80104   0.00000  Uiso   1.00
H308   H     0.57070   0.09116   0.61750   0.00000  Uiso   1.00
H309   H     0.62185   0.05735   0.96272   0.00000  Uiso   1.00
H310   H     0.43092   0.97251   0.81454   0.00000  Uiso   1.00
H311   H     0.58946   0.16393   0.42729   0.00000  Uiso   1.00
H312   H     0.69731   0.09262   0.15522   0.00000  Uiso   1.00
H313   H     0.29470   0.91373   0.84276   0.00000  Uiso   1.00
O314   O     0.54853   0.26812   0.35211   0.00000  Uiso   1.00
O315   O     0.69001   0.17456   0.30713   0.00000  Uiso   1.00
O316   O     0.16179   0.93986   0.89718   0.00000  Uiso   1.00
N317   N     0.49251   0.26577   0.51929   0.00000  Uiso   1.00
N318   N     0.59335   0.19911   0.19985   0.00000  Uiso   1.00
N319   N     0.21694   0.03186   0.90775   0.00000  Uiso   1.00
N320   N     0.55750   0.18963   0.47227   0.00000  Uiso   1.00
N321   N     0.65834   0.12297   0.15283   0.00000  Uiso   1.00
N322   N     0.28193   0.95572   0.86073   0.00000  Uiso   1.00
C323   C     0.31804   0.84235   0.37995   0.00000  Uiso   1.00
C324   C     0.28335   0.83319   0.27104   0.00000  Uiso   1.00
C325   C     0.29179   0.78407   0.20571   0.00000  Uiso   1.00
C326   C     0.25552   0.78412   0.10912   0.00000  Uiso   1.00
C327   C     0.20819   0.76267   0.94461   0.00000  Uiso   1.00
C328   C     0.25743   0.85346   0.45904   0.00000  Uiso   1.00
C329   C     0.24409   0.82138   0.55179   0.00000  Uiso   1.00
C330   C     0.18602   0.83850   0.61345   0.00000  Uiso   1.00
C331   C     0.09848   0.84854   0.74086   0.00000  Uiso   1.00
C332   C     0.35891   0.90031   0.37182   0.00000  Uiso   1.00
C333   C     0.43089   0.90764   0.39126   0.00000  Uiso   1.00
C334   C     0.45825   0.96421   0.37952   0.00000  Uiso   1.00
C335   C     0.52827   0.04700   0.37150   0.00000  Uiso   1.00
C336   C     0.23863   0.92980   0.32457   0.00000  Uiso   1.00
C337   C     0.24021   0.88069   0.24097   0.00000  Uiso   1.00
C338   C     0.20393   0.88082   0.14444   0.00000  Uiso   1.00
C339   C     0.21231   0.83171   0.07898   0.00000  Uiso   1.00
C340   C     0.21430   0.90096   0.42897   0.00000  Uiso   1.00
C341   C     0.15623   0.91813   0.49051   0.00000  Uiso   1.00
C342   C     0.14280   0.88609   0.58332   0.00000  Uiso   1.00
C343   C     0.31578   0.94781   0.34174   0.00000  Uiso   1.00
C344   C     0.34303   0.00439   0.32998   0.00000  Uiso   1.00
C345   C     0.41503   0.01180   0.34939   0.00000  Uiso   1.00
H346   H     0.35162   0.80536   0.40338   0.00000  Uiso   1.00
H347   H     0.32517   0.74731   0.22903   0.00000  Uiso   1.00
H348   H     0.27749   0.78463   0.57505   0.00000  Uiso   1.00
H349   H     0.46425   0.87087   0.41453   0.00000  Uiso   1.00
H350   H     0.27680   0.70389   0.02248   0.00000  Uiso   1.00
H351   H     0.17627   0.78258   0.75210   0.00000  Uiso   1.00
H352   H     0.57011   0.96444   0.41364   0.00000  Uiso   1.00
H353   H     0.20504   0.96678   0.30116   0.00000  Uiso   1.00
H354   H     0.17055   0.91759   0.12119   0.00000  Uiso   1.00
H355   H     0.12287   0.95490   0.46721   0.00000  Uiso   1.00
H356   H     0.30963   0.04114   0.30670   0.00000  Uiso   1.00
H357   H     0.15131   0.84209   0.93496   0.00000  Uiso   1.00
H358   H     0.05078   0.92078   0.66459   0.00000  Uiso   1.00
H359   H     0.44461   0.10263   0.32611   0.00000  Uiso   1.00
O360   O     0.19399   0.73771   0.86219   0.00000  Uiso   1.00
O361   O     0.06211   0.84095   0.81944   0.00000  Uiso   1.00
O362   O     0.57881   0.07954   0.37537   0.00000  Uiso   1.00
N363   N     0.25201   0.74317   0.02657   0.00000  Uiso   1.00
N364   N     0.15802   0.81674   0.70872   0.00000  Uiso   1.00
N365   N     0.52621   0.98676   0.39231   0.00000  Uiso   1.00
N366   N     0.18448   0.81754   0.97947   0.00000  Uiso   1.00
N367   N     0.09049   0.89110   0.66162   0.00000  Uiso   1.00
N368   N     0.45868   0.06112   0.34521   0.00000  Uiso   1.00
