data_job_05956
_audit_creation_date              2018-12-19
_audit_creation_method            'Materials Studio'
_symmetry_space_group_name_H-M    'P1'
_symmetry_Int_Tables_number       1
_symmetry_cell_setting            triclinic
loop_
_symmetry_equiv_pos_as_xyz
  x,y,z
_cell_length_a                    13.9418
_cell_length_b                    18.6478
_cell_length_c                    18.7050
_cell_angle_alpha                 66.1280
_cell_angle_beta                  75.8044
_cell_angle_gamma                 104.1677
loop_
_atom_site_label
_atom_site_type_symbol
_atom_site_fract_x
_atom_site_fract_y
_atom_site_fract_z
_atom_site_U_iso_or_equiv
_atom_site_adp_type
_atom_site_occupancy
C1     C     0.37269   0.80244   0.41128   0.00000  Uiso   1.00
C2     C     0.48431   0.87349   0.36132   0.00000  Uiso   1.00
C3     C     0.55615   0.89314   0.28360   0.00000  Uiso   1.00
C4     C     0.65425   0.96045   0.24824   0.00000  Uiso   1.00
C5     C     0.82374   0.06375   0.16445   0.00000  Uiso   1.00
C6     C     0.37063   0.74689   0.49840   0.00000  Uiso   1.00
C7     C     0.34688   0.66009   0.53593   0.00000  Uiso   1.00
C8     C     0.34928   0.62084   0.61597   0.00000  Uiso   1.00
C9     C     0.34221   0.52758   0.74503   0.00000  Uiso   1.00
C10    C     0.29498   0.84493   0.42581   0.00000  Uiso   1.00
C11    C     0.20760   0.84054   0.40234   0.00000  Uiso   1.00
C12    C     0.14629   0.88381   0.42128   0.00000  Uiso   1.00
C13    C     0.02176   0.94277   0.43763   0.00000  Uiso   1.00
C14    C     0.41915   0.88705   0.48669   0.00000  Uiso   1.00
C15    C     0.50954   0.91944   0.40228   0.00000  Uiso   1.00
C16    C     0.60755   0.98675   0.36703   0.00000  Uiso   1.00
C17    C     0.67953   0.00650   0.28927   0.00000  Uiso   1.00
C18    C     0.39587   0.79284   0.53936   0.00000  Uiso   1.00
C19    C     0.39829   0.75371   0.61936   0.00000  Uiso   1.00
C20    C     0.37456   0.66688   0.65701   0.00000  Uiso   1.00
C21    C     0.32022   0.89088   0.46677   0.00000  Uiso   1.00
C22    C     0.25902   0.93416   0.48576   0.00000  Uiso   1.00
C23    C     0.17157   0.92985   0.46231   0.00000  Uiso   1.00
H24    H     0.35304   0.76666   0.37940   0.00000  Uiso   1.00
H25    H     0.53659   0.85755   0.25193   0.00000  Uiso   1.00
H26    H     0.32735   0.62454   0.50423   0.00000  Uiso   1.00
H27    H     0.18810   0.80497   0.37064   0.00000  Uiso   1.00
H28    H     0.75124   0.97857   0.12868   0.00000  Uiso   1.00
H29    H     0.31000   0.48726   0.66067   0.00000  Uiso   1.00
H30    H     0.01636   0.86772   0.37899   0.00000  Uiso   1.00
H31    H     0.43880   0.92283   0.51858   0.00000  Uiso   1.00
H32    H     0.62706   0.02230   0.39874   0.00000  Uiso   1.00
H33    H     0.41781   0.78929   0.65104   0.00000  Uiso   1.00
H34    H     0.27857   0.96972   0.51746   0.00000  Uiso   1.00
H35    H     0.82467   0.11229   0.24784   0.00000  Uiso   1.00
H36    H     0.38342   0.62097   0.77984   0.00000  Uiso   1.00
H37    H     0.08979   0.00144   0.49815   0.00000  Uiso   1.00
O38    O     0.91026   0.10803   0.10693   0.00000  Uiso   1.00
O39    O     0.33135   0.46344   0.80489   0.00000  Uiso   1.00
O40    O     0.94611   0.96260   0.43532   0.00000  Uiso   1.00
N41    N     0.74267   0.99640   0.17316   0.00000  Uiso   1.00
N42    N     0.33016   0.53705   0.67054   0.00000  Uiso   1.00
N43    N     0.05562   0.89274   0.40721   0.00000  Uiso   1.00
N44    N     0.78218   0.06836   0.23728   0.00000  Uiso   1.00
N45    N     0.36967   0.60901   0.73466   0.00000  Uiso   1.00
N46    N     0.09513   0.96469   0.47133   0.00000  Uiso   1.00
C47    C     0.57256   0.78774   0.80018   0.00000  Uiso   1.00
C48    C     0.61365   0.76690   0.87155   0.00000  Uiso   1.00
C49    C     0.66570   0.82493   0.89188   0.00000  Uiso   1.00
C50    C     0.69703   0.79322   0.95940   0.00000  Uiso   1.00
C51    C     0.76392   0.77405   0.06327   0.00000  Uiso   1.00
C52    C     0.62551   0.75568   0.74461   0.00000  Uiso   1.00
C53    C     0.68751   0.80426   0.65822   0.00000  Uiso   1.00
C54    C     0.72881   0.76311   0.61887   0.00000  Uiso   1.00
C55    C     0.81405   0.72649   0.52566   0.00000  Uiso   1.00
C56    C     0.45324   0.73135   0.84176   0.00000  Uiso   1.00
C57    C     0.37039   0.75948   0.83703   0.00000  Uiso   1.00
C58    C     0.26664   0.69784   0.87947   0.00000  Uiso   1.00
C59    C     0.08441   0.62346   0.93709   0.00000  Uiso   1.00
C60    C     0.53564   0.62826   0.88393   0.00000  Uiso   1.00
C61    C     0.59359   0.68028   0.91704   0.00000  Uiso   1.00
C62    C     0.62485   0.64848   0.98454   0.00000  Uiso   1.00
C63    C     0.67693   0.70645   0.00497   0.00000  Uiso   1.00
C64    C     0.60545   0.66906   0.79010   0.00000  Uiso   1.00
C65    C     0.64666   0.62782   0.75087   0.00000  Uiso   1.00
C66    C     0.70872   0.67633   0.66444   0.00000  Uiso   1.00
C67    C     0.43318   0.64473   0.88725   0.00000  Uiso   1.00
C68    C     0.32954   0.58304   0.92969   0.00000  Uiso   1.00
C69    C     0.24655   0.61106   0.92503   0.00000  Uiso   1.00
H70    H     0.58818   0.85518   0.76476   0.00000  Uiso   1.00
H71    H     0.68121   0.89196   0.85666   0.00000  Uiso   1.00
H72    H     0.70301   0.87129   0.62303   0.00000  Uiso   1.00
H73    H     0.38594   0.82652   0.80183   0.00000  Uiso   1.00
H74    H     0.77555   0.89454   0.97859   0.00000  Uiso   1.00
H75    H     0.82148   0.85096   0.48596   0.00000  Uiso   1.00
H76    H     0.15287   0.75654   0.86298   0.00000  Uiso   1.00
H77    H     0.52002   0.56082   0.91934   0.00000  Uiso   1.00
H78    H     0.60932   0.58144   0.01973   0.00000  Uiso   1.00
H79    H     0.63112   0.56078   0.78609   0.00000  Uiso   1.00
H80    H     0.31405   0.51601   0.96489   0.00000  Uiso   1.00
H81    H     0.71720   0.64251   0.11093   0.00000  Uiso   1.00
H82    H     0.76313   0.59894   0.61830   0.00000  Uiso   1.00
H83    H     0.09453   0.50452   0.99533   0.00000  Uiso   1.00
O84    O     0.80638   0.78741   0.10799   0.00000  Uiso   1.00
O85    O     0.86662   0.73024   0.46168   0.00000  Uiso   1.00
O86    O     0.98943   0.60636   0.95632   0.00000  Uiso   1.00
N87    N     0.74954   0.83239   0.99597   0.00000  Uiso   1.00
N88    N     0.79250   0.79165   0.53540   0.00000  Uiso   1.00
N89    N     0.16741   0.70338   0.88786   0.00000  Uiso   1.00
N90    N     0.71815   0.69678   0.06718   0.00000  Uiso   1.00
N91    N     0.76110   0.65604   0.60661   0.00000  Uiso   1.00
N92    N     0.13602   0.56777   0.95907   0.00000  Uiso   1.00
C93    C     0.78487   0.41356   0.78506   0.00000  Uiso   1.00
C94    C     0.84656   0.36268   0.76425   0.00000  Uiso   1.00
C95    C     0.84129   0.28464   0.82197   0.00000  Uiso   1.00
C96    C     0.90395   0.24843   0.79035   0.00000  Uiso   1.00
C97    C     0.98981   0.16330   0.77117   0.00000  Uiso   1.00
C98    C     0.86913   0.50075   0.75389   0.00000  Uiso   1.00
C99    C     0.88282   0.53880   0.80289   0.00000  Uiso   1.00
C100   C     0.96447   0.61882   0.76255   0.00000  Uiso   1.00
C101   C     0.08531   0.74808   0.72726   0.00000  Uiso   1.00
C102   C     0.72162   0.42827   0.72822   0.00000  Uiso   1.00
C103   C     0.61128   0.40540   0.75564   0.00000  Uiso   1.00
C104   C     0.56875   0.42442   0.69369   0.00000  Uiso   1.00
C105   C     0.46056   0.44114   0.61855   0.00000  Uiso   1.00
C106   C     0.90553   0.48802   0.62627   0.00000  Uiso   1.00
C107   C     0.91210   0.40313   0.67800   0.00000  Uiso   1.00
C108   C     0.97478   0.36702   0.64628   0.00000  Uiso   1.00
C109   C     0.96960   0.28894   0.70395   0.00000  Uiso   1.00
C110   C     0.93467   0.54120   0.66764   0.00000  Uiso   1.00
C111   C     0.01631   0.62119   0.62721   0.00000  Uiso   1.00
C112   C     0.03013   0.65934   0.67614   0.00000  Uiso   1.00
C113   C     0.78716   0.46872   0.64197   0.00000  Uiso   1.00
C114   C     0.74478   0.48778   0.57996   0.00000  Uiso   1.00
C115   C     0.63440   0.46494   0.60728   0.00000  Uiso   1.00
H116   H     0.73385   0.38208   0.85220   0.00000  Uiso   1.00
H117   H     0.79057   0.25337   0.88871   0.00000  Uiso   1.00
H118   H     0.83208   0.50749   0.86963   0.00000  Uiso   1.00
H119   H     0.56059   0.37411   0.82239   0.00000  Uiso   1.00
H120   H     0.88238   0.12852   0.89115   0.00000  Uiso   1.00
H121   H     0.96989   0.66437   0.85093   0.00000  Uiso   1.00
H122   H     0.39740   0.38310   0.75130   0.00000  Uiso   1.00
H123   H     0.95656   0.51951   0.55912   0.00000  Uiso   1.00
H124   H     0.02549   0.39834   0.57954   0.00000  Uiso   1.00
H125   H     0.06701   0.65247   0.56046   0.00000  Uiso   1.00
H126   H     0.79552   0.51908   0.51322   0.00000  Uiso   1.00
H127   H     0.07306   0.24618   0.64022   0.00000  Uiso   1.00
H128   H     0.16057   0.78204   0.59999   0.00000  Uiso   1.00
H129   H     0.58808   0.50077   0.50037   0.00000  Uiso   1.00
O130   O     0.01908   0.10518   0.78441   0.00000  Uiso   1.00
O131   O     0.13387   0.80819   0.73163   0.00000  Uiso   1.00
O132   O     0.38279   0.43918   0.60093   0.00000  Uiso   1.00
N133   N     0.91778   0.17283   0.82929   0.00000  Uiso   1.00
N134   N     0.99961   0.67381   0.79168   0.00000  Uiso   1.00
N135   N     0.46438   0.41088   0.69854   0.00000  Uiso   1.00
N136   N     0.02038   0.23615   0.69426   0.00000  Uiso   1.00
N137   N     0.10221   0.73713   0.65666   0.00000  Uiso   1.00
N138   N     0.56698   0.47419   0.56352   0.00000  Uiso   1.00
C139   C     0.62731   0.19756   0.58872   0.00000  Uiso   1.00
C140   C     0.51569   0.12651   0.63868   0.00000  Uiso   1.00
C141   C     0.44385   0.10686   0.71640   0.00000  Uiso   1.00
C142   C     0.34575   0.03954   0.75176   0.00000  Uiso   1.00
C143   C     0.17626   0.93625   0.83555   0.00000  Uiso   1.00
C144   C     0.62937   0.25311   0.50160   0.00000  Uiso   1.00
C145   C     0.65312   0.33991   0.46407   0.00000  Uiso   1.00
C146   C     0.65072   0.37916   0.38403   0.00000  Uiso   1.00
C147   C     0.65779   0.47242   0.25497   0.00000  Uiso   1.00
C148   C     0.70502   0.15507   0.57419   0.00000  Uiso   1.00
C149   C     0.79240   0.15946   0.59766   0.00000  Uiso   1.00
C150   C     0.85371   0.11619   0.57872   0.00000  Uiso   1.00
C151   C     0.97824   0.05723   0.56237   0.00000  Uiso   1.00
C152   C     0.58085   0.11295   0.51331   0.00000  Uiso   1.00
C153   C     0.49046   0.08056   0.59772   0.00000  Uiso   1.00
C154   C     0.39245   0.01325   0.63297   0.00000  Uiso   1.00
C155   C     0.32047   0.99350   0.71073   0.00000  Uiso   1.00
C156   C     0.60413   0.20716   0.46064   0.00000  Uiso   1.00
C157   C     0.60171   0.24629   0.38064   0.00000  Uiso   1.00
C158   C     0.62544   0.33312   0.34299   0.00000  Uiso   1.00
C159   C     0.67978   0.10911   0.53323   0.00000  Uiso   1.00
C160   C     0.74098   0.06584   0.51424   0.00000  Uiso   1.00
C161   C     0.82843   0.07015   0.53769   0.00000  Uiso   1.00
H162   H     0.64696   0.23334   0.62060   0.00000  Uiso   1.00
H163   H     0.46341   0.14245   0.74807   0.00000  Uiso   1.00
H164   H     0.67265   0.37545   0.49577   0.00000  Uiso   1.00
H165   H     0.81190   0.19503   0.62936   0.00000  Uiso   1.00
H166   H     0.24876   0.02143   0.87132   0.00000  Uiso   1.00
H167   H     0.69000   0.51274   0.33933   0.00000  Uiso   1.00
H168   H     0.98364   0.13228   0.62101   0.00000  Uiso   1.00
H169   H     0.56120   0.07717   0.48142   0.00000  Uiso   1.00
H170   H     0.37294   0.97770   0.60126   0.00000  Uiso   1.00
H171   H     0.58219   0.21071   0.34896   0.00000  Uiso   1.00
H172   H     0.72143   0.03028   0.48254   0.00000  Uiso   1.00
H173   H     0.17533   0.88771   0.75216   0.00000  Uiso   1.00
H174   H     0.61658   0.37903   0.22016   0.00000  Uiso   1.00
H175   H     0.91021   0.99856   0.50185   0.00000  Uiso   1.00
O176   O     0.08974   0.89197   0.89307   0.00000  Uiso   1.00
O177   O     0.66865   0.53656   0.19511   0.00000  Uiso   1.00
O178   O     0.05389   0.03740   0.56468   0.00000  Uiso   1.00
N179   N     0.25733   0.00360   0.82684   0.00000  Uiso   1.00
N180   N     0.66984   0.46295   0.32946   0.00000  Uiso   1.00
N181   N     0.94438   0.10726   0.59279   0.00000  Uiso   1.00
N182   N     0.21782   0.93164   0.76272   0.00000  Uiso   1.00
N183   N     0.63033   0.39099   0.26534   0.00000  Uiso   1.00
N184   N     0.90487   0.03531   0.52867   0.00000  Uiso   1.00
C185   C     0.42744   0.21226   0.19982   0.00000  Uiso   1.00
C186   C     0.38635   0.23309   0.12845   0.00000  Uiso   1.00
C187   C     0.33430   0.17507   0.10812   0.00000  Uiso   1.00
C188   C     0.30297   0.20677   0.04060   0.00000  Uiso   1.00
C189   C     0.23608   0.22595   0.93673   0.00000  Uiso   1.00
C190   C     0.37449   0.24432   0.25538   0.00000  Uiso   1.00
C191   C     0.31249   0.19574   0.34178   0.00000  Uiso   1.00
C192   C     0.27119   0.23689   0.38113   0.00000  Uiso   1.00
C193   C     0.18595   0.27351   0.47434   0.00000  Uiso   1.00
C194   C     0.54676   0.26864   0.15824   0.00000  Uiso   1.00
C195   C     0.62961   0.24052   0.16297   0.00000  Uiso   1.00
C196   C     0.73336   0.30216   0.12053   0.00000  Uiso   1.00
C197   C     0.91559   0.37654   0.06291   0.00000  Uiso   1.00
C198   C     0.46436   0.37174   0.11607   0.00000  Uiso   1.00
C199   C     0.40641   0.31972   0.08296   0.00000  Uiso   1.00
C200   C     0.37515   0.35152   0.01546   0.00000  Uiso   1.00
C201   C     0.32307   0.29355   0.99503   0.00000  Uiso   1.00
C202   C     0.39455   0.33094   0.20990   0.00000  Uiso   1.00
C203   C     0.35334   0.37218   0.24913   0.00000  Uiso   1.00
C204   C     0.29128   0.32367   0.33556   0.00000  Uiso   1.00
C205   C     0.56682   0.35527   0.11275   0.00000  Uiso   1.00
C206   C     0.67046   0.41696   0.07031   0.00000  Uiso   1.00
C207   C     0.75345   0.38894   0.07497   0.00000  Uiso   1.00
H208   H     0.41182   0.14482   0.23524   0.00000  Uiso   1.00
H209   H     0.31879   0.10804   0.14334   0.00000  Uiso   1.00
H210   H     0.29699   0.12871   0.37697   0.00000  Uiso   1.00
H211   H     0.61406   0.17348   0.19817   0.00000  Uiso   1.00
H212   H     0.22445   0.10546   0.02141   0.00000  Uiso   1.00
H213   H     0.17852   0.14904   0.51404   0.00000  Uiso   1.00
H214   H     0.84713   0.24346   0.13702   0.00000  Uiso   1.00
H215   H     0.47998   0.43918   0.08066   0.00000  Uiso   1.00
H216   H     0.39068   0.41855   0.98027   0.00000  Uiso   1.00
H217   H     0.36888   0.43922   0.21391   0.00000  Uiso   1.00
H218   H     0.68595   0.48399   0.03511   0.00000  Uiso   1.00
H219   H     0.28280   0.35748   0.88907   0.00000  Uiso   1.00
H220   H     0.23687   0.40106   0.38170   0.00000  Uiso   1.00
H221   H     0.90547   0.49548   0.00467   0.00000  Uiso   1.00
O222   O     0.19362   0.21259   0.89201   0.00000  Uiso   1.00
O223   O     0.13338   0.26976   0.53832   0.00000  Uiso   1.00
O224   O     0.01057   0.39364   0.04368   0.00000  Uiso   1.00
N225   N     0.25046   0.16761   0.00403   0.00000  Uiso   1.00
N226   N     0.20750   0.20835   0.46460   0.00000  Uiso   1.00
N227   N     0.83259   0.29662   0.11214   0.00000  Uiso   1.00
N228   N     0.28185   0.30322   0.93282   0.00000  Uiso   1.00
N229   N     0.23890   0.34396   0.39339   0.00000  Uiso   1.00
N230   N     0.86398   0.43223   0.04093   0.00000  Uiso   1.00
C231   C     0.21513   0.58644   0.21494   0.00000  Uiso   1.00
C232   C     0.15344   0.63732   0.23575   0.00000  Uiso   1.00
C233   C     0.15871   0.71536   0.17803   0.00000  Uiso   1.00
C234   C     0.09605   0.75157   0.20965   0.00000  Uiso   1.00
C235   C     0.01019   0.83670   0.22883   0.00000  Uiso   1.00
C236   C     0.13087   0.49925   0.24611   0.00000  Uiso   1.00
C237   C     0.11718   0.46120   0.19711   0.00000  Uiso   1.00
C238   C     0.03553   0.38118   0.23745   0.00000  Uiso   1.00
C239   C     0.91469   0.25192   0.27274   0.00000  Uiso   1.00
C240   C     0.27838   0.57173   0.27178   0.00000  Uiso   1.00
C241   C     0.38872   0.59460   0.24436   0.00000  Uiso   1.00
C242   C     0.43125   0.57558   0.30631   0.00000  Uiso   1.00
C243   C     0.53944   0.55886   0.38145   0.00000  Uiso   1.00
C244   C     0.09447   0.51198   0.37373   0.00000  Uiso   1.00
C245   C     0.08790   0.59687   0.32200   0.00000  Uiso   1.00
C246   C     0.02522   0.63298   0.35372   0.00000  Uiso   1.00
C247   C     0.03040   0.71106   0.29605   0.00000  Uiso   1.00
C248   C     0.06533   0.45880   0.33236   0.00000  Uiso   1.00
C249   C     0.98369   0.37881   0.37279   0.00000  Uiso   1.00
C250   C     0.96987   0.34066   0.32386   0.00000  Uiso   1.00
C251   C     0.21284   0.53128   0.35803   0.00000  Uiso   1.00
C252   C     0.25522   0.51222   0.42004   0.00000  Uiso   1.00
C253   C     0.36560   0.53506   0.39272   0.00000  Uiso   1.00
H254   H     0.26615   0.61792   0.14780   0.00000  Uiso   1.00
H255   H     0.20943   0.74663   0.11129   0.00000  Uiso   1.00
H256   H     0.16792   0.49251   0.13037   0.00000  Uiso   1.00
H257   H     0.43941   0.62589   0.17761   0.00000  Uiso   1.00
H258   H     0.11762   0.87148   0.10885   0.00000  Uiso   1.00
H259   H     0.03011   0.33563   0.14908   0.00000  Uiso   1.00
H260   H     0.60260   0.61690   0.24870   0.00000  Uiso   1.00
H261   H     0.04344   0.48049   0.44088   0.00000  Uiso   1.00
H262   H     0.97451   0.60166   0.42046   0.00000  Uiso   1.00
H263   H     0.93299   0.34753   0.43954   0.00000  Uiso   1.00
H264   H     0.20448   0.48092   0.48678   0.00000  Uiso   1.00
H265   H     0.92694   0.75381   0.35978   0.00000  Uiso   1.00
H266   H     0.83943   0.21796   0.40001   0.00000  Uiso   1.00
H267   H     0.41192   0.49923   0.49963   0.00000  Uiso   1.00
O268   O     0.98092   0.89482   0.21559   0.00000  Uiso   1.00
O269   O     0.86613   0.19181   0.26837   0.00000  Uiso   1.00
O270   O     0.61721   0.56082   0.39907   0.00000  Uiso   1.00
N271   N     0.08222   0.82717   0.17071   0.00000  Uiso   1.00
N272   N     0.00039   0.32619   0.20832   0.00000  Uiso   1.00
N273   N     0.53562   0.58912   0.30146   0.00000  Uiso   1.00
N274   N     0.97962   0.76385   0.30574   0.00000  Uiso   1.00
N275   N     0.89779   0.26287   0.34334   0.00000  Uiso   1.00
N276   N     0.43302   0.52581   0.43648   0.00000  Uiso   1.00
