data_job_02746
_audit_creation_date              2018-12-19
_audit_creation_method            'Materials Studio'
_symmetry_space_group_name_H-M    'P1'
_symmetry_Int_Tables_number       1
_symmetry_cell_setting            triclinic
loop_
_symmetry_equiv_pos_as_xyz
  x,y,z
_cell_length_a                    34.6848
_cell_length_b                    11.6271
_cell_length_c                    28.6631
_cell_angle_alpha                 90.0000
_cell_angle_beta                  144.9289
_cell_angle_gamma                 90.0000
loop_
_atom_site_label
_atom_site_type_symbol
_atom_site_fract_x
_atom_site_fract_y
_atom_site_fract_z
_atom_site_U_iso_or_equiv
_atom_site_adp_type
_atom_site_occupancy
C1     C     0.66188   0.93454   0.76142   0.00000  Uiso   1.00
C2     C     0.64768   0.05974   0.75976   0.00000  Uiso   1.00
C3     C     0.60060   0.12999   0.69167   0.00000  Uiso   1.00
C4     C     0.59525   0.24197   0.70278   0.00000  Uiso   1.00
C5     C     0.56710   0.43028   0.68857   0.00000  Uiso   1.00
C6     C     0.73658   0.92822   0.82419   0.00000  Uiso   1.00
C7     C     0.76425   0.88788   0.81028   0.00000  Uiso   1.00
C8     C     0.83373   0.88913   0.87562   0.00000  Uiso   1.00
C9     C     0.94360   0.87319   0.96146   0.00000  Uiso   1.00
C10    C     0.65223   0.86632   0.79681   0.00000  Uiso   1.00
C11    C     0.60898   0.77391   0.75988   0.00000  Uiso   1.00
C12    C     0.60746   0.72303   0.80218   0.00000  Uiso   1.00
C13    C     0.58636   0.61097   0.84550   0.00000  Uiso   1.00
C14    C     0.73609   0.00848   0.90222   0.00000  Uiso   1.00
C15    C     0.68800   0.09990   0.83624   0.00000  Uiso   1.00
C16    C     0.68271   0.21180   0.84745   0.00000  Uiso   1.00
C17    C     0.63563   0.28220   0.77939   0.00000  Uiso   1.00
C18    C     0.77689   0.96838   0.90066   0.00000  Uiso   1.00
C19    C     0.84635   0.96969   0.96605   0.00000  Uiso   1.00
C20    C     0.87411   0.92937   0.95224   0.00000  Uiso   1.00
C21    C     0.69254   0.90648   0.87328   0.00000  Uiso   1.00
C22    C     0.69109   0.85573   0.91565   0.00000  Uiso   1.00
C23    C     0.64784   0.76326   0.87880   0.00000  Uiso   1.00
H24    H     0.63050   0.90327   0.70189   0.00000  Uiso   1.00
H25    H     0.56942   0.09888   0.63250   0.00000  Uiso   1.00
H26    H     0.73304   0.85680   0.75109   0.00000  Uiso   1.00
H27    H     0.57780   0.74285   0.70070   0.00000  Uiso   1.00
H28    H     0.51950   0.33348   0.58931   0.00000  Uiso   1.00
H29    H     0.86450   0.82300   0.83936   0.00000  Uiso   1.00
H30    H     0.53714   0.58272   0.73311   0.00000  Uiso   1.00
H31    H     0.76748   0.03975   0.96176   0.00000  Uiso   1.00
H32    H     0.71391   0.24286   0.90663   0.00000  Uiso   1.00
H33    H     0.87753   0.00077   0.02522   0.00000  Uiso   1.00
H34    H     0.72229   0.88683   0.97483   0.00000  Uiso   1.00
H35    H     0.63677   0.45034   0.81180   0.00000  Uiso   1.00
H36    H     0.98177   0.93985   0.06186   0.00000  Uiso   1.00
H37    H     0.65441   0.69957   0.95560   0.00000  Uiso   1.00
O38    O     0.54045   0.52307   0.65961   0.00000  Uiso   1.00
O39    O     0.99307   0.85331   0.98767   0.00000  Uiso   1.00
O40    O     0.56358   0.53808   0.84826   0.00000  Uiso   1.00
N41    N     0.55444   0.33310   0.64923   0.00000  Uiso   1.00
N42    N     0.87699   0.85585   0.88302   0.00000  Uiso   1.00
N43    N     0.57096   0.63119   0.78369   0.00000  Uiso   1.00
N44    N     0.61755   0.39598   0.76896   0.00000  Uiso   1.00
N45    N     0.94010   0.91873   0.00274   0.00000  Uiso   1.00
N46    N     0.63406   0.69406   0.90341   0.00000  Uiso   1.00
C47    C     0.16188   0.43454   0.76142   0.00000  Uiso   1.00
C48    C     0.14768   0.55974   0.75976   0.00000  Uiso   1.00
C49    C     0.10060   0.62999   0.69167   0.00000  Uiso   1.00
C50    C     0.09525   0.74197   0.70278   0.00000  Uiso   1.00
C51    C     0.06710   0.93028   0.68857   0.00000  Uiso   1.00
C52    C     0.23658   0.42822   0.82419   0.00000  Uiso   1.00
C53    C     0.26425   0.38788   0.81028   0.00000  Uiso   1.00
C54    C     0.33373   0.38913   0.87562   0.00000  Uiso   1.00
C55    C     0.44360   0.37319   0.96146   0.00000  Uiso   1.00
C56    C     0.15223   0.36632   0.79681   0.00000  Uiso   1.00
C57    C     0.10898   0.27391   0.75988   0.00000  Uiso   1.00
C58    C     0.10746   0.22303   0.80218   0.00000  Uiso   1.00
C59    C     0.08636   0.11097   0.84550   0.00000  Uiso   1.00
C60    C     0.23609   0.50848   0.90222   0.00000  Uiso   1.00
C61    C     0.18800   0.59990   0.83624   0.00000  Uiso   1.00
C62    C     0.18271   0.71180   0.84745   0.00000  Uiso   1.00
C63    C     0.13563   0.78220   0.77939   0.00000  Uiso   1.00
C64    C     0.27689   0.46838   0.90066   0.00000  Uiso   1.00
C65    C     0.34635   0.46969   0.96605   0.00000  Uiso   1.00
C66    C     0.37411   0.42937   0.95224   0.00000  Uiso   1.00
C67    C     0.19254   0.40648   0.87328   0.00000  Uiso   1.00
C68    C     0.19109   0.35573   0.91565   0.00000  Uiso   1.00
C69    C     0.14784   0.26326   0.87880   0.00000  Uiso   1.00
H70    H     0.13050   0.40327   0.70189   0.00000  Uiso   1.00
H71    H     0.06942   0.59888   0.63250   0.00000  Uiso   1.00
H72    H     0.23304   0.35680   0.75109   0.00000  Uiso   1.00
H73    H     0.07780   0.24285   0.70070   0.00000  Uiso   1.00
H74    H     0.01950   0.83348   0.58931   0.00000  Uiso   1.00
H75    H     0.36450   0.32300   0.83936   0.00000  Uiso   1.00
H76    H     0.03714   0.08272   0.73311   0.00000  Uiso   1.00
H77    H     0.26748   0.53975   0.96176   0.00000  Uiso   1.00
H78    H     0.21391   0.74286   0.90663   0.00000  Uiso   1.00
H79    H     0.37753   0.50077   0.02522   0.00000  Uiso   1.00
H80    H     0.22229   0.38683   0.97483   0.00000  Uiso   1.00
H81    H     0.13677   0.95034   0.81180   0.00000  Uiso   1.00
H82    H     0.48177   0.43985   0.06186   0.00000  Uiso   1.00
H83    H     0.15441   0.19957   0.95560   0.00000  Uiso   1.00
O84    O     0.04045   0.02307   0.65961   0.00000  Uiso   1.00
O85    O     0.49307   0.35331   0.98767   0.00000  Uiso   1.00
O86    O     0.06358   0.03808   0.84826   0.00000  Uiso   1.00
N87    N     0.05444   0.83310   0.64923   0.00000  Uiso   1.00
N88    N     0.37699   0.35585   0.88302   0.00000  Uiso   1.00
N89    N     0.07096   0.13119   0.78369   0.00000  Uiso   1.00
N90    N     0.11755   0.89598   0.76896   0.00000  Uiso   1.00
N91    N     0.44010   0.41873   0.00274   0.00000  Uiso   1.00
N92    N     0.13406   0.19406   0.90341   0.00000  Uiso   1.00
C93    C     0.33812   0.93454   0.73858   0.00000  Uiso   1.00
C94    C     0.35232   0.05974   0.74024   0.00000  Uiso   1.00
C95    C     0.39940   0.12999   0.80833   0.00000  Uiso   1.00
C96    C     0.40475   0.24197   0.79722   0.00000  Uiso   1.00
C97    C     0.43290   0.43028   0.81143   0.00000  Uiso   1.00
C98    C     0.26342   0.92822   0.67581   0.00000  Uiso   1.00
C99    C     0.23575   0.88788   0.68972   0.00000  Uiso   1.00
C100   C     0.16627   0.88913   0.62438   0.00000  Uiso   1.00
C101   C     0.05640   0.87319   0.53854   0.00000  Uiso   1.00
C102   C     0.34777   0.86632   0.70319   0.00000  Uiso   1.00
C103   C     0.39102   0.77391   0.74012   0.00000  Uiso   1.00
C104   C     0.39254   0.72303   0.69782   0.00000  Uiso   1.00
C105   C     0.41364   0.61097   0.65450   0.00000  Uiso   1.00
C106   C     0.26391   0.00848   0.59778   0.00000  Uiso   1.00
C107   C     0.31200   0.09990   0.66376   0.00000  Uiso   1.00
C108   C     0.31729   0.21180   0.65255   0.00000  Uiso   1.00
C109   C     0.36437   0.28220   0.72061   0.00000  Uiso   1.00
C110   C     0.22311   0.96838   0.59934   0.00000  Uiso   1.00
C111   C     0.15365   0.96969   0.53395   0.00000  Uiso   1.00
C112   C     0.12589   0.92937   0.54776   0.00000  Uiso   1.00
C113   C     0.30746   0.90648   0.62672   0.00000  Uiso   1.00
C114   C     0.30891   0.85573   0.58435   0.00000  Uiso   1.00
C115   C     0.35216   0.76326   0.62120   0.00000  Uiso   1.00
H116   H     0.36950   0.90327   0.79811   0.00000  Uiso   1.00
H117   H     0.43058   0.09888   0.86750   0.00000  Uiso   1.00
H118   H     0.26696   0.85680   0.74891   0.00000  Uiso   1.00
H119   H     0.42220   0.74285   0.79930   0.00000  Uiso   1.00
H120   H     0.48050   0.33348   0.91069   0.00000  Uiso   1.00
H121   H     0.13550   0.82300   0.66064   0.00000  Uiso   1.00
H122   H     0.46286   0.58272   0.76689   0.00000  Uiso   1.00
H123   H     0.23252   0.03975   0.53824   0.00000  Uiso   1.00
H124   H     0.28609   0.24286   0.59337   0.00000  Uiso   1.00
H125   H     0.12247   0.00077   0.47478   0.00000  Uiso   1.00
H126   H     0.27771   0.88683   0.52517   0.00000  Uiso   1.00
H127   H     0.36323   0.45034   0.68820   0.00000  Uiso   1.00
H128   H     0.01823   0.93985   0.43814   0.00000  Uiso   1.00
H129   H     0.34559   0.69957   0.54440   0.00000  Uiso   1.00
O130   O     0.45955   0.52307   0.84039   0.00000  Uiso   1.00
O131   O     0.00693   0.85331   0.51233   0.00000  Uiso   1.00
O132   O     0.43642   0.53808   0.65174   0.00000  Uiso   1.00
N133   N     0.44556   0.33310   0.85077   0.00000  Uiso   1.00
N134   N     0.12301   0.85585   0.61698   0.00000  Uiso   1.00
N135   N     0.42904   0.63119   0.71631   0.00000  Uiso   1.00
N136   N     0.38245   0.39598   0.73104   0.00000  Uiso   1.00
N137   N     0.05990   0.91873   0.49726   0.00000  Uiso   1.00
N138   N     0.36594   0.69406   0.59659   0.00000  Uiso   1.00
C139   C     0.83812   0.43454   0.73858   0.00000  Uiso   1.00
C140   C     0.85232   0.55974   0.74024   0.00000  Uiso   1.00
C141   C     0.89940   0.62999   0.80833   0.00000  Uiso   1.00
C142   C     0.90475   0.74197   0.79722   0.00000  Uiso   1.00
C143   C     0.93290   0.93028   0.81143   0.00000  Uiso   1.00
C144   C     0.76342   0.42822   0.67581   0.00000  Uiso   1.00
C145   C     0.73575   0.38788   0.68972   0.00000  Uiso   1.00
C146   C     0.66627   0.38913   0.62438   0.00000  Uiso   1.00
C147   C     0.55640   0.37319   0.53854   0.00000  Uiso   1.00
C148   C     0.84777   0.36632   0.70319   0.00000  Uiso   1.00
C149   C     0.89102   0.27391   0.74012   0.00000  Uiso   1.00
C150   C     0.89254   0.22303   0.69782   0.00000  Uiso   1.00
C151   C     0.91364   0.11097   0.65450   0.00000  Uiso   1.00
C152   C     0.76391   0.50848   0.59778   0.00000  Uiso   1.00
C153   C     0.81200   0.59990   0.66376   0.00000  Uiso   1.00
C154   C     0.81729   0.71180   0.65255   0.00000  Uiso   1.00
C155   C     0.86437   0.78220   0.72061   0.00000  Uiso   1.00
C156   C     0.72311   0.46838   0.59934   0.00000  Uiso   1.00
C157   C     0.65365   0.46969   0.53395   0.00000  Uiso   1.00
C158   C     0.62589   0.42937   0.54776   0.00000  Uiso   1.00
C159   C     0.80746   0.40648   0.62672   0.00000  Uiso   1.00
C160   C     0.80891   0.35573   0.58435   0.00000  Uiso   1.00
C161   C     0.85216   0.26326   0.62120   0.00000  Uiso   1.00
H162   H     0.86950   0.40327   0.79811   0.00000  Uiso   1.00
H163   H     0.93058   0.59888   0.86750   0.00000  Uiso   1.00
H164   H     0.76696   0.35680   0.74891   0.00000  Uiso   1.00
H165   H     0.92220   0.24285   0.79930   0.00000  Uiso   1.00
H166   H     0.98050   0.83348   0.91069   0.00000  Uiso   1.00
H167   H     0.63550   0.32300   0.66064   0.00000  Uiso   1.00
H168   H     0.96286   0.08272   0.76689   0.00000  Uiso   1.00
H169   H     0.73252   0.53975   0.53824   0.00000  Uiso   1.00
H170   H     0.78609   0.74286   0.59337   0.00000  Uiso   1.00
H171   H     0.62247   0.50077   0.47478   0.00000  Uiso   1.00
H172   H     0.77771   0.38683   0.52517   0.00000  Uiso   1.00
H173   H     0.86323   0.95034   0.68820   0.00000  Uiso   1.00
H174   H     0.51823   0.43985   0.43814   0.00000  Uiso   1.00
H175   H     0.84559   0.19957   0.54440   0.00000  Uiso   1.00
O176   O     0.95955   0.02307   0.84039   0.00000  Uiso   1.00
O177   O     0.50693   0.35331   0.51233   0.00000  Uiso   1.00
O178   O     0.93642   0.03808   0.65174   0.00000  Uiso   1.00
N179   N     0.94556   0.83310   0.85077   0.00000  Uiso   1.00
N180   N     0.62301   0.35585   0.61698   0.00000  Uiso   1.00
N181   N     0.92904   0.13119   0.71631   0.00000  Uiso   1.00
N182   N     0.88245   0.89598   0.73104   0.00000  Uiso   1.00
N183   N     0.55990   0.41873   0.49726   0.00000  Uiso   1.00
N184   N     0.86594   0.19406   0.59659   0.00000  Uiso   1.00
C185   C     0.33812   0.06546   0.23858   0.00000  Uiso   1.00
C186   C     0.35232   0.94026   0.24024   0.00000  Uiso   1.00
C187   C     0.39940   0.87001   0.30833   0.00000  Uiso   1.00
C188   C     0.40475   0.75803   0.29722   0.00000  Uiso   1.00
C189   C     0.43290   0.56972   0.31143   0.00000  Uiso   1.00
C190   C     0.26342   0.07178   0.17581   0.00000  Uiso   1.00
C191   C     0.23575   0.11212   0.18972   0.00000  Uiso   1.00
C192   C     0.16627   0.11087   0.12438   0.00000  Uiso   1.00
C193   C     0.05640   0.12681   0.03854   0.00000  Uiso   1.00
C194   C     0.34777   0.13368   0.20319   0.00000  Uiso   1.00
C195   C     0.39102   0.22609   0.24012   0.00000  Uiso   1.00
C196   C     0.39254   0.27697   0.19782   0.00000  Uiso   1.00
C197   C     0.41364   0.38903   0.15450   0.00000  Uiso   1.00
C198   C     0.26391   0.99152   0.09778   0.00000  Uiso   1.00
C199   C     0.31200   0.90010   0.16376   0.00000  Uiso   1.00
C200   C     0.31729   0.78820   0.15255   0.00000  Uiso   1.00
C201   C     0.36437   0.71780   0.22061   0.00000  Uiso   1.00
C202   C     0.22311   0.03162   0.09934   0.00000  Uiso   1.00
C203   C     0.15365   0.03031   0.03395   0.00000  Uiso   1.00
C204   C     0.12589   0.07063   0.04776   0.00000  Uiso   1.00
C205   C     0.30746   0.09352   0.12672   0.00000  Uiso   1.00
C206   C     0.30891   0.14427   0.08435   0.00000  Uiso   1.00
C207   C     0.35216   0.23674   0.12120   0.00000  Uiso   1.00
H208   H     0.36950   0.09673   0.29811   0.00000  Uiso   1.00
H209   H     0.43058   0.90112   0.36750   0.00000  Uiso   1.00
H210   H     0.26696   0.14320   0.24891   0.00000  Uiso   1.00
H211   H     0.42220   0.25715   0.29930   0.00000  Uiso   1.00
H212   H     0.48050   0.66652   0.41069   0.00000  Uiso   1.00
H213   H     0.13550   0.17700   0.16064   0.00000  Uiso   1.00
H214   H     0.46286   0.41728   0.26689   0.00000  Uiso   1.00
H215   H     0.23252   0.96025   0.03824   0.00000  Uiso   1.00
H216   H     0.28609   0.75715   0.09337   0.00000  Uiso   1.00
H217   H     0.12247   0.99923   0.97478   0.00000  Uiso   1.00
H218   H     0.27771   0.11317   0.02517   0.00000  Uiso   1.00
H219   H     0.36323   0.54966   0.18820   0.00000  Uiso   1.00
H220   H     0.01823   0.06015   0.93814   0.00000  Uiso   1.00
H221   H     0.34559   0.30043   0.04440   0.00000  Uiso   1.00
O222   O     0.45955   0.47693   0.34039   0.00000  Uiso   1.00
O223   O     0.00693   0.14669   0.01233   0.00000  Uiso   1.00
O224   O     0.43642   0.46192   0.15174   0.00000  Uiso   1.00
N225   N     0.44556   0.66690   0.35077   0.00000  Uiso   1.00
N226   N     0.12301   0.14415   0.11698   0.00000  Uiso   1.00
N227   N     0.42904   0.36881   0.21631   0.00000  Uiso   1.00
N228   N     0.38245   0.60402   0.23104   0.00000  Uiso   1.00
N229   N     0.05990   0.08127   0.99726   0.00000  Uiso   1.00
N230   N     0.36594   0.30594   0.09659   0.00000  Uiso   1.00
C231   C     0.83812   0.56546   0.23858   0.00000  Uiso   1.00
C232   C     0.85232   0.44026   0.24024   0.00000  Uiso   1.00
C233   C     0.89940   0.37001   0.30833   0.00000  Uiso   1.00
C234   C     0.90475   0.25803   0.29722   0.00000  Uiso   1.00
C235   C     0.93290   0.06972   0.31143   0.00000  Uiso   1.00
C236   C     0.76342   0.57178   0.17581   0.00000  Uiso   1.00
C237   C     0.73575   0.61212   0.18972   0.00000  Uiso   1.00
C238   C     0.66627   0.61087   0.12438   0.00000  Uiso   1.00
C239   C     0.55640   0.62681   0.03854   0.00000  Uiso   1.00
C240   C     0.84777   0.63368   0.20319   0.00000  Uiso   1.00
C241   C     0.89102   0.72609   0.24012   0.00000  Uiso   1.00
C242   C     0.89254   0.77697   0.19782   0.00000  Uiso   1.00
C243   C     0.91364   0.88903   0.15450   0.00000  Uiso   1.00
C244   C     0.76391   0.49152   0.09778   0.00000  Uiso   1.00
C245   C     0.81200   0.40010   0.16376   0.00000  Uiso   1.00
C246   C     0.81729   0.28820   0.15255   0.00000  Uiso   1.00
C247   C     0.86437   0.21780   0.22061   0.00000  Uiso   1.00
C248   C     0.72311   0.53162   0.09934   0.00000  Uiso   1.00
C249   C     0.65365   0.53031   0.03395   0.00000  Uiso   1.00
C250   C     0.62589   0.57063   0.04776   0.00000  Uiso   1.00
C251   C     0.80746   0.59352   0.12672   0.00000  Uiso   1.00
C252   C     0.80891   0.64427   0.08435   0.00000  Uiso   1.00
C253   C     0.85216   0.73674   0.12120   0.00000  Uiso   1.00
H254   H     0.86950   0.59673   0.29811   0.00000  Uiso   1.00
H255   H     0.93058   0.40112   0.36750   0.00000  Uiso   1.00
H256   H     0.76696   0.64320   0.24891   0.00000  Uiso   1.00
H257   H     0.92220   0.75715   0.29930   0.00000  Uiso   1.00
H258   H     0.98050   0.16652   0.41069   0.00000  Uiso   1.00
H259   H     0.63550   0.67700   0.16064   0.00000  Uiso   1.00
H260   H     0.96286   0.91728   0.26689   0.00000  Uiso   1.00
H261   H     0.73252   0.46025   0.03824   0.00000  Uiso   1.00
H262   H     0.78609   0.25715   0.09337   0.00000  Uiso   1.00
H263   H     0.62247   0.49923   0.97478   0.00000  Uiso   1.00
H264   H     0.77771   0.61317   0.02517   0.00000  Uiso   1.00
H265   H     0.86323   0.04966   0.18820   0.00000  Uiso   1.00
H266   H     0.51823   0.56015   0.93814   0.00000  Uiso   1.00
H267   H     0.84559   0.80043   0.04440   0.00000  Uiso   1.00
O268   O     0.95955   0.97693   0.34039   0.00000  Uiso   1.00
O269   O     0.50693   0.64669   0.01233   0.00000  Uiso   1.00
O270   O     0.93642   0.96192   0.15174   0.00000  Uiso   1.00
N271   N     0.94556   0.16690   0.35077   0.00000  Uiso   1.00
N272   N     0.62301   0.64415   0.11698   0.00000  Uiso   1.00
N273   N     0.92904   0.86881   0.21631   0.00000  Uiso   1.00
N274   N     0.88245   0.10402   0.23104   0.00000  Uiso   1.00
N275   N     0.55990   0.58127   0.99726   0.00000  Uiso   1.00
N276   N     0.86594   0.80594   0.09659   0.00000  Uiso   1.00
C277   C     0.66188   0.06546   0.26142   0.00000  Uiso   1.00
C278   C     0.64768   0.94026   0.25976   0.00000  Uiso   1.00
C279   C     0.60060   0.87001   0.19167   0.00000  Uiso   1.00
C280   C     0.59525   0.75803   0.20278   0.00000  Uiso   1.00
C281   C     0.56710   0.56972   0.18857   0.00000  Uiso   1.00
C282   C     0.73658   0.07178   0.32419   0.00000  Uiso   1.00
C283   C     0.76425   0.11212   0.31028   0.00000  Uiso   1.00
C284   C     0.83373   0.11087   0.37562   0.00000  Uiso   1.00
C285   C     0.94360   0.12681   0.46146   0.00000  Uiso   1.00
C286   C     0.65223   0.13368   0.29681   0.00000  Uiso   1.00
C287   C     0.60898   0.22609   0.25988   0.00000  Uiso   1.00
C288   C     0.60746   0.27697   0.30218   0.00000  Uiso   1.00
C289   C     0.58636   0.38903   0.34550   0.00000  Uiso   1.00
C290   C     0.73609   0.99152   0.40222   0.00000  Uiso   1.00
C291   C     0.68800   0.90010   0.33624   0.00000  Uiso   1.00
C292   C     0.68271   0.78820   0.34745   0.00000  Uiso   1.00
C293   C     0.63563   0.71780   0.27939   0.00000  Uiso   1.00
C294   C     0.77689   0.03162   0.40066   0.00000  Uiso   1.00
C295   C     0.84635   0.03031   0.46605   0.00000  Uiso   1.00
C296   C     0.87411   0.07063   0.45224   0.00000  Uiso   1.00
C297   C     0.69254   0.09352   0.37328   0.00000  Uiso   1.00
C298   C     0.69109   0.14427   0.41565   0.00000  Uiso   1.00
C299   C     0.64784   0.23674   0.37880   0.00000  Uiso   1.00
H300   H     0.63050   0.09673   0.20189   0.00000  Uiso   1.00
H301   H     0.56942   0.90112   0.13250   0.00000  Uiso   1.00
H302   H     0.73304   0.14320   0.25109   0.00000  Uiso   1.00
H303   H     0.57780   0.25715   0.20070   0.00000  Uiso   1.00
H304   H     0.51950   0.66652   0.08931   0.00000  Uiso   1.00
H305   H     0.86450   0.17700   0.33936   0.00000  Uiso   1.00
H306   H     0.53714   0.41728   0.23311   0.00000  Uiso   1.00
H307   H     0.76748   0.96025   0.46176   0.00000  Uiso   1.00
H308   H     0.71391   0.75715   0.40663   0.00000  Uiso   1.00
H309   H     0.87753   0.99923   0.52522   0.00000  Uiso   1.00
H310   H     0.72229   0.11317   0.47483   0.00000  Uiso   1.00
H311   H     0.63677   0.54966   0.31180   0.00000  Uiso   1.00
H312   H     0.98177   0.06015   0.56186   0.00000  Uiso   1.00
H313   H     0.65441   0.30043   0.45560   0.00000  Uiso   1.00
O314   O     0.54045   0.47693   0.15961   0.00000  Uiso   1.00
O315   O     0.99307   0.14669   0.48767   0.00000  Uiso   1.00
O316   O     0.56358   0.46192   0.34826   0.00000  Uiso   1.00
N317   N     0.55444   0.66690   0.14923   0.00000  Uiso   1.00
N318   N     0.87699   0.14415   0.38302   0.00000  Uiso   1.00
N319   N     0.57096   0.36881   0.28369   0.00000  Uiso   1.00
N320   N     0.61755   0.60402   0.26896   0.00000  Uiso   1.00
N321   N     0.94010   0.08127   0.50274   0.00000  Uiso   1.00
N322   N     0.63406   0.30594   0.40341   0.00000  Uiso   1.00
C323   C     0.16188   0.56546   0.26142   0.00000  Uiso   1.00
C324   C     0.14768   0.44026   0.25976   0.00000  Uiso   1.00
C325   C     0.10060   0.37001   0.19167   0.00000  Uiso   1.00
C326   C     0.09525   0.25803   0.20278   0.00000  Uiso   1.00
C327   C     0.06710   0.06972   0.18857   0.00000  Uiso   1.00
C328   C     0.23658   0.57178   0.32419   0.00000  Uiso   1.00
C329   C     0.26425   0.61212   0.31028   0.00000  Uiso   1.00
C330   C     0.33373   0.61087   0.37562   0.00000  Uiso   1.00
C331   C     0.44360   0.62681   0.46146   0.00000  Uiso   1.00
C332   C     0.15223   0.63368   0.29681   0.00000  Uiso   1.00
C333   C     0.10898   0.72609   0.25988   0.00000  Uiso   1.00
C334   C     0.10746   0.77697   0.30218   0.00000  Uiso   1.00
C335   C     0.08636   0.88903   0.34550   0.00000  Uiso   1.00
C336   C     0.23609   0.49152   0.40222   0.00000  Uiso   1.00
C337   C     0.18800   0.40010   0.33624   0.00000  Uiso   1.00
C338   C     0.18271   0.28820   0.34745   0.00000  Uiso   1.00
C339   C     0.13563   0.21780   0.27939   0.00000  Uiso   1.00
C340   C     0.27689   0.53162   0.40066   0.00000  Uiso   1.00
C341   C     0.34635   0.53031   0.46605   0.00000  Uiso   1.00
C342   C     0.37411   0.57063   0.45224   0.00000  Uiso   1.00
C343   C     0.19254   0.59352   0.37328   0.00000  Uiso   1.00
C344   C     0.19109   0.64427   0.41565   0.00000  Uiso   1.00
C345   C     0.14784   0.73674   0.37880   0.00000  Uiso   1.00
H346   H     0.13050   0.59673   0.20189   0.00000  Uiso   1.00
H347   H     0.06942   0.40112   0.13250   0.00000  Uiso   1.00
H348   H     0.23304   0.64320   0.25109   0.00000  Uiso   1.00
H349   H     0.07780   0.75715   0.20070   0.00000  Uiso   1.00
H350   H     0.01950   0.16652   0.08931   0.00000  Uiso   1.00
H351   H     0.36450   0.67700   0.33936   0.00000  Uiso   1.00
H352   H     0.03714   0.91728   0.23311   0.00000  Uiso   1.00
H353   H     0.26748   0.46025   0.46176   0.00000  Uiso   1.00
H354   H     0.21391   0.25715   0.40663   0.00000  Uiso   1.00
H355   H     0.37753   0.49923   0.52522   0.00000  Uiso   1.00
H356   H     0.22229   0.61317   0.47483   0.00000  Uiso   1.00
H357   H     0.13677   0.04966   0.31180   0.00000  Uiso   1.00
H358   H     0.48177   0.56015   0.56186   0.00000  Uiso   1.00
H359   H     0.15441   0.80043   0.45560   0.00000  Uiso   1.00
O360   O     0.04045   0.97693   0.15961   0.00000  Uiso   1.00
O361   O     0.49307   0.64669   0.48767   0.00000  Uiso   1.00
O362   O     0.06358   0.96192   0.34826   0.00000  Uiso   1.00
N363   N     0.05444   0.16690   0.14923   0.00000  Uiso   1.00
N364   N     0.37699   0.64415   0.38302   0.00000  Uiso   1.00
N365   N     0.07096   0.86881   0.28369   0.00000  Uiso   1.00
N366   N     0.11755   0.10402   0.26896   0.00000  Uiso   1.00
N367   N     0.44010   0.58127   0.50274   0.00000  Uiso   1.00
N368   N     0.13406   0.80594   0.40341   0.00000  Uiso   1.00
