data_job_03446
_audit_creation_date              2018-12-19
_audit_creation_method            'Materials Studio'
_symmetry_space_group_name_H-M    'P1'
_symmetry_Int_Tables_number       1
_symmetry_cell_setting            triclinic
loop_
_symmetry_equiv_pos_as_xyz
  x,y,z
_cell_length_a                    21.9860
_cell_length_b                    23.3383
_cell_length_c                    11.7473
_cell_angle_alpha                 90.0000
_cell_angle_beta                  90.0000
_cell_angle_gamma                 90.0000
loop_
_atom_site_label
_atom_site_type_symbol
_atom_site_fract_x
_atom_site_fract_y
_atom_site_fract_z
_atom_site_U_iso_or_equiv
_atom_site_adp_type
_atom_site_occupancy
C1     C     0.18083   0.65972   0.54926   0.00000  Uiso   1.00
C2     C     0.16168   0.60477   0.48885   0.00000  Uiso   1.00
C3     C     0.19620   0.57479   0.40990   0.00000  Uiso   1.00
C4     C     0.17058   0.52550   0.36431   0.00000  Uiso   1.00
C5     C     0.14966   0.44302   0.26555   0.00000  Uiso   1.00
C6     C     0.13145   0.70370   0.52327   0.00000  Uiso   1.00
C7     C     0.14056   0.75689   0.47328   0.00000  Uiso   1.00
C8     C     0.08949   0.79087   0.45667   0.00000  Uiso   1.00
C9     C     0.02165   0.86200   0.41144   0.00000  Uiso   1.00
C10    C     0.17612   0.64724   0.67637   0.00000  Uiso   1.00
C11    C     0.22278   0.65298   0.75512   0.00000  Uiso   1.00
C12    C     0.20932   0.63945   0.86742   0.00000  Uiso   1.00
C13    C     0.21082   0.62291   0.05990   0.00000  Uiso   1.00
C14    C     0.07395   0.62550   0.60869   0.00000  Uiso   1.00
C15    C     0.10362   0.58619   0.52113   0.00000  Uiso   1.00
C16    C     0.07794   0.53693   0.47565   0.00000  Uiso   1.00
C17    C     0.11242   0.50687   0.39664   0.00000  Uiso   1.00
C18    C     0.07340   0.68511   0.55555   0.00000  Uiso   1.00
C19    C     0.02231   0.71903   0.53902   0.00000  Uiso   1.00
C20    C     0.03133   0.77226   0.48901   0.00000  Uiso   1.00
C21    C     0.11806   0.62865   0.70865   0.00000  Uiso   1.00
C22    C     0.10452   0.61511   0.82086   0.00000  Uiso   1.00
C23    C     0.15115   0.62083   0.89976   0.00000  Uiso   1.00
H24    H     0.22603   0.67419   0.52413   0.00000  Uiso   1.00
H25    H     0.24113   0.58919   0.38494   0.00000  Uiso   1.00
H26    H     0.18550   0.77126   0.44832   0.00000  Uiso   1.00
H27    H     0.26770   0.66736   0.73011   0.00000  Uiso   1.00
H28    H     0.23225   0.48676   0.24482   0.00000  Uiso   1.00
H29    H     0.11495   0.87068   0.37850   0.00000  Uiso   1.00
H30    H     0.28830   0.65159   0.97271   0.00000  Uiso   1.00
H31    H     0.02875   0.61103   0.63381   0.00000  Uiso   1.00
H32    H     0.03301   0.52255   0.50064   0.00000  Uiso   1.00
H33    H     0.97739   0.70463   0.56401   0.00000  Uiso   1.00
H34    H     0.05959   0.60073   0.84580   0.00000  Uiso   1.00
H35    H     0.06334   0.43268   0.33872   0.00000  Uiso   1.00
H36    H     0.94604   0.81660   0.47240   0.00000  Uiso   1.00
H37    H     0.11939   0.59751   0.06661   0.00000  Uiso   1.00
O38    O     0.15415   0.40267   0.20216   0.00000  Uiso   1.00
O39    O     0.00027   0.90636   0.37755   0.00000  Uiso   1.00
O40    O     0.22770   0.61892   0.15714   0.00000  Uiso   1.00
N41    N     0.19191   0.48617   0.28521   0.00000  Uiso   1.00
N42    N     0.08225   0.84511   0.41017   0.00000  Uiso   1.00
N43    N     0.24431   0.64029   0.96572   0.00000  Uiso   1.00
N44    N     0.10102   0.45706   0.33574   0.00000  Uiso   1.00
N45    N     0.99136   0.81601   0.46070   0.00000  Uiso   1.00
N46    N     0.15342   0.61119   0.01625   0.00000  Uiso   1.00
C47    C     0.68172   0.65601   0.89399   0.00000  Uiso   1.00
C48    C     0.66512   0.60120   0.83050   0.00000  Uiso   1.00
C49    C     0.70253   0.57177   0.75544   0.00000  Uiso   1.00
C50    C     0.67892   0.52252   0.70603   0.00000  Uiso   1.00
C51    C     0.66209   0.44034   0.60363   0.00000  Uiso   1.00
C52    C     0.63301   0.69979   0.86275   0.00000  Uiso   1.00
C53    C     0.64344   0.75325   0.81482   0.00000  Uiso   1.00
C54    C     0.59280   0.78699   0.79258   0.00000  Uiso   1.00
C55    C     0.52613   0.85788   0.74033   0.00000  Uiso   1.00
C56    C     0.67270   0.64296   0.02005   0.00000  Uiso   1.00
C57    C     0.71649   0.64865   0.10439   0.00000  Uiso   1.00
C58    C     0.69926   0.63455   0.21460   0.00000  Uiso   1.00
C59    C     0.69421   0.61721   0.40658   0.00000  Uiso   1.00
C60    C     0.57326   0.62087   0.93973   0.00000  Uiso   1.00
C61    C     0.60621   0.58212   0.85534   0.00000  Uiso   1.00
C62    C     0.58253   0.53290   0.80605   0.00000  Uiso   1.00
C63    C     0.61991   0.50340   0.73093   0.00000  Uiso   1.00
C64    C     0.57410   0.68071   0.88759   0.00000  Uiso   1.00
C65    C     0.52344   0.71437   0.86543   0.00000  Uiso   1.00
C66    C     0.53378   0.76787   0.81747   0.00000  Uiso   1.00
C67    C     0.61379   0.62387   0.04490   0.00000  Uiso   1.00
C68    C     0.59649   0.60977   0.15500   0.00000  Uiso   1.00
C69    C     0.64024   0.61544   0.23949   0.00000  Uiso   1.00
H70    H     0.72759   0.67087   0.87464   0.00000  Uiso   1.00
H71    H     0.74812   0.58656   0.73622   0.00000  Uiso   1.00
H72    H     0.68903   0.76801   0.79561   0.00000  Uiso   1.00
H73    H     0.76207   0.66342   0.08513   0.00000  Uiso   1.00
H74    H     0.74490   0.48468   0.59369   0.00000  Uiso   1.00
H75    H     0.62031   0.86728   0.71894   0.00000  Uiso   1.00
H76    H     0.77433   0.64674   0.32947   0.00000  Uiso   1.00
H77    H     0.52739   0.60602   0.95907   0.00000  Uiso   1.00
H78    H     0.53694   0.51814   0.82529   0.00000  Uiso   1.00
H79    H     0.47786   0.69959   0.88467   0.00000  Uiso   1.00
H80    H     0.55089   0.59500   0.17420   0.00000  Uiso   1.00
H81    H     0.57350   0.42915   0.66597   0.00000  Uiso   1.00
H82    H     0.44891   0.81176   0.79123   0.00000  Uiso   1.00
H83    H     0.60293   0.59121   0.40175   0.00000  Uiso   1.00
O84    O     0.66908   0.40029   0.54027   0.00000  Uiso   1.00
O85    O     0.50563   0.90225   0.70462   0.00000  Uiso   1.00
O86    O     0.70770   0.61291   0.50561   0.00000  Uiso   1.00
N87    N     0.70325   0.48366   0.62908   0.00000  Uiso   1.00
N88    N     0.58677   0.84137   0.74617   0.00000  Uiso   1.00
N89    N     0.73076   0.63520   0.31696   0.00000  Uiso   1.00
N90    N     0.61102   0.45378   0.66797   0.00000  Uiso   1.00
N91    N     0.49454   0.81149   0.78506   0.00000  Uiso   1.00
N92    N     0.63853   0.60532   0.35586   0.00000  Uiso   1.00
C93    C     0.81917   0.34028   0.54926   0.00000  Uiso   1.00
C94    C     0.83832   0.39523   0.48885   0.00000  Uiso   1.00
C95    C     0.80380   0.42521   0.40990   0.00000  Uiso   1.00
C96    C     0.82942   0.47450   0.36431   0.00000  Uiso   1.00
C97    C     0.85034   0.55698   0.26555   0.00000  Uiso   1.00
C98    C     0.86855   0.29630   0.52327   0.00000  Uiso   1.00
C99    C     0.85944   0.24311   0.47328   0.00000  Uiso   1.00
C100   C     0.91051   0.20913   0.45667   0.00000  Uiso   1.00
C101   C     0.97835   0.13800   0.41144   0.00000  Uiso   1.00
C102   C     0.82388   0.35276   0.67637   0.00000  Uiso   1.00
C103   C     0.77722   0.34702   0.75512   0.00000  Uiso   1.00
C104   C     0.79068   0.36055   0.86742   0.00000  Uiso   1.00
C105   C     0.78918   0.37709   0.05990   0.00000  Uiso   1.00
C106   C     0.92605   0.37450   0.60869   0.00000  Uiso   1.00
C107   C     0.89638   0.41381   0.52113   0.00000  Uiso   1.00
C108   C     0.92206   0.46307   0.47565   0.00000  Uiso   1.00
C109   C     0.88758   0.49313   0.39664   0.00000  Uiso   1.00
C110   C     0.92660   0.31489   0.55555   0.00000  Uiso   1.00
C111   C     0.97769   0.28097   0.53902   0.00000  Uiso   1.00
C112   C     0.96867   0.22774   0.48901   0.00000  Uiso   1.00
C113   C     0.88194   0.37135   0.70865   0.00000  Uiso   1.00
C114   C     0.89548   0.38489   0.82086   0.00000  Uiso   1.00
C115   C     0.84885   0.37917   0.89976   0.00000  Uiso   1.00
H116   H     0.77397   0.32581   0.52413   0.00000  Uiso   1.00
H117   H     0.75887   0.41081   0.38494   0.00000  Uiso   1.00
H118   H     0.81450   0.22874   0.44832   0.00000  Uiso   1.00
H119   H     0.73230   0.33264   0.73011   0.00000  Uiso   1.00
H120   H     0.76775   0.51324   0.24482   0.00000  Uiso   1.00
H121   H     0.88505   0.12932   0.37850   0.00000  Uiso   1.00
H122   H     0.71170   0.34841   0.97271   0.00000  Uiso   1.00
H123   H     0.97125   0.38897   0.63381   0.00000  Uiso   1.00
H124   H     0.96699   0.47745   0.50064   0.00000  Uiso   1.00
H125   H     0.02261   0.29537   0.56401   0.00000  Uiso   1.00
H126   H     0.94041   0.39927   0.84580   0.00000  Uiso   1.00
H127   H     0.93666   0.56732   0.33872   0.00000  Uiso   1.00
H128   H     0.05396   0.18340   0.47240   0.00000  Uiso   1.00
H129   H     0.88061   0.40249   0.06661   0.00000  Uiso   1.00
O130   O     0.84585   0.59733   0.20216   0.00000  Uiso   1.00
O131   O     0.99973   0.09364   0.37755   0.00000  Uiso   1.00
O132   O     0.77230   0.38108   0.15714   0.00000  Uiso   1.00
N133   N     0.80809   0.51383   0.28521   0.00000  Uiso   1.00
N134   N     0.91775   0.15489   0.41017   0.00000  Uiso   1.00
N135   N     0.75569   0.35971   0.96572   0.00000  Uiso   1.00
N136   N     0.89898   0.54294   0.33574   0.00000  Uiso   1.00
N137   N     0.00864   0.18399   0.46070   0.00000  Uiso   1.00
N138   N     0.84658   0.38881   0.01625   0.00000  Uiso   1.00
C139   C     0.31828   0.34399   0.89399   0.00000  Uiso   1.00
C140   C     0.33488   0.39880   0.83050   0.00000  Uiso   1.00
C141   C     0.29747   0.42823   0.75544   0.00000  Uiso   1.00
C142   C     0.32108   0.47748   0.70603   0.00000  Uiso   1.00
C143   C     0.33791   0.55966   0.60363   0.00000  Uiso   1.00
C144   C     0.36699   0.30021   0.86275   0.00000  Uiso   1.00
C145   C     0.35656   0.24675   0.81482   0.00000  Uiso   1.00
C146   C     0.40720   0.21301   0.79258   0.00000  Uiso   1.00
C147   C     0.47387   0.14212   0.74033   0.00000  Uiso   1.00
C148   C     0.32730   0.35704   0.02005   0.00000  Uiso   1.00
C149   C     0.28351   0.35135   0.10439   0.00000  Uiso   1.00
C150   C     0.30074   0.36545   0.21460   0.00000  Uiso   1.00
C151   C     0.30579   0.38279   0.40658   0.00000  Uiso   1.00
C152   C     0.42674   0.37913   0.93973   0.00000  Uiso   1.00
C153   C     0.39379   0.41788   0.85534   0.00000  Uiso   1.00
C154   C     0.41747   0.46710   0.80605   0.00000  Uiso   1.00
C155   C     0.38009   0.49660   0.73093   0.00000  Uiso   1.00
C156   C     0.42590   0.31929   0.88759   0.00000  Uiso   1.00
C157   C     0.47656   0.28563   0.86543   0.00000  Uiso   1.00
C158   C     0.46622   0.23213   0.81747   0.00000  Uiso   1.00
C159   C     0.38621   0.37613   0.04490   0.00000  Uiso   1.00
C160   C     0.40351   0.39023   0.15500   0.00000  Uiso   1.00
C161   C     0.35976   0.38456   0.23949   0.00000  Uiso   1.00
H162   H     0.27241   0.32913   0.87464   0.00000  Uiso   1.00
H163   H     0.25188   0.41344   0.73622   0.00000  Uiso   1.00
H164   H     0.31097   0.23199   0.79561   0.00000  Uiso   1.00
H165   H     0.23793   0.33658   0.08513   0.00000  Uiso   1.00
H166   H     0.25510   0.51532   0.59369   0.00000  Uiso   1.00
H167   H     0.37969   0.13272   0.71894   0.00000  Uiso   1.00
H168   H     0.22567   0.35326   0.32947   0.00000  Uiso   1.00
H169   H     0.47261   0.39398   0.95907   0.00000  Uiso   1.00
H170   H     0.46306   0.48186   0.82529   0.00000  Uiso   1.00
H171   H     0.52214   0.30041   0.88467   0.00000  Uiso   1.00
H172   H     0.44911   0.40500   0.17420   0.00000  Uiso   1.00
H173   H     0.42650   0.57085   0.66597   0.00000  Uiso   1.00
H174   H     0.55109   0.18824   0.79123   0.00000  Uiso   1.00
H175   H     0.39707   0.40879   0.40175   0.00000  Uiso   1.00
O176   O     0.33092   0.59971   0.54027   0.00000  Uiso   1.00
O177   O     0.49437   0.09775   0.70462   0.00000  Uiso   1.00
O178   O     0.29230   0.38709   0.50561   0.00000  Uiso   1.00
N179   N     0.29675   0.51634   0.62908   0.00000  Uiso   1.00
N180   N     0.41323   0.15863   0.74617   0.00000  Uiso   1.00
N181   N     0.26924   0.36480   0.31696   0.00000  Uiso   1.00
N182   N     0.38898   0.54622   0.66797   0.00000  Uiso   1.00
N183   N     0.50546   0.18851   0.78506   0.00000  Uiso   1.00
N184   N     0.36147   0.39468   0.35586   0.00000  Uiso   1.00
C185   C     0.31917   0.15972   0.45074   0.00000  Uiso   1.00
C186   C     0.33832   0.10477   0.51115   0.00000  Uiso   1.00
C187   C     0.30380   0.07479   0.59010   0.00000  Uiso   1.00
C188   C     0.32942   0.02550   0.63569   0.00000  Uiso   1.00
C189   C     0.35034   0.94302   0.73445   0.00000  Uiso   1.00
C190   C     0.36855   0.20370   0.47673   0.00000  Uiso   1.00
C191   C     0.35944   0.25689   0.52672   0.00000  Uiso   1.00
C192   C     0.41051   0.29087   0.54333   0.00000  Uiso   1.00
C193   C     0.47835   0.36200   0.58856   0.00000  Uiso   1.00
C194   C     0.32388   0.14724   0.32363   0.00000  Uiso   1.00
C195   C     0.27722   0.15298   0.24488   0.00000  Uiso   1.00
C196   C     0.29068   0.13945   0.13258   0.00000  Uiso   1.00
C197   C     0.28918   0.12291   0.94010   0.00000  Uiso   1.00
C198   C     0.42605   0.12550   0.39131   0.00000  Uiso   1.00
C199   C     0.39638   0.08619   0.47887   0.00000  Uiso   1.00
C200   C     0.42206   0.03693   0.52435   0.00000  Uiso   1.00
C201   C     0.38758   0.00687   0.60336   0.00000  Uiso   1.00
C202   C     0.42660   0.18511   0.44445   0.00000  Uiso   1.00
C203   C     0.47769   0.21903   0.46098   0.00000  Uiso   1.00
C204   C     0.46867   0.27226   0.51099   0.00000  Uiso   1.00
C205   C     0.38194   0.12865   0.29135   0.00000  Uiso   1.00
C206   C     0.39548   0.11511   0.17914   0.00000  Uiso   1.00
C207   C     0.34885   0.12083   0.10024   0.00000  Uiso   1.00
H208   H     0.27397   0.17419   0.47587   0.00000  Uiso   1.00
H209   H     0.25887   0.08919   0.61506   0.00000  Uiso   1.00
H210   H     0.31450   0.27126   0.55168   0.00000  Uiso   1.00
H211   H     0.23230   0.16736   0.26989   0.00000  Uiso   1.00
H212   H     0.26775   0.98676   0.75518   0.00000  Uiso   1.00
H213   H     0.38505   0.37068   0.62150   0.00000  Uiso   1.00
H214   H     0.21170   0.15159   0.02729   0.00000  Uiso   1.00
H215   H     0.47125   0.11103   0.36619   0.00000  Uiso   1.00
H216   H     0.46699   0.02255   0.49936   0.00000  Uiso   1.00
H217   H     0.52261   0.20463   0.43599   0.00000  Uiso   1.00
H218   H     0.44041   0.10073   0.15420   0.00000  Uiso   1.00
H219   H     0.43666   0.93268   0.66128   0.00000  Uiso   1.00
H220   H     0.55396   0.31660   0.52760   0.00000  Uiso   1.00
H221   H     0.38061   0.09751   0.93339   0.00000  Uiso   1.00
O222   O     0.34585   0.90267   0.79784   0.00000  Uiso   1.00
O223   O     0.49973   0.40636   0.62245   0.00000  Uiso   1.00
O224   O     0.27230   0.11892   0.84286   0.00000  Uiso   1.00
N225   N     0.30809   0.98617   0.71479   0.00000  Uiso   1.00
N226   N     0.41775   0.34511   0.58983   0.00000  Uiso   1.00
N227   N     0.25569   0.14029   0.03428   0.00000  Uiso   1.00
N228   N     0.39898   0.95706   0.66426   0.00000  Uiso   1.00
N229   N     0.50864   0.31601   0.53930   0.00000  Uiso   1.00
N230   N     0.34658   0.11119   0.98375   0.00000  Uiso   1.00
C231   C     0.81828   0.15601   0.10601   0.00000  Uiso   1.00
C232   C     0.83488   0.10120   0.16950   0.00000  Uiso   1.00
C233   C     0.79747   0.07177   0.24456   0.00000  Uiso   1.00
C234   C     0.82108   0.02252   0.29397   0.00000  Uiso   1.00
C235   C     0.83791   0.94034   0.39637   0.00000  Uiso   1.00
C236   C     0.86699   0.19979   0.13725   0.00000  Uiso   1.00
C237   C     0.85656   0.25325   0.18518   0.00000  Uiso   1.00
C238   C     0.90720   0.28699   0.20742   0.00000  Uiso   1.00
C239   C     0.97387   0.35788   0.25967   0.00000  Uiso   1.00
C240   C     0.82730   0.14296   0.97995   0.00000  Uiso   1.00
C241   C     0.78351   0.14865   0.89561   0.00000  Uiso   1.00
C242   C     0.80074   0.13455   0.78540   0.00000  Uiso   1.00
C243   C     0.80579   0.11721   0.59342   0.00000  Uiso   1.00
C244   C     0.92674   0.12087   0.06027   0.00000  Uiso   1.00
C245   C     0.89379   0.08212   0.14466   0.00000  Uiso   1.00
C246   C     0.91747   0.03290   0.19395   0.00000  Uiso   1.00
C247   C     0.88009   0.00340   0.26907   0.00000  Uiso   1.00
C248   C     0.92590   0.18071   0.11241   0.00000  Uiso   1.00
C249   C     0.97656   0.21437   0.13457   0.00000  Uiso   1.00
C250   C     0.96622   0.26787   0.18253   0.00000  Uiso   1.00
C251   C     0.88621   0.12387   0.95510   0.00000  Uiso   1.00
C252   C     0.90351   0.10977   0.84500   0.00000  Uiso   1.00
C253   C     0.85976   0.11544   0.76051   0.00000  Uiso   1.00
H254   H     0.77241   0.17087   0.12536   0.00000  Uiso   1.00
H255   H     0.75188   0.08656   0.26378   0.00000  Uiso   1.00
H256   H     0.81097   0.26801   0.20439   0.00000  Uiso   1.00
H257   H     0.73793   0.16342   0.91487   0.00000  Uiso   1.00
H258   H     0.75510   0.98468   0.40631   0.00000  Uiso   1.00
H259   H     0.87969   0.36728   0.28106   0.00000  Uiso   1.00
H260   H     0.72567   0.14674   0.67053   0.00000  Uiso   1.00
H261   H     0.97261   0.10602   0.04093   0.00000  Uiso   1.00
H262   H     0.96306   0.01814   0.17471   0.00000  Uiso   1.00
H263   H     0.02214   0.19959   0.11533   0.00000  Uiso   1.00
H264   H     0.94911   0.09500   0.82580   0.00000  Uiso   1.00
H265   H     0.92650   0.92915   0.33403   0.00000  Uiso   1.00
H266   H     0.05109   0.31176   0.20877   0.00000  Uiso   1.00
H267   H     0.89707   0.09121   0.59825   0.00000  Uiso   1.00
O268   O     0.83092   0.90029   0.45973   0.00000  Uiso   1.00
O269   O     0.99437   0.40225   0.29538   0.00000  Uiso   1.00
O270   O     0.79230   0.11291   0.49439   0.00000  Uiso   1.00
N271   N     0.79675   0.98366   0.37092   0.00000  Uiso   1.00
N272   N     0.91323   0.34137   0.25383   0.00000  Uiso   1.00
N273   N     0.76924   0.13520   0.68304   0.00000  Uiso   1.00
N274   N     0.88898   0.95378   0.33203   0.00000  Uiso   1.00
N275   N     0.00546   0.31149   0.21494   0.00000  Uiso   1.00
N276   N     0.86147   0.10532   0.64414   0.00000  Uiso   1.00
C277   C     0.68083   0.84028   0.45074   0.00000  Uiso   1.00
C278   C     0.66168   0.89523   0.51115   0.00000  Uiso   1.00
C279   C     0.69620   0.92521   0.59010   0.00000  Uiso   1.00
C280   C     0.67058   0.97450   0.63569   0.00000  Uiso   1.00
C281   C     0.64966   0.05698   0.73445   0.00000  Uiso   1.00
C282   C     0.63145   0.79630   0.47673   0.00000  Uiso   1.00
C283   C     0.64056   0.74311   0.52672   0.00000  Uiso   1.00
C284   C     0.58949   0.70913   0.54333   0.00000  Uiso   1.00
C285   C     0.52165   0.63800   0.58856   0.00000  Uiso   1.00
C286   C     0.67612   0.85276   0.32363   0.00000  Uiso   1.00
C287   C     0.72278   0.84702   0.24488   0.00000  Uiso   1.00
C288   C     0.70932   0.86055   0.13258   0.00000  Uiso   1.00
C289   C     0.71082   0.87709   0.94010   0.00000  Uiso   1.00
C290   C     0.57395   0.87450   0.39131   0.00000  Uiso   1.00
C291   C     0.60362   0.91381   0.47887   0.00000  Uiso   1.00
C292   C     0.57794   0.96307   0.52435   0.00000  Uiso   1.00
C293   C     0.61242   0.99313   0.60336   0.00000  Uiso   1.00
C294   C     0.57340   0.81489   0.44445   0.00000  Uiso   1.00
C295   C     0.52231   0.78097   0.46098   0.00000  Uiso   1.00
C296   C     0.53133   0.72774   0.51099   0.00000  Uiso   1.00
C297   C     0.61806   0.87135   0.29135   0.00000  Uiso   1.00
C298   C     0.60452   0.88489   0.17914   0.00000  Uiso   1.00
C299   C     0.65115   0.87917   0.10024   0.00000  Uiso   1.00
H300   H     0.72603   0.82581   0.47587   0.00000  Uiso   1.00
H301   H     0.74113   0.91081   0.61506   0.00000  Uiso   1.00
H302   H     0.68550   0.72874   0.55168   0.00000  Uiso   1.00
H303   H     0.76770   0.83264   0.26989   0.00000  Uiso   1.00
H304   H     0.73225   0.01324   0.75518   0.00000  Uiso   1.00
H305   H     0.61495   0.62932   0.62150   0.00000  Uiso   1.00
H306   H     0.78830   0.84841   0.02729   0.00000  Uiso   1.00
H307   H     0.52875   0.88897   0.36619   0.00000  Uiso   1.00
H308   H     0.53301   0.97745   0.49936   0.00000  Uiso   1.00
H309   H     0.47739   0.79537   0.43599   0.00000  Uiso   1.00
H310   H     0.55959   0.89927   0.15420   0.00000  Uiso   1.00
H311   H     0.56334   0.06732   0.66128   0.00000  Uiso   1.00
H312   H     0.44604   0.68340   0.52760   0.00000  Uiso   1.00
H313   H     0.61939   0.90249   0.93339   0.00000  Uiso   1.00
O314   O     0.65415   0.09733   0.79784   0.00000  Uiso   1.00
O315   O     0.50027   0.59364   0.62245   0.00000  Uiso   1.00
O316   O     0.72770   0.88108   0.84286   0.00000  Uiso   1.00
N317   N     0.69191   0.01383   0.71479   0.00000  Uiso   1.00
N318   N     0.58225   0.65489   0.58983   0.00000  Uiso   1.00
N319   N     0.74431   0.85971   0.03428   0.00000  Uiso   1.00
N320   N     0.60102   0.04294   0.66426   0.00000  Uiso   1.00
N321   N     0.49136   0.68399   0.53930   0.00000  Uiso   1.00
N322   N     0.65342   0.88881   0.98375   0.00000  Uiso   1.00
C323   C     0.18172   0.84399   0.10601   0.00000  Uiso   1.00
C324   C     0.16512   0.89880   0.16950   0.00000  Uiso   1.00
C325   C     0.20253   0.92823   0.24456   0.00000  Uiso   1.00
C326   C     0.17892   0.97748   0.29397   0.00000  Uiso   1.00
C327   C     0.16209   0.05966   0.39637   0.00000  Uiso   1.00
C328   C     0.13301   0.80021   0.13725   0.00000  Uiso   1.00
C329   C     0.14344   0.74675   0.18518   0.00000  Uiso   1.00
C330   C     0.09280   0.71301   0.20742   0.00000  Uiso   1.00
C331   C     0.02613   0.64212   0.25967   0.00000  Uiso   1.00
C332   C     0.17270   0.85704   0.97995   0.00000  Uiso   1.00
C333   C     0.21649   0.85135   0.89561   0.00000  Uiso   1.00
C334   C     0.19926   0.86545   0.78540   0.00000  Uiso   1.00
C335   C     0.19421   0.88279   0.59342   0.00000  Uiso   1.00
C336   C     0.07326   0.87913   0.06027   0.00000  Uiso   1.00
C337   C     0.10621   0.91788   0.14466   0.00000  Uiso   1.00
C338   C     0.08253   0.96710   0.19395   0.00000  Uiso   1.00
C339   C     0.11991   0.99660   0.26907   0.00000  Uiso   1.00
C340   C     0.07410   0.81929   0.11241   0.00000  Uiso   1.00
C341   C     0.02344   0.78563   0.13457   0.00000  Uiso   1.00
C342   C     0.03378   0.73213   0.18253   0.00000  Uiso   1.00
C343   C     0.11379   0.87613   0.95510   0.00000  Uiso   1.00
C344   C     0.09649   0.89023   0.84500   0.00000  Uiso   1.00
C345   C     0.14024   0.88456   0.76051   0.00000  Uiso   1.00
H346   H     0.22759   0.82913   0.12536   0.00000  Uiso   1.00
H347   H     0.24812   0.91344   0.26378   0.00000  Uiso   1.00
H348   H     0.18903   0.73199   0.20439   0.00000  Uiso   1.00
H349   H     0.26207   0.83658   0.91487   0.00000  Uiso   1.00
H350   H     0.24490   0.01532   0.40631   0.00000  Uiso   1.00
H351   H     0.12031   0.63272   0.28106   0.00000  Uiso   1.00
H352   H     0.27433   0.85326   0.67053   0.00000  Uiso   1.00
H353   H     0.02739   0.89398   0.04093   0.00000  Uiso   1.00
H354   H     0.03694   0.98186   0.17471   0.00000  Uiso   1.00
H355   H     0.97786   0.80041   0.11533   0.00000  Uiso   1.00
H356   H     0.05089   0.90500   0.82580   0.00000  Uiso   1.00
H357   H     0.07350   0.07085   0.33403   0.00000  Uiso   1.00
H358   H     0.94891   0.68824   0.20877   0.00000  Uiso   1.00
H359   H     0.10293   0.90879   0.59825   0.00000  Uiso   1.00
O360   O     0.16908   0.09971   0.45973   0.00000  Uiso   1.00
O361   O     0.00563   0.59775   0.29538   0.00000  Uiso   1.00
O362   O     0.20770   0.88709   0.49439   0.00000  Uiso   1.00
N363   N     0.20325   0.01634   0.37092   0.00000  Uiso   1.00
N364   N     0.08677   0.65863   0.25383   0.00000  Uiso   1.00
N365   N     0.23076   0.86480   0.68304   0.00000  Uiso   1.00
N366   N     0.11102   0.04622   0.33203   0.00000  Uiso   1.00
N367   N     0.99454   0.68851   0.21494   0.00000  Uiso   1.00
N368   N     0.13853   0.89468   0.64414   0.00000  Uiso   1.00
