data_job_05635
_audit_creation_date              2018-12-19
_audit_creation_method            'Materials Studio'
_symmetry_space_group_name_H-M    'P1'
_symmetry_Int_Tables_number       1
_symmetry_cell_setting            triclinic
loop_
_symmetry_equiv_pos_as_xyz
  x,y,z
_cell_length_a                    14.1333
_cell_length_b                    20.7277
_cell_length_c                    9.7677
_cell_angle_alpha                 90.0000
_cell_angle_beta                  60.4721
_cell_angle_gamma                 90.0000
loop_
_atom_site_label
_atom_site_type_symbol
_atom_site_fract_x
_atom_site_fract_y
_atom_site_fract_z
_atom_site_U_iso_or_equiv
_atom_site_adp_type
_atom_site_occupancy
C1     C     0.92840   0.19655   0.68644   0.00000  Uiso   1.00
C2     C     0.02347   0.15511   0.66675   0.00000  Uiso   1.00
C3     C     0.10219   0.17350   0.70463   0.00000  Uiso   1.00
C4     C     0.18247   0.12864   0.67782   0.00000  Uiso   1.00
C5     C     0.32990   0.07359   0.65668   0.00000  Uiso   1.00
C6     C     0.93758   0.19994   0.52437   0.00000  Uiso   1.00
C7     C     0.94406   0.25602   0.44255   0.00000  Uiso   1.00
C8     C     0.95202   0.24889   0.29590   0.00000  Uiso   1.00
C9     C     0.96602   0.26345   0.05375   0.00000  Uiso   1.00
C10    C     0.82593   0.15759   0.78939   0.00000  Uiso   1.00
C11    C     0.73852   0.17807   0.93039   0.00000  Uiso   1.00
C12    C     0.65247   0.13530   0.00684   0.00000  Uiso   1.00
C13    C     0.49312   0.08410   0.17619   0.00000  Uiso   1.00
C14    C     0.93098   0.08417   0.57147   0.00000  Uiso   1.00
C15    C     0.02487   0.09407   0.60430   0.00000  Uiso   1.00
C16    C     0.10504   0.04917   0.57743   0.00000  Uiso   1.00
C17    C     0.18387   0.06749   0.61527   0.00000  Uiso   1.00
C18    C     0.93898   0.13890   0.46192   0.00000  Uiso   1.00
C19    C     0.94692   0.13169   0.31535   0.00000  Uiso   1.00
C20    C     0.95342   0.18775   0.23333   0.00000  Uiso   1.00
C21    C     0.82733   0.09655   0.72694   0.00000  Uiso   1.00
C22    C     0.74138   0.05374   0.80319   0.00000  Uiso   1.00
C23    C     0.65387   0.07415   0.94428   0.00000  Uiso   1.00
H24    H     0.92731   0.24407   0.73504   0.00000  Uiso   1.00
H25    H     0.10109   0.22074   0.75294   0.00000  Uiso   1.00
H26    H     0.94297   0.30325   0.49091   0.00000  Uiso   1.00
H27    H     0.73747   0.22531   0.97867   0.00000  Uiso   1.00
H28    H     0.29439   0.16797   0.74519   0.00000  Uiso   1.00
H29    H     0.96095   0.34194   0.19272   0.00000  Uiso   1.00
H30    H     0.52761   0.17759   0.22125   0.00000  Uiso   1.00
H31    H     0.93207   0.03665   0.52284   0.00000  Uiso   1.00
H32    H     0.10611   0.00194   0.52910   0.00000  Uiso   1.00
H33    H     0.94799   0.08445   0.26707   0.00000  Uiso   1.00
H34    H     0.74249   0.00651   0.75483   0.00000  Uiso   1.00
H35    H     0.29847   0.99039   0.56351   0.00000  Uiso   1.00
H36    H     0.96502   0.16436   0.01103   0.00000  Uiso   1.00
H37    H     0.53169   0.00000   0.03957   0.00000  Uiso   1.00
O38    O     0.41085   0.06010   0.66225   0.00000  Uiso   1.00
O39    O     0.97337   0.28834   0.93744   0.00000  Uiso   1.00
O40    O     0.40485   0.07271   0.28685   0.00000  Uiso   1.00
N41    N     0.27145   0.13094   0.70160   0.00000  Uiso   1.00
N42    N     0.95973   0.29359   0.18506   0.00000  Uiso   1.00
N43    N     0.55458   0.13994   0.14664   0.00000  Uiso   1.00
N44    N     0.27364   0.03538   0.60384   0.00000  Uiso   1.00
N45    N     0.96192   0.19803   0.08730   0.00000  Uiso   1.00
N46    N     0.55677   0.04438   0.04888   0.00000  Uiso   1.00
C47    C     0.42840   0.69655   0.68644   0.00000  Uiso   1.00
C48    C     0.52347   0.65511   0.66675   0.00000  Uiso   1.00
C49    C     0.60219   0.67350   0.70463   0.00000  Uiso   1.00
C50    C     0.68247   0.62864   0.67782   0.00000  Uiso   1.00
C51    C     0.82990   0.57359   0.65668   0.00000  Uiso   1.00
C52    C     0.43758   0.69994   0.52437   0.00000  Uiso   1.00
C53    C     0.44406   0.75602   0.44255   0.00000  Uiso   1.00
C54    C     0.45202   0.74889   0.29590   0.00000  Uiso   1.00
C55    C     0.46602   0.76345   0.05375   0.00000  Uiso   1.00
C56    C     0.32593   0.65759   0.78939   0.00000  Uiso   1.00
C57    C     0.23852   0.67807   0.93039   0.00000  Uiso   1.00
C58    C     0.15247   0.63530   0.00684   0.00000  Uiso   1.00
C59    C     0.99312   0.58410   0.17619   0.00000  Uiso   1.00
C60    C     0.43098   0.58417   0.57147   0.00000  Uiso   1.00
C61    C     0.52487   0.59407   0.60430   0.00000  Uiso   1.00
C62    C     0.60504   0.54917   0.57743   0.00000  Uiso   1.00
C63    C     0.68387   0.56749   0.61527   0.00000  Uiso   1.00
C64    C     0.43898   0.63890   0.46192   0.00000  Uiso   1.00
C65    C     0.44692   0.63169   0.31535   0.00000  Uiso   1.00
C66    C     0.45342   0.68775   0.23333   0.00000  Uiso   1.00
C67    C     0.32733   0.59655   0.72694   0.00000  Uiso   1.00
C68    C     0.24138   0.55374   0.80319   0.00000  Uiso   1.00
C69    C     0.15387   0.57415   0.94428   0.00000  Uiso   1.00
H70    H     0.42731   0.74407   0.73504   0.00000  Uiso   1.00
H71    H     0.60109   0.72074   0.75294   0.00000  Uiso   1.00
H72    H     0.44297   0.80325   0.49091   0.00000  Uiso   1.00
H73    H     0.23747   0.72531   0.97867   0.00000  Uiso   1.00
H74    H     0.79439   0.66797   0.74519   0.00000  Uiso   1.00
H75    H     0.46095   0.84194   0.19272   0.00000  Uiso   1.00
H76    H     0.02761   0.67759   0.22125   0.00000  Uiso   1.00
H77    H     0.43207   0.53665   0.52284   0.00000  Uiso   1.00
H78    H     0.60611   0.50194   0.52910   0.00000  Uiso   1.00
H79    H     0.44799   0.58445   0.26707   0.00000  Uiso   1.00
H80    H     0.24249   0.50651   0.75483   0.00000  Uiso   1.00
H81    H     0.79847   0.49039   0.56351   0.00000  Uiso   1.00
H82    H     0.46502   0.66436   0.01103   0.00000  Uiso   1.00
H83    H     0.03169   0.50000   0.03957   0.00000  Uiso   1.00
O84    O     0.91085   0.56010   0.66225   0.00000  Uiso   1.00
O85    O     0.47337   0.78834   0.93744   0.00000  Uiso   1.00
O86    O     0.90485   0.57271   0.28685   0.00000  Uiso   1.00
N87    N     0.77145   0.63094   0.70160   0.00000  Uiso   1.00
N88    N     0.45973   0.79359   0.18506   0.00000  Uiso   1.00
N89    N     0.05458   0.63994   0.14664   0.00000  Uiso   1.00
N90    N     0.77364   0.53538   0.60384   0.00000  Uiso   1.00
N91    N     0.46192   0.69803   0.08730   0.00000  Uiso   1.00
N92    N     0.05677   0.54438   0.04888   0.00000  Uiso   1.00
C93    C     0.92840   0.80345   0.18644   0.00000  Uiso   1.00
C94    C     0.02347   0.84489   0.16675   0.00000  Uiso   1.00
C95    C     0.10219   0.82650   0.20463   0.00000  Uiso   1.00
C96    C     0.18247   0.87136   0.17782   0.00000  Uiso   1.00
C97    C     0.32990   0.92641   0.15668   0.00000  Uiso   1.00
C98    C     0.93758   0.80006   0.02437   0.00000  Uiso   1.00
C99    C     0.94406   0.74398   0.94255   0.00000  Uiso   1.00
C100   C     0.95202   0.75111   0.79590   0.00000  Uiso   1.00
C101   C     0.96602   0.73655   0.55375   0.00000  Uiso   1.00
C102   C     0.82593   0.84241   0.28939   0.00000  Uiso   1.00
C103   C     0.73852   0.82193   0.43039   0.00000  Uiso   1.00
C104   C     0.65247   0.86470   0.50684   0.00000  Uiso   1.00
C105   C     0.49312   0.91590   0.67619   0.00000  Uiso   1.00
C106   C     0.93098   0.91583   0.07147   0.00000  Uiso   1.00
C107   C     0.02487   0.90593   0.10430   0.00000  Uiso   1.00
C108   C     0.10504   0.95083   0.07743   0.00000  Uiso   1.00
C109   C     0.18387   0.93251   0.11527   0.00000  Uiso   1.00
C110   C     0.93898   0.86110   0.96192   0.00000  Uiso   1.00
C111   C     0.94692   0.86831   0.81535   0.00000  Uiso   1.00
C112   C     0.95342   0.81225   0.73333   0.00000  Uiso   1.00
C113   C     0.82733   0.90345   0.22694   0.00000  Uiso   1.00
C114   C     0.74138   0.94626   0.30319   0.00000  Uiso   1.00
C115   C     0.65387   0.92585   0.44428   0.00000  Uiso   1.00
H116   H     0.92731   0.75593   0.23504   0.00000  Uiso   1.00
H117   H     0.10109   0.77926   0.25294   0.00000  Uiso   1.00
H118   H     0.94297   0.69675   0.99091   0.00000  Uiso   1.00
H119   H     0.73747   0.77469   0.47867   0.00000  Uiso   1.00
H120   H     0.29439   0.83203   0.24519   0.00000  Uiso   1.00
H121   H     0.96095   0.65806   0.69272   0.00000  Uiso   1.00
H122   H     0.52761   0.82241   0.72125   0.00000  Uiso   1.00
H123   H     0.93207   0.96335   0.02284   0.00000  Uiso   1.00
H124   H     0.10611   0.99806   0.02910   0.00000  Uiso   1.00
H125   H     0.94799   0.91555   0.76707   0.00000  Uiso   1.00
H126   H     0.74249   0.99349   0.25483   0.00000  Uiso   1.00
H127   H     0.29847   0.00961   0.06351   0.00000  Uiso   1.00
H128   H     0.96502   0.83564   0.51103   0.00000  Uiso   1.00
H129   H     0.53169  -0.00000   0.53957   0.00000  Uiso   1.00
O130   O     0.41085   0.93990   0.16225   0.00000  Uiso   1.00
O131   O     0.97337   0.71166   0.43744   0.00000  Uiso   1.00
O132   O     0.40485   0.92729   0.78685   0.00000  Uiso   1.00
N133   N     0.27145   0.86906   0.20160   0.00000  Uiso   1.00
N134   N     0.95973   0.70641   0.68506   0.00000  Uiso   1.00
N135   N     0.55458   0.86006   0.64664   0.00000  Uiso   1.00
N136   N     0.27364   0.96462   0.10384   0.00000  Uiso   1.00
N137   N     0.96192   0.80197   0.58730   0.00000  Uiso   1.00
N138   N     0.55677   0.95562   0.54888   0.00000  Uiso   1.00
C139   C     0.42840   0.30345   0.18644   0.00000  Uiso   1.00
C140   C     0.52347   0.34489   0.16675   0.00000  Uiso   1.00
C141   C     0.60219   0.32650   0.20463   0.00000  Uiso   1.00
C142   C     0.68247   0.37136   0.17782   0.00000  Uiso   1.00
C143   C     0.82990   0.42641   0.15668   0.00000  Uiso   1.00
C144   C     0.43758   0.30006   0.02437   0.00000  Uiso   1.00
C145   C     0.44406   0.24398   0.94255   0.00000  Uiso   1.00
C146   C     0.45202   0.25111   0.79590   0.00000  Uiso   1.00
C147   C     0.46602   0.23655   0.55375   0.00000  Uiso   1.00
C148   C     0.32593   0.34241   0.28939   0.00000  Uiso   1.00
C149   C     0.23852   0.32193   0.43039   0.00000  Uiso   1.00
C150   C     0.15247   0.36470   0.50684   0.00000  Uiso   1.00
C151   C     0.99312   0.41590   0.67619   0.00000  Uiso   1.00
C152   C     0.43098   0.41583   0.07147   0.00000  Uiso   1.00
C153   C     0.52487   0.40593   0.10430   0.00000  Uiso   1.00
C154   C     0.60504   0.45083   0.07743   0.00000  Uiso   1.00
C155   C     0.68387   0.43251   0.11527   0.00000  Uiso   1.00
C156   C     0.43898   0.36110   0.96192   0.00000  Uiso   1.00
C157   C     0.44692   0.36831   0.81535   0.00000  Uiso   1.00
C158   C     0.45342   0.31225   0.73333   0.00000  Uiso   1.00
C159   C     0.32733   0.40345   0.22694   0.00000  Uiso   1.00
C160   C     0.24138   0.44626   0.30319   0.00000  Uiso   1.00
C161   C     0.15387   0.42585   0.44428   0.00000  Uiso   1.00
H162   H     0.42731   0.25593   0.23504   0.00000  Uiso   1.00
H163   H     0.60109   0.27926   0.25294   0.00000  Uiso   1.00
H164   H     0.44297   0.19675   0.99091   0.00000  Uiso   1.00
H165   H     0.23747   0.27469   0.47867   0.00000  Uiso   1.00
H166   H     0.79439   0.33203   0.24519   0.00000  Uiso   1.00
H167   H     0.46095   0.15806   0.69272   0.00000  Uiso   1.00
H168   H     0.02761   0.32241   0.72125   0.00000  Uiso   1.00
H169   H     0.43207   0.46335   0.02284   0.00000  Uiso   1.00
H170   H     0.60611   0.49806   0.02910   0.00000  Uiso   1.00
H171   H     0.44799   0.41555   0.76707   0.00000  Uiso   1.00
H172   H     0.24249   0.49349   0.25483   0.00000  Uiso   1.00
H173   H     0.79847   0.50961   0.06351   0.00000  Uiso   1.00
H174   H     0.46502   0.33564   0.51103   0.00000  Uiso   1.00
H175   H     0.03169   0.50000   0.53957   0.00000  Uiso   1.00
O176   O     0.91085   0.43990   0.16225   0.00000  Uiso   1.00
O177   O     0.47337   0.21166   0.43744   0.00000  Uiso   1.00
O178   O     0.90485   0.42729   0.78685   0.00000  Uiso   1.00
N179   N     0.77145   0.36906   0.20160   0.00000  Uiso   1.00
N180   N     0.45973   0.20641   0.68506   0.00000  Uiso   1.00
N181   N     0.05458   0.36006   0.64664   0.00000  Uiso   1.00
N182   N     0.77364   0.46462   0.10384   0.00000  Uiso   1.00
N183   N     0.46192   0.30197   0.58730   0.00000  Uiso   1.00
N184   N     0.05677   0.45562   0.54888   0.00000  Uiso   1.00
