data_job_01790
_audit_creation_date              2018-12-19
_audit_creation_method            'Materials Studio'
_symmetry_space_group_name_H-M    'P1'
_symmetry_Int_Tables_number       1
_symmetry_cell_setting            triclinic
loop_
_symmetry_equiv_pos_as_xyz
  x,y,z
_cell_length_a                    30.4118
_cell_length_b                    8.1535
_cell_length_c                    9.8577
_cell_angle_alpha                 90.0000
_cell_angle_beta                  89.8315
_cell_angle_gamma                 90.0000
loop_
_atom_site_label
_atom_site_type_symbol
_atom_site_fract_x
_atom_site_fract_y
_atom_site_fract_z
_atom_site_U_iso_or_equiv
_atom_site_adp_type
_atom_site_occupancy
C1     C     0.86615   0.47146   0.44948   0.00000  Uiso   1.00
C2     C     0.87703   0.34553   0.34005   0.00000  Uiso   1.00
C3     C     0.87576   0.37269   0.20114   0.00000  Uiso   1.00
C4     C     0.88689   0.24174   0.11780   0.00000  Uiso   1.00
C5     C     0.90199   0.06944   0.93970   0.00000  Uiso   1.00
C6     C     0.90660   0.48125   0.54018   0.00000  Uiso   1.00
C7     C     0.93018   0.62251   0.56956   0.00000  Uiso   1.00
C8     C     0.96619   0.60581   0.65471   0.00000  Uiso   1.00
C9     C     0.02717   0.64423   0.78740   0.00000  Uiso   1.00
C10    C     0.82990   0.39515   0.53607   0.00000  Uiso   1.00
C11    C     0.78900   0.46405   0.56203   0.00000  Uiso   1.00
C12    C     0.76044   0.37487   0.64375   0.00000  Uiso   1.00
C13    C     0.70235   0.27961   0.77005   0.00000  Uiso   1.00
C14    C     0.88816   0.19063   0.54850   0.00000  Uiso   1.00
C15    C     0.88899   0.19300   0.39384   0.00000  Uiso   1.00
C16    C     0.90011   0.06197   0.31069   0.00000  Uiso   1.00
C17    C     0.89886   0.08893   0.17168   0.00000  Uiso   1.00
C18    C     0.91855   0.32872   0.59397   0.00000  Uiso   1.00
C19    C     0.95453   0.31180   0.67910   0.00000  Uiso   1.00
C20    C     0.97817   0.45300   0.70859   0.00000  Uiso   1.00
C21    C     0.84185   0.24261   0.58986   0.00000  Uiso   1.00
C22    C     0.81335   0.15332   0.67156   0.00000  Uiso   1.00
C23    C     0.77242   0.22206   0.69763   0.00000  Uiso   1.00
H24    H     0.85684   0.59022   0.40762   0.00000  Uiso   1.00
H25    H     0.86651   0.49076   0.15956   0.00000  Uiso   1.00
H26    H     0.92092   0.74054   0.52793   0.00000  Uiso   1.00
H27    H     0.77976   0.58209   0.52039   0.00000  Uiso   1.00
H28    H     0.88253   0.31323   0.90826   0.00000  Uiso   1.00
H29    H     0.99723   0.83992   0.68502   0.00000  Uiso   1.00
H30    H     0.69958   0.50580   0.66913   0.00000  Uiso   1.00
H31    H     0.89746   0.07187   0.59038   0.00000  Uiso   1.00
H32    H     0.90936   0.94394   0.35233   0.00000  Uiso   1.00
H33    H     0.96377   0.19374   0.72071   0.00000  Uiso   1.00
H34    H     0.82262   0.03529   0.71317   0.00000  Uiso   1.00
H35    H     0.91731   0.86942   0.06472   0.00000  Uiso   1.00
H36    H     0.03201   0.39612   0.84150   0.00000  Uiso   1.00
H37    H     0.73436   0.06199   0.82559   0.00000  Uiso   1.00
O38    O     0.90703   0.01654   0.82660   0.00000  Uiso   1.00
O39    O     0.05751   0.70756   0.84571   0.00000  Uiso   1.00
O40    O     0.66700   0.26919   0.82485   0.00000  Uiso   1.00
N41    N     0.88907   0.22632   0.97775   0.00000  Uiso   1.00
N42    N     0.99632   0.71875   0.70396   0.00000  Uiso   1.00
N43    N     0.71804   0.40639   0.68913   0.00000  Uiso   1.00
N44    N     0.90778   0.98751   0.06194   0.00000  Uiso   1.00
N45    N     0.01503   0.47994   0.78815   0.00000  Uiso   1.00
N46    N     0.73676   0.16758   0.77332   0.00000  Uiso   1.00
C47    C     0.36615   0.97146   0.44948   0.00000  Uiso   1.00
C48    C     0.37703   0.84553   0.34005   0.00000  Uiso   1.00
C49    C     0.37576   0.87269   0.20114   0.00000  Uiso   1.00
C50    C     0.38689   0.74174   0.11780   0.00000  Uiso   1.00
C51    C     0.40199   0.56944   0.93970   0.00000  Uiso   1.00
C52    C     0.40660   0.98125   0.54018   0.00000  Uiso   1.00
C53    C     0.43018   0.12251   0.56956   0.00000  Uiso   1.00
C54    C     0.46619   0.10581   0.65471   0.00000  Uiso   1.00
C55    C     0.52717   0.14423   0.78740   0.00000  Uiso   1.00
C56    C     0.32990   0.89515   0.53607   0.00000  Uiso   1.00
C57    C     0.28900   0.96405   0.56203   0.00000  Uiso   1.00
C58    C     0.26044   0.87487   0.64375   0.00000  Uiso   1.00
C59    C     0.20235   0.77961   0.77005   0.00000  Uiso   1.00
C60    C     0.38816   0.69063   0.54850   0.00000  Uiso   1.00
C61    C     0.38899   0.69300   0.39384   0.00000  Uiso   1.00
C62    C     0.40011   0.56197   0.31069   0.00000  Uiso   1.00
C63    C     0.39886   0.58893   0.17168   0.00000  Uiso   1.00
C64    C     0.41855   0.82872   0.59397   0.00000  Uiso   1.00
C65    C     0.45453   0.81180   0.67910   0.00000  Uiso   1.00
C66    C     0.47817   0.95300   0.70859   0.00000  Uiso   1.00
C67    C     0.34185   0.74261   0.58986   0.00000  Uiso   1.00
C68    C     0.31335   0.65332   0.67156   0.00000  Uiso   1.00
C69    C     0.27242   0.72206   0.69763   0.00000  Uiso   1.00
H70    H     0.35684   0.09022   0.40762   0.00000  Uiso   1.00
H71    H     0.36651   0.99076   0.15956   0.00000  Uiso   1.00
H72    H     0.42092   0.24054   0.52793   0.00000  Uiso   1.00
H73    H     0.27976   0.08209   0.52039   0.00000  Uiso   1.00
H74    H     0.38253   0.81323   0.90826   0.00000  Uiso   1.00
H75    H     0.49723   0.33992   0.68502   0.00000  Uiso   1.00
H76    H     0.19958   0.00580   0.66913   0.00000  Uiso   1.00
H77    H     0.39746   0.57187   0.59038   0.00000  Uiso   1.00
H78    H     0.40936   0.44394   0.35233   0.00000  Uiso   1.00
H79    H     0.46377   0.69374   0.72071   0.00000  Uiso   1.00
H80    H     0.32262   0.53529   0.71317   0.00000  Uiso   1.00
H81    H     0.41731   0.36942   0.06472   0.00000  Uiso   1.00
H82    H     0.53201   0.89612   0.84150   0.00000  Uiso   1.00
H83    H     0.23436   0.56199   0.82559   0.00000  Uiso   1.00
O84    O     0.40703   0.51654   0.82660   0.00000  Uiso   1.00
O85    O     0.55751   0.20756   0.84571   0.00000  Uiso   1.00
O86    O     0.16700   0.76919   0.82485   0.00000  Uiso   1.00
N87    N     0.38907   0.72632   0.97775   0.00000  Uiso   1.00
N88    N     0.49632   0.21875   0.70396   0.00000  Uiso   1.00
N89    N     0.21804   0.90639   0.68913   0.00000  Uiso   1.00
N90    N     0.40778   0.48751   0.06194   0.00000  Uiso   1.00
N91    N     0.51503   0.97994   0.78815   0.00000  Uiso   1.00
N92    N     0.23676   0.66758   0.77332   0.00000  Uiso   1.00
C93    C     0.13385   0.47146   0.55052   0.00000  Uiso   1.00
C94    C     0.12297   0.34553   0.65995   0.00000  Uiso   1.00
C95    C     0.12424   0.37269   0.79886   0.00000  Uiso   1.00
C96    C     0.11311   0.24174   0.88220   0.00000  Uiso   1.00
C97    C     0.09801   0.06944   0.06030   0.00000  Uiso   1.00
C98    C     0.09340   0.48125   0.45982   0.00000  Uiso   1.00
C99    C     0.06982   0.62251   0.43044   0.00000  Uiso   1.00
C100   C     0.03381   0.60581   0.34529   0.00000  Uiso   1.00
C101   C     0.97283   0.64423   0.21260   0.00000  Uiso   1.00
C102   C     0.17010   0.39515   0.46393   0.00000  Uiso   1.00
C103   C     0.21100   0.46405   0.43797   0.00000  Uiso   1.00
C104   C     0.23956   0.37487   0.35625   0.00000  Uiso   1.00
C105   C     0.29765   0.27961   0.22995   0.00000  Uiso   1.00
C106   C     0.11184   0.19063   0.45150   0.00000  Uiso   1.00
C107   C     0.11101   0.19300   0.60616   0.00000  Uiso   1.00
C108   C     0.09989   0.06197   0.68931   0.00000  Uiso   1.00
C109   C     0.10114   0.08893   0.82832   0.00000  Uiso   1.00
C110   C     0.08145   0.32872   0.40603   0.00000  Uiso   1.00
C111   C     0.04547   0.31180   0.32090   0.00000  Uiso   1.00
C112   C     0.02183   0.45300   0.29141   0.00000  Uiso   1.00
C113   C     0.15815   0.24261   0.41014   0.00000  Uiso   1.00
C114   C     0.18665   0.15332   0.32844   0.00000  Uiso   1.00
C115   C     0.22758   0.22206   0.30237   0.00000  Uiso   1.00
H116   H     0.14316   0.59022   0.59238   0.00000  Uiso   1.00
H117   H     0.13349   0.49076   0.84044   0.00000  Uiso   1.00
H118   H     0.07908   0.74054   0.47207   0.00000  Uiso   1.00
H119   H     0.22024   0.58209   0.47961   0.00000  Uiso   1.00
H120   H     0.11747   0.31323   0.09174   0.00000  Uiso   1.00
H121   H     0.00277   0.83992   0.31498   0.00000  Uiso   1.00
H122   H     0.30042   0.50580   0.33087   0.00000  Uiso   1.00
H123   H     0.10254   0.07187   0.40962   0.00000  Uiso   1.00
H124   H     0.09064   0.94394   0.64767   0.00000  Uiso   1.00
H125   H     0.03623   0.19374   0.27929   0.00000  Uiso   1.00
H126   H     0.17738   0.03529   0.28683   0.00000  Uiso   1.00
H127   H     0.08269   0.86942   0.93528   0.00000  Uiso   1.00
H128   H     0.96799   0.39612   0.15850   0.00000  Uiso   1.00
H129   H     0.26564   0.06199   0.17441   0.00000  Uiso   1.00
O130   O     0.09297   0.01654   0.17340   0.00000  Uiso   1.00
O131   O     0.94249   0.70756   0.15429   0.00000  Uiso   1.00
O132   O     0.33300   0.26919   0.17515   0.00000  Uiso   1.00
N133   N     0.11093   0.22632   0.02225   0.00000  Uiso   1.00
N134   N     0.00368   0.71875   0.29604   0.00000  Uiso   1.00
N135   N     0.28196   0.40639   0.31087   0.00000  Uiso   1.00
N136   N     0.09222   0.98751   0.93806   0.00000  Uiso   1.00
N137   N     0.98497   0.47994   0.21185   0.00000  Uiso   1.00
N138   N     0.26324   0.16758   0.22668   0.00000  Uiso   1.00
C139   C     0.63385   0.97146   0.55052   0.00000  Uiso   1.00
C140   C     0.62297   0.84553   0.65995   0.00000  Uiso   1.00
C141   C     0.62424   0.87269   0.79886   0.00000  Uiso   1.00
C142   C     0.61311   0.74174   0.88220   0.00000  Uiso   1.00
C143   C     0.59801   0.56944   0.06030   0.00000  Uiso   1.00
C144   C     0.59340   0.98125   0.45982   0.00000  Uiso   1.00
C145   C     0.56982   0.12251   0.43044   0.00000  Uiso   1.00
C146   C     0.53381   0.10581   0.34529   0.00000  Uiso   1.00
C147   C     0.47283   0.14423   0.21260   0.00000  Uiso   1.00
C148   C     0.67010   0.89515   0.46393   0.00000  Uiso   1.00
C149   C     0.71100   0.96405   0.43797   0.00000  Uiso   1.00
C150   C     0.73956   0.87487   0.35625   0.00000  Uiso   1.00
C151   C     0.79765   0.77961   0.22995   0.00000  Uiso   1.00
C152   C     0.61184   0.69063   0.45150   0.00000  Uiso   1.00
C153   C     0.61101   0.69300   0.60616   0.00000  Uiso   1.00
C154   C     0.59989   0.56197   0.68931   0.00000  Uiso   1.00
C155   C     0.60114   0.58893   0.82832   0.00000  Uiso   1.00
C156   C     0.58145   0.82872   0.40603   0.00000  Uiso   1.00
C157   C     0.54547   0.81180   0.32090   0.00000  Uiso   1.00
C158   C     0.52183   0.95300   0.29141   0.00000  Uiso   1.00
C159   C     0.65815   0.74261   0.41014   0.00000  Uiso   1.00
C160   C     0.68665   0.65332   0.32844   0.00000  Uiso   1.00
C161   C     0.72758   0.72206   0.30237   0.00000  Uiso   1.00
H162   H     0.64316   0.09022   0.59238   0.00000  Uiso   1.00
H163   H     0.63349   0.99076   0.84044   0.00000  Uiso   1.00
H164   H     0.57908   0.24054   0.47207   0.00000  Uiso   1.00
H165   H     0.72024   0.08209   0.47961   0.00000  Uiso   1.00
H166   H     0.61747   0.81323   0.09174   0.00000  Uiso   1.00
H167   H     0.50277   0.33992   0.31498   0.00000  Uiso   1.00
H168   H     0.80042   0.00580   0.33087   0.00000  Uiso   1.00
H169   H     0.60254   0.57187   0.40962   0.00000  Uiso   1.00
H170   H     0.59064   0.44394   0.64767   0.00000  Uiso   1.00
H171   H     0.53623   0.69374   0.27929   0.00000  Uiso   1.00
H172   H     0.67738   0.53529   0.28683   0.00000  Uiso   1.00
H173   H     0.58269   0.36942   0.93528   0.00000  Uiso   1.00
H174   H     0.46799   0.89612   0.15850   0.00000  Uiso   1.00
H175   H     0.76564   0.56199   0.17441   0.00000  Uiso   1.00
O176   O     0.59297   0.51654   0.17340   0.00000  Uiso   1.00
O177   O     0.44249   0.20756   0.15429   0.00000  Uiso   1.00
O178   O     0.83300   0.76919   0.17515   0.00000  Uiso   1.00
N179   N     0.61093   0.72632   0.02225   0.00000  Uiso   1.00
N180   N     0.50368   0.21875   0.29604   0.00000  Uiso   1.00
N181   N     0.78196   0.90639   0.31087   0.00000  Uiso   1.00
N182   N     0.59222   0.48751   0.93806   0.00000  Uiso   1.00
N183   N     0.48497   0.97994   0.21185   0.00000  Uiso   1.00
N184   N     0.76324   0.66758   0.22668   0.00000  Uiso   1.00
