data_job_03934
_audit_creation_date              2018-12-19
_audit_creation_method            'Materials Studio'
_symmetry_space_group_name_H-M    'P1'
_symmetry_Int_Tables_number       1
_symmetry_cell_setting            triclinic
loop_
_symmetry_equiv_pos_as_xyz
  x,y,z
_cell_length_a                    21.9217
_cell_length_b                    16.6454
_cell_length_c                    22.9300
_cell_angle_alpha                 90.0000
_cell_angle_beta                  90.0000
_cell_angle_gamma                 90.0000
loop_
_atom_site_label
_atom_site_type_symbol
_atom_site_fract_x
_atom_site_fract_y
_atom_site_fract_z
_atom_site_U_iso_or_equiv
_atom_site_adp_type
_atom_site_occupancy
C1     C     0.93001   0.15277   0.31168   0.00000  Uiso   1.00
C2     C     0.95182   0.07912   0.34529   0.00000  Uiso   1.00
C3     C     0.99207   0.02137   0.32467   0.00000  Uiso   1.00
C4     C     0.00631   0.95857   0.36213   0.00000  Uiso   1.00
C5     C     0.04397   0.84492   0.40578   0.00000  Uiso   1.00
C6     C     0.86055   0.14797   0.31098   0.00000  Uiso   1.00
C7     C     0.82406   0.14812   0.26152   0.00000  Uiso   1.00
C8     C     0.76147   0.14329   0.27011   0.00000  Uiso   1.00
C9     C     0.65743   0.13659   0.26050   0.00000  Uiso   1.00
C10    C     0.94596   0.22517   0.34946   0.00000  Uiso   1.00
C11    C     0.98126   0.29024   0.33235   0.00000  Uiso   1.00
C12    C     0.99056   0.35042   0.37333   0.00000  Uiso   1.00
C13    C     0.01913   0.46359   0.42347   0.00000  Uiso   1.00
C14    C     0.88374   0.14395   0.41485   0.00000  Uiso   1.00
C15    C     0.92669   0.07433   0.40133   0.00000  Uiso   1.00
C16    C     0.94088   0.01161   0.43883   0.00000  Uiso   1.00
C17    C     0.98114   0.95377   0.41827   0.00000  Uiso   1.00
C18    C     0.83542   0.14318   0.36702   0.00000  Uiso   1.00
C19    C     0.77287   0.13836   0.37568   0.00000  Uiso   1.00
C20    C     0.73629   0.13849   0.32625   0.00000  Uiso   1.00
C21    C     0.92083   0.22038   0.40551   0.00000  Uiso   1.00
C22    C     0.93007   0.28048   0.44651   0.00000  Uiso   1.00
C23    C     0.96539   0.34563   0.42947   0.00000  Uiso   1.00
H24    H     0.94957   0.15650   0.26804   0.00000  Uiso   1.00
H25    H     0.01150   0.02509   0.28130   0.00000  Uiso   1.00
H26    H     0.84352   0.15183   0.21816   0.00000  Uiso   1.00
H27    H     0.00070   0.29393   0.28898   0.00000  Uiso   1.00
H28    H     0.06905   0.87727   0.32070   0.00000  Uiso   1.00
H29    H     0.71486   0.14454   0.18757   0.00000  Uiso   1.00
H30    H     0.04630   0.44418   0.33691   0.00000  Uiso   1.00
H31    H     0.86418   0.14022   0.45849   0.00000  Uiso   1.00
H32    H     0.92142   0.00792   0.48219   0.00000  Uiso   1.00
H33    H     0.75344   0.13466   0.41905   0.00000  Uiso   1.00
H34    H     0.91062   0.27675   0.48988   0.00000  Uiso   1.00
H35    H     0.99594   0.86333   0.48375   0.00000  Uiso   1.00
H36    H     0.64174   0.13060   0.35062   0.00000  Uiso   1.00
H37    H     0.97319   0.43024   0.49996   0.00000  Uiso   1.00
O38    O     0.07168   0.78355   0.41438   0.00000  Uiso   1.00
O39    O     0.60698   0.13421   0.23972   0.00000  Uiso   1.00
O40    O     0.04183   0.52733   0.43565   0.00000  Uiso   1.00
N41    N     0.04400   0.89216   0.35583   0.00000  Uiso   1.00
N42    N     0.71285   0.14202   0.23136   0.00000  Uiso   1.00
N43    N     0.02271   0.42217   0.37097   0.00000  Uiso   1.00
N44    N     0.00466   0.88466   0.44356   0.00000  Uiso   1.00
N45    N     0.67350   0.13452   0.31910   0.00000  Uiso   1.00
N46    N     0.98337   0.41467   0.45871   0.00000  Uiso   1.00
C47    C     0.56999   0.34723   0.31168   0.00000  Uiso   1.00
C48    C     0.54818   0.42088   0.34529   0.00000  Uiso   1.00
C49    C     0.50793   0.47863   0.32467   0.00000  Uiso   1.00
C50    C     0.49369   0.54143   0.36213   0.00000  Uiso   1.00
C51    C     0.45603   0.65508   0.40578   0.00000  Uiso   1.00
C52    C     0.63945   0.35203   0.31098   0.00000  Uiso   1.00
C53    C     0.67594   0.35188   0.26152   0.00000  Uiso   1.00
C54    C     0.73853   0.35671   0.27011   0.00000  Uiso   1.00
C55    C     0.84257   0.36341   0.26050   0.00000  Uiso   1.00
C56    C     0.55404   0.27483   0.34946   0.00000  Uiso   1.00
C57    C     0.51874   0.20976   0.33235   0.00000  Uiso   1.00
C58    C     0.50944   0.14958   0.37333   0.00000  Uiso   1.00
C59    C     0.48087   0.03641   0.42347   0.00000  Uiso   1.00
C60    C     0.61626   0.35605   0.41485   0.00000  Uiso   1.00
C61    C     0.57331   0.42567   0.40133   0.00000  Uiso   1.00
C62    C     0.55912   0.48839   0.43883   0.00000  Uiso   1.00
C63    C     0.51886   0.54623   0.41827   0.00000  Uiso   1.00
C64    C     0.66458   0.35682   0.36702   0.00000  Uiso   1.00
C65    C     0.72713   0.36164   0.37568   0.00000  Uiso   1.00
C66    C     0.76371   0.36151   0.32625   0.00000  Uiso   1.00
C67    C     0.57917   0.27962   0.40551   0.00000  Uiso   1.00
C68    C     0.56993   0.21952   0.44651   0.00000  Uiso   1.00
C69    C     0.53461   0.15437   0.42947   0.00000  Uiso   1.00
H70    H     0.55043   0.34350   0.26804   0.00000  Uiso   1.00
H71    H     0.48850   0.47491   0.28130   0.00000  Uiso   1.00
H72    H     0.65648   0.34817   0.21816   0.00000  Uiso   1.00
H73    H     0.49930   0.20607   0.28898   0.00000  Uiso   1.00
H74    H     0.43095   0.62273   0.32070   0.00000  Uiso   1.00
H75    H     0.78514   0.35546   0.18757   0.00000  Uiso   1.00
H76    H     0.45370   0.05582   0.33691   0.00000  Uiso   1.00
H77    H     0.63582   0.35978   0.45849   0.00000  Uiso   1.00
H78    H     0.57858   0.49208   0.48219   0.00000  Uiso   1.00
H79    H     0.74656   0.36534   0.41905   0.00000  Uiso   1.00
H80    H     0.58938   0.22325   0.48988   0.00000  Uiso   1.00
H81    H     0.50406   0.63667   0.48375   0.00000  Uiso   1.00
H82    H     0.85826   0.36940   0.35062   0.00000  Uiso   1.00
H83    H     0.52681   0.06976   0.49996   0.00000  Uiso   1.00
O84    O     0.42832   0.71645   0.41438   0.00000  Uiso   1.00
O85    O     0.89302   0.36579   0.23972   0.00000  Uiso   1.00
O86    O     0.45817   0.97267   0.43565   0.00000  Uiso   1.00
N87    N     0.45600   0.60784   0.35583   0.00000  Uiso   1.00
N88    N     0.78715   0.35798   0.23136   0.00000  Uiso   1.00
N89    N     0.47729   0.07783   0.37097   0.00000  Uiso   1.00
N90    N     0.49534   0.61534   0.44356   0.00000  Uiso   1.00
N91    N     0.82650   0.36548   0.31910   0.00000  Uiso   1.00
N92    N     0.51663   0.08533   0.45871   0.00000  Uiso   1.00
C93    C     0.06999   0.65277   0.18832   0.00000  Uiso   1.00
C94    C     0.04818   0.57912   0.15471   0.00000  Uiso   1.00
C95    C     0.00793   0.52137   0.17533   0.00000  Uiso   1.00
C96    C     0.99369   0.45857   0.13787   0.00000  Uiso   1.00
C97    C     0.95603   0.34492   0.09422   0.00000  Uiso   1.00
C98    C     0.13945   0.64797   0.18902   0.00000  Uiso   1.00
C99    C     0.17594   0.64812   0.23848   0.00000  Uiso   1.00
C100   C     0.23853   0.64329   0.22989   0.00000  Uiso   1.00
C101   C     0.34257   0.63659   0.23950   0.00000  Uiso   1.00
C102   C     0.05404   0.72517   0.15054   0.00000  Uiso   1.00
C103   C     0.01874   0.79024   0.16765   0.00000  Uiso   1.00
C104   C     0.00944   0.85042   0.12667   0.00000  Uiso   1.00
C105   C     0.98087   0.96359   0.07653   0.00000  Uiso   1.00
C106   C     0.11626   0.64395   0.08515   0.00000  Uiso   1.00
C107   C     0.07331   0.57433   0.09867   0.00000  Uiso   1.00
C108   C     0.05912   0.51161   0.06117   0.00000  Uiso   1.00
C109   C     0.01886   0.45377   0.08173   0.00000  Uiso   1.00
C110   C     0.16458   0.64318   0.13298   0.00000  Uiso   1.00
C111   C     0.22713   0.63836   0.12432   0.00000  Uiso   1.00
C112   C     0.26371   0.63849   0.17375   0.00000  Uiso   1.00
C113   C     0.07917   0.72038   0.09449   0.00000  Uiso   1.00
C114   C     0.06993   0.78048   0.05349   0.00000  Uiso   1.00
C115   C     0.03461   0.84563   0.07053   0.00000  Uiso   1.00
H116   H     0.05043   0.65650   0.23196   0.00000  Uiso   1.00
H117   H     0.98850   0.52509   0.21870   0.00000  Uiso   1.00
H118   H     0.15648   0.65183   0.28184   0.00000  Uiso   1.00
H119   H     0.99930   0.79393   0.21102   0.00000  Uiso   1.00
H120   H     0.93095   0.37727   0.17930   0.00000  Uiso   1.00
H121   H     0.28514   0.64454   0.31243   0.00000  Uiso   1.00
H122   H     0.95370   0.94418   0.16309   0.00000  Uiso   1.00
H123   H     0.13582   0.64022   0.04151   0.00000  Uiso   1.00
H124   H     0.07858   0.50792   0.01781   0.00000  Uiso   1.00
H125   H     0.24656   0.63466   0.08095   0.00000  Uiso   1.00
H126   H     0.08938   0.77675   0.01012   0.00000  Uiso   1.00
H127   H     0.00406   0.36333   0.01625   0.00000  Uiso   1.00
H128   H     0.35826   0.63060   0.14938   0.00000  Uiso   1.00
H129   H     0.02681   0.93024   0.00004   0.00000  Uiso   1.00
O130   O     0.92832   0.28355   0.08562   0.00000  Uiso   1.00
O131   O     0.39302   0.63421   0.26028   0.00000  Uiso   1.00
O132   O     0.95817   0.02733   0.06435   0.00000  Uiso   1.00
N133   N     0.95600   0.39216   0.14417   0.00000  Uiso   1.00
N134   N     0.28715   0.64202   0.26864   0.00000  Uiso   1.00
N135   N     0.97729   0.92217   0.12903   0.00000  Uiso   1.00
N136   N     0.99534   0.38466   0.05644   0.00000  Uiso   1.00
N137   N     0.32650   0.63452   0.18090   0.00000  Uiso   1.00
N138   N     0.01663   0.91467   0.04129   0.00000  Uiso   1.00
C139   C     0.43001   0.84723   0.18832   0.00000  Uiso   1.00
C140   C     0.45182   0.92088   0.15471   0.00000  Uiso   1.00
C141   C     0.49207   0.97863   0.17533   0.00000  Uiso   1.00
C142   C     0.50631   0.04143   0.13787   0.00000  Uiso   1.00
C143   C     0.54397   0.15508   0.09422   0.00000  Uiso   1.00
C144   C     0.36055   0.85203   0.18902   0.00000  Uiso   1.00
C145   C     0.32406   0.85188   0.23848   0.00000  Uiso   1.00
C146   C     0.26147   0.85671   0.22989   0.00000  Uiso   1.00
C147   C     0.15743   0.86341   0.23950   0.00000  Uiso   1.00
C148   C     0.44596   0.77483   0.15054   0.00000  Uiso   1.00
C149   C     0.48126   0.70976   0.16765   0.00000  Uiso   1.00
C150   C     0.49056   0.64958   0.12667   0.00000  Uiso   1.00
C151   C     0.51913   0.53641   0.07653   0.00000  Uiso   1.00
C152   C     0.38374   0.85605   0.08515   0.00000  Uiso   1.00
C153   C     0.42669   0.92567   0.09867   0.00000  Uiso   1.00
C154   C     0.44088   0.98839   0.06117   0.00000  Uiso   1.00
C155   C     0.48114   0.04623   0.08173   0.00000  Uiso   1.00
C156   C     0.33542   0.85682   0.13298   0.00000  Uiso   1.00
C157   C     0.27287   0.86164   0.12432   0.00000  Uiso   1.00
C158   C     0.23629   0.86151   0.17375   0.00000  Uiso   1.00
C159   C     0.42083   0.77962   0.09449   0.00000  Uiso   1.00
C160   C     0.43007   0.71952   0.05349   0.00000  Uiso   1.00
C161   C     0.46539   0.65437   0.07053   0.00000  Uiso   1.00
H162   H     0.44957   0.84350   0.23196   0.00000  Uiso   1.00
H163   H     0.51150   0.97491   0.21870   0.00000  Uiso   1.00
H164   H     0.34352   0.84817   0.28184   0.00000  Uiso   1.00
H165   H     0.50070   0.70607   0.21102   0.00000  Uiso   1.00
H166   H     0.56905   0.12273   0.17930   0.00000  Uiso   1.00
H167   H     0.21486   0.85546   0.31243   0.00000  Uiso   1.00
H168   H     0.54630   0.55582   0.16309   0.00000  Uiso   1.00
H169   H     0.36418   0.85978   0.04151   0.00000  Uiso   1.00
H170   H     0.42142   0.99208   0.01781   0.00000  Uiso   1.00
H171   H     0.25344   0.86534   0.08095   0.00000  Uiso   1.00
H172   H     0.41062   0.72325   0.01012   0.00000  Uiso   1.00
H173   H     0.49594   0.13667   0.01625   0.00000  Uiso   1.00
H174   H     0.14174   0.86940   0.14938   0.00000  Uiso   1.00
H175   H     0.47319   0.56976   0.00004   0.00000  Uiso   1.00
O176   O     0.57168   0.21645   0.08562   0.00000  Uiso   1.00
O177   O     0.10698   0.86579   0.26028   0.00000  Uiso   1.00
O178   O     0.54183   0.47267   0.06435   0.00000  Uiso   1.00
N179   N     0.54400   0.10784   0.14417   0.00000  Uiso   1.00
N180   N     0.21285   0.85798   0.26864   0.00000  Uiso   1.00
N181   N     0.52271   0.57783   0.12903   0.00000  Uiso   1.00
N182   N     0.50466   0.11534   0.05644   0.00000  Uiso   1.00
N183   N     0.17350   0.86548   0.18090   0.00000  Uiso   1.00
N184   N     0.48337   0.58533   0.04129   0.00000  Uiso   1.00
C185   C     0.06999   0.84723   0.68832   0.00000  Uiso   1.00
C186   C     0.04818   0.92088   0.65471   0.00000  Uiso   1.00
C187   C     0.00793   0.97863   0.67533   0.00000  Uiso   1.00
C188   C     0.99369   0.04143   0.63787   0.00000  Uiso   1.00
C189   C     0.95603   0.15508   0.59422   0.00000  Uiso   1.00
C190   C     0.13945   0.85203   0.68902   0.00000  Uiso   1.00
C191   C     0.17594   0.85188   0.73848   0.00000  Uiso   1.00
C192   C     0.23853   0.85671   0.72989   0.00000  Uiso   1.00
C193   C     0.34257   0.86341   0.73950   0.00000  Uiso   1.00
C194   C     0.05404   0.77483   0.65054   0.00000  Uiso   1.00
C195   C     0.01874   0.70976   0.66765   0.00000  Uiso   1.00
C196   C     0.00944   0.64958   0.62667   0.00000  Uiso   1.00
C197   C     0.98087   0.53641   0.57653   0.00000  Uiso   1.00
C198   C     0.11626   0.85605   0.58515   0.00000  Uiso   1.00
C199   C     0.07331   0.92567   0.59867   0.00000  Uiso   1.00
C200   C     0.05912   0.98839   0.56117   0.00000  Uiso   1.00
C201   C     0.01886   0.04623   0.58173   0.00000  Uiso   1.00
C202   C     0.16458   0.85682   0.63298   0.00000  Uiso   1.00
C203   C     0.22713   0.86164   0.62432   0.00000  Uiso   1.00
C204   C     0.26371   0.86151   0.67375   0.00000  Uiso   1.00
C205   C     0.07917   0.77962   0.59449   0.00000  Uiso   1.00
C206   C     0.06993   0.71952   0.55349   0.00000  Uiso   1.00
C207   C     0.03461   0.65437   0.57053   0.00000  Uiso   1.00
H208   H     0.05043   0.84350   0.73196   0.00000  Uiso   1.00
H209   H     0.98850   0.97491   0.71870   0.00000  Uiso   1.00
H210   H     0.15648   0.84817   0.78184   0.00000  Uiso   1.00
H211   H     0.99930   0.70607   0.71102   0.00000  Uiso   1.00
H212   H     0.93095   0.12273   0.67930   0.00000  Uiso   1.00
H213   H     0.28514   0.85546   0.81243   0.00000  Uiso   1.00
H214   H     0.95370   0.55582   0.66309   0.00000  Uiso   1.00
H215   H     0.13582   0.85978   0.54151   0.00000  Uiso   1.00
H216   H     0.07858   0.99208   0.51781   0.00000  Uiso   1.00
H217   H     0.24656   0.86534   0.58095   0.00000  Uiso   1.00
H218   H     0.08938   0.72325   0.51012   0.00000  Uiso   1.00
H219   H     0.00406   0.13667   0.51625   0.00000  Uiso   1.00
H220   H     0.35826   0.86940   0.64938   0.00000  Uiso   1.00
H221   H     0.02681   0.56976   0.50004   0.00000  Uiso   1.00
O222   O     0.92832   0.21645   0.58562   0.00000  Uiso   1.00
O223   O     0.39302   0.86579   0.76028   0.00000  Uiso   1.00
O224   O     0.95817   0.47267   0.56435   0.00000  Uiso   1.00
N225   N     0.95600   0.10784   0.64417   0.00000  Uiso   1.00
N226   N     0.28715   0.85798   0.76864   0.00000  Uiso   1.00
N227   N     0.97729   0.57783   0.62903   0.00000  Uiso   1.00
N228   N     0.99534   0.11534   0.55644   0.00000  Uiso   1.00
N229   N     0.32650   0.86548   0.68090   0.00000  Uiso   1.00
N230   N     0.01663   0.58533   0.54129   0.00000  Uiso   1.00
C231   C     0.43001   0.65277   0.68832   0.00000  Uiso   1.00
C232   C     0.45182   0.57912   0.65471   0.00000  Uiso   1.00
C233   C     0.49207   0.52137   0.67533   0.00000  Uiso   1.00
C234   C     0.50631   0.45857   0.63787   0.00000  Uiso   1.00
C235   C     0.54397   0.34492   0.59422   0.00000  Uiso   1.00
C236   C     0.36055   0.64797   0.68902   0.00000  Uiso   1.00
C237   C     0.32406   0.64812   0.73848   0.00000  Uiso   1.00
C238   C     0.26147   0.64329   0.72989   0.00000  Uiso   1.00
C239   C     0.15743   0.63659   0.73950   0.00000  Uiso   1.00
C240   C     0.44596   0.72517   0.65054   0.00000  Uiso   1.00
C241   C     0.48126   0.79024   0.66765   0.00000  Uiso   1.00
C242   C     0.49056   0.85042   0.62667   0.00000  Uiso   1.00
C243   C     0.51913   0.96359   0.57653   0.00000  Uiso   1.00
C244   C     0.38374   0.64395   0.58515   0.00000  Uiso   1.00
C245   C     0.42669   0.57433   0.59867   0.00000  Uiso   1.00
C246   C     0.44088   0.51161   0.56117   0.00000  Uiso   1.00
C247   C     0.48114   0.45377   0.58173   0.00000  Uiso   1.00
C248   C     0.33542   0.64318   0.63298   0.00000  Uiso   1.00
C249   C     0.27287   0.63836   0.62432   0.00000  Uiso   1.00
C250   C     0.23629   0.63849   0.67375   0.00000  Uiso   1.00
C251   C     0.42083   0.72038   0.59449   0.00000  Uiso   1.00
C252   C     0.43007   0.78048   0.55349   0.00000  Uiso   1.00
C253   C     0.46539   0.84563   0.57053   0.00000  Uiso   1.00
H254   H     0.44957   0.65650   0.73196   0.00000  Uiso   1.00
H255   H     0.51150   0.52509   0.71870   0.00000  Uiso   1.00
H256   H     0.34352   0.65183   0.78184   0.00000  Uiso   1.00
H257   H     0.50070   0.79393   0.71102   0.00000  Uiso   1.00
H258   H     0.56905   0.37727   0.67930   0.00000  Uiso   1.00
H259   H     0.21486   0.64454   0.81243   0.00000  Uiso   1.00
H260   H     0.54630   0.94418   0.66309   0.00000  Uiso   1.00
H261   H     0.36418   0.64022   0.54151   0.00000  Uiso   1.00
H262   H     0.42142   0.50792   0.51781   0.00000  Uiso   1.00
H263   H     0.25344   0.63466   0.58095   0.00000  Uiso   1.00
H264   H     0.41062   0.77675   0.51012   0.00000  Uiso   1.00
H265   H     0.49594   0.36333   0.51625   0.00000  Uiso   1.00
H266   H     0.14174   0.63060   0.64938   0.00000  Uiso   1.00
H267   H     0.47319   0.93024   0.50004   0.00000  Uiso   1.00
O268   O     0.57168   0.28355   0.58562   0.00000  Uiso   1.00
O269   O     0.10698   0.63421   0.76028   0.00000  Uiso   1.00
O270   O     0.54183   0.02733   0.56435   0.00000  Uiso   1.00
N271   N     0.54400   0.39216   0.64417   0.00000  Uiso   1.00
N272   N     0.21285   0.64202   0.76864   0.00000  Uiso   1.00
N273   N     0.52271   0.92217   0.62903   0.00000  Uiso   1.00
N274   N     0.50466   0.38466   0.55644   0.00000  Uiso   1.00
N275   N     0.17350   0.63452   0.68090   0.00000  Uiso   1.00
N276   N     0.48337   0.91467   0.54129   0.00000  Uiso   1.00
C277   C     0.93001   0.34723   0.81168   0.00000  Uiso   1.00
C278   C     0.95182   0.42088   0.84529   0.00000  Uiso   1.00
C279   C     0.99207   0.47863   0.82467   0.00000  Uiso   1.00
C280   C     0.00631   0.54143   0.86213   0.00000  Uiso   1.00
C281   C     0.04397   0.65508   0.90578   0.00000  Uiso   1.00
C282   C     0.86055   0.35203   0.81098   0.00000  Uiso   1.00
C283   C     0.82406   0.35188   0.76152   0.00000  Uiso   1.00
C284   C     0.76147   0.35671   0.77011   0.00000  Uiso   1.00
C285   C     0.65743   0.36341   0.76050   0.00000  Uiso   1.00
C286   C     0.94596   0.27483   0.84946   0.00000  Uiso   1.00
C287   C     0.98126   0.20976   0.83235   0.00000  Uiso   1.00
C288   C     0.99056   0.14958   0.87333   0.00000  Uiso   1.00
C289   C     0.01913   0.03641   0.92347   0.00000  Uiso   1.00
C290   C     0.88374   0.35605   0.91485   0.00000  Uiso   1.00
C291   C     0.92669   0.42567   0.90133   0.00000  Uiso   1.00
C292   C     0.94088   0.48839   0.93883   0.00000  Uiso   1.00
C293   C     0.98114   0.54623   0.91827   0.00000  Uiso   1.00
C294   C     0.83542   0.35682   0.86702   0.00000  Uiso   1.00
C295   C     0.77287   0.36164   0.87568   0.00000  Uiso   1.00
C296   C     0.73629   0.36151   0.82625   0.00000  Uiso   1.00
C297   C     0.92083   0.27962   0.90551   0.00000  Uiso   1.00
C298   C     0.93007   0.21952   0.94651   0.00000  Uiso   1.00
C299   C     0.96539   0.15437   0.92947   0.00000  Uiso   1.00
H300   H     0.94957   0.34350   0.76804   0.00000  Uiso   1.00
H301   H     0.01150   0.47491   0.78130   0.00000  Uiso   1.00
H302   H     0.84352   0.34817   0.71816   0.00000  Uiso   1.00
H303   H     0.00070   0.20607   0.78898   0.00000  Uiso   1.00
H304   H     0.06905   0.62273   0.82070   0.00000  Uiso   1.00
H305   H     0.71486   0.35546   0.68757   0.00000  Uiso   1.00
H306   H     0.04630   0.05582   0.83691   0.00000  Uiso   1.00
H307   H     0.86418   0.35978   0.95849   0.00000  Uiso   1.00
H308   H     0.92142   0.49208   0.98219   0.00000  Uiso   1.00
H309   H     0.75344   0.36534   0.91905   0.00000  Uiso   1.00
H310   H     0.91062   0.22325   0.98988   0.00000  Uiso   1.00
H311   H     0.99594   0.63667   0.98375   0.00000  Uiso   1.00
H312   H     0.64174   0.36940   0.85062   0.00000  Uiso   1.00
H313   H     0.97319   0.06976   0.99996   0.00000  Uiso   1.00
O314   O     0.07168   0.71645   0.91438   0.00000  Uiso   1.00
O315   O     0.60698   0.36579   0.73972   0.00000  Uiso   1.00
O316   O     0.04183   0.97267   0.93565   0.00000  Uiso   1.00
N317   N     0.04400   0.60784   0.85583   0.00000  Uiso   1.00
N318   N     0.71285   0.35798   0.73136   0.00000  Uiso   1.00
N319   N     0.02271   0.07783   0.87097   0.00000  Uiso   1.00
N320   N     0.00466   0.61534   0.94356   0.00000  Uiso   1.00
N321   N     0.67350   0.36548   0.81910   0.00000  Uiso   1.00
N322   N     0.98337   0.08533   0.95871   0.00000  Uiso   1.00
C323   C     0.56999   0.15277   0.81168   0.00000  Uiso   1.00
C324   C     0.54818   0.07912   0.84529   0.00000  Uiso   1.00
C325   C     0.50793   0.02137   0.82467   0.00000  Uiso   1.00
C326   C     0.49369   0.95857   0.86213   0.00000  Uiso   1.00
C327   C     0.45603   0.84492   0.90578   0.00000  Uiso   1.00
C328   C     0.63945   0.14797   0.81098   0.00000  Uiso   1.00
C329   C     0.67594   0.14812   0.76152   0.00000  Uiso   1.00
C330   C     0.73853   0.14329   0.77011   0.00000  Uiso   1.00
C331   C     0.84257   0.13659   0.76050   0.00000  Uiso   1.00
C332   C     0.55404   0.22517   0.84946   0.00000  Uiso   1.00
C333   C     0.51874   0.29024   0.83235   0.00000  Uiso   1.00
C334   C     0.50944   0.35042   0.87333   0.00000  Uiso   1.00
C335   C     0.48087   0.46359   0.92347   0.00000  Uiso   1.00
C336   C     0.61626   0.14395   0.91485   0.00000  Uiso   1.00
C337   C     0.57331   0.07433   0.90133   0.00000  Uiso   1.00
C338   C     0.55912   0.01161   0.93883   0.00000  Uiso   1.00
C339   C     0.51886   0.95377   0.91827   0.00000  Uiso   1.00
C340   C     0.66458   0.14318   0.86702   0.00000  Uiso   1.00
C341   C     0.72713   0.13836   0.87568   0.00000  Uiso   1.00
C342   C     0.76371   0.13849   0.82625   0.00000  Uiso   1.00
C343   C     0.57917   0.22038   0.90551   0.00000  Uiso   1.00
C344   C     0.56993   0.28048   0.94651   0.00000  Uiso   1.00
C345   C     0.53461   0.34563   0.92947   0.00000  Uiso   1.00
H346   H     0.55043   0.15650   0.76804   0.00000  Uiso   1.00
H347   H     0.48850   0.02509   0.78130   0.00000  Uiso   1.00
H348   H     0.65648   0.15183   0.71816   0.00000  Uiso   1.00
H349   H     0.49930   0.29393   0.78898   0.00000  Uiso   1.00
H350   H     0.43095   0.87727   0.82070   0.00000  Uiso   1.00
H351   H     0.78514   0.14454   0.68757   0.00000  Uiso   1.00
H352   H     0.45370   0.44418   0.83691   0.00000  Uiso   1.00
H353   H     0.63582   0.14022   0.95849   0.00000  Uiso   1.00
H354   H     0.57858   0.00792   0.98219   0.00000  Uiso   1.00
H355   H     0.74656   0.13466   0.91905   0.00000  Uiso   1.00
H356   H     0.58938   0.27675   0.98988   0.00000  Uiso   1.00
H357   H     0.50406   0.86333   0.98375   0.00000  Uiso   1.00
H358   H     0.85826   0.13060   0.85062   0.00000  Uiso   1.00
H359   H     0.52681   0.43024   0.99996   0.00000  Uiso   1.00
O360   O     0.42832   0.78355   0.91438   0.00000  Uiso   1.00
O361   O     0.89302   0.13421   0.73972   0.00000  Uiso   1.00
O362   O     0.45817   0.52733   0.93565   0.00000  Uiso   1.00
N363   N     0.45600   0.89216   0.85583   0.00000  Uiso   1.00
N364   N     0.78715   0.14202   0.73136   0.00000  Uiso   1.00
N365   N     0.47729   0.42217   0.87097   0.00000  Uiso   1.00
N366   N     0.49534   0.88466   0.94356   0.00000  Uiso   1.00
N367   N     0.82650   0.13452   0.81910   0.00000  Uiso   1.00
N368   N     0.51663   0.41467   0.95871   0.00000  Uiso   1.00
