data_job_02458
_audit_creation_date              2018-12-19
_audit_creation_method            'Materials Studio'
_symmetry_space_group_name_H-M    'P1'
_symmetry_Int_Tables_number       1
_symmetry_cell_setting            triclinic
loop_
_symmetry_equiv_pos_as_xyz
  x,y,z
_cell_length_a                    33.1429
_cell_length_b                    21.0497
_cell_length_c                    17.5552
_cell_angle_alpha                 90.0000
_cell_angle_beta                  111.4148
_cell_angle_gamma                 90.0000
loop_
_atom_site_label
_atom_site_type_symbol
_atom_site_fract_x
_atom_site_fract_y
_atom_site_fract_z
_atom_site_U_iso_or_equiv
_atom_site_adp_type
_atom_site_occupancy
C1     C     0.72230   0.07327   0.97999   0.00000  Uiso   1.00
C2     C     0.74004   0.11281   0.05799   0.00000  Uiso   1.00
C3     C     0.77859   0.14678   0.08405   0.00000  Uiso   1.00
C4     C     0.78911   0.17992   0.15713   0.00000  Uiso   1.00
C5     C     0.82080   0.24141   0.27137   0.00000  Uiso   1.00
C6     C     0.71549   0.00655   0.00695   0.00000  Uiso   1.00
C7     C     0.73339   0.95118   0.99008   0.00000  Uiso   1.00
C8     C     0.72324   0.89487   0.02019   0.00000  Uiso   1.00
C9     C     0.71678   0.79139   0.05514   0.00000  Uiso   1.00
C10    C     0.67718   0.09938   0.93224   0.00000  Uiso   1.00
C11    C     0.66286   0.12206   0.85253   0.00000  Uiso   1.00
C12    C     0.62045   0.14389   0.81973   0.00000  Uiso   1.00
C13    C     0.55451   0.18455   0.73866   0.00000  Uiso   1.00
C14    C     0.67243   0.07171   0.06346   0.00000  Uiso   1.00
C15    C     0.71296   0.11196   0.10333   0.00000  Uiso   1.00
C16    C     0.72342   0.14505   0.17639   0.00000  Uiso   1.00
C17    C     0.76197   0.17907   0.20255   0.00000  Uiso   1.00
C18    C     0.68841   0.00570   0.05229   0.00000  Uiso   1.00
C19    C     0.67822   0.94945   0.08243   0.00000  Uiso   1.00
C20    C     0.69610   0.89402   0.06561   0.00000  Uiso   1.00
C21    C     0.65010   0.09853   0.97757   0.00000  Uiso   1.00
C22    C     0.60769   0.12033   0.94488   0.00000  Uiso   1.00
C23    C     0.59331   0.14304   0.86514   0.00000  Uiso   1.00
H24    H     0.74338   0.07393   0.94470   0.00000  Uiso   1.00
H25    H     0.79954   0.14742   0.04895   0.00000  Uiso   1.00
H26    H     0.75435   0.95186   0.95499   0.00000  Uiso   1.00
H27    H     0.68383   0.12271   0.81747   0.00000  Uiso   1.00
H28    H     0.84987   0.22851   0.18454   0.00000  Uiso   1.00
H29    H     0.75456   0.81615   0.98640   0.00000  Uiso   1.00
H30    H     0.60586   0.17641   0.69639   0.00000  Uiso   1.00
H31    H     0.65135   0.07104   0.09876   0.00000  Uiso   1.00
H32    H     0.70246   0.14438   0.21146   0.00000  Uiso   1.00
H33    H     0.65726   0.94881   0.11750   0.00000  Uiso   1.00
H34    H     0.58674   0.11966   0.97998   0.00000  Uiso   1.00
H35    H     0.77107   0.22604   0.31644   0.00000  Uiso   1.00
H36    H     0.67576   0.81367   0.11830   0.00000  Uiso   1.00
H37    H     0.52706   0.17394   0.82830   0.00000  Uiso   1.00
O38    O     0.84576   0.27556   0.32187   0.00000  Uiso   1.00
O39    O     0.72071   0.73455   0.06190   0.00000  Uiso   1.00
O40    O     0.52562   0.20721   0.68143   0.00000  Uiso   1.00
N41    N     0.82431   0.21788   0.20011   0.00000  Uiso   1.00
N42    N     0.73520   0.83234   0.01487   0.00000  Uiso   1.00
N43    N     0.59618   0.16914   0.74373   0.00000  Uiso   1.00
N44    N     0.78190   0.21655   0.27108   0.00000  Uiso   1.00
N45    N     0.69280   0.83101   0.08584   0.00000  Uiso   1.00
N46    N     0.55378   0.16782   0.81471   0.00000  Uiso   1.00
C47    C     0.22230   0.57327   0.97999   0.00000  Uiso   1.00
C48    C     0.24004   0.61281   0.05799   0.00000  Uiso   1.00
C49    C     0.27859   0.64678   0.08405   0.00000  Uiso   1.00
C50    C     0.28911   0.67992   0.15713   0.00000  Uiso   1.00
C51    C     0.32080   0.74141   0.27137   0.00000  Uiso   1.00
C52    C     0.21549   0.50655   0.00695   0.00000  Uiso   1.00
C53    C     0.23339   0.45118   0.99008   0.00000  Uiso   1.00
C54    C     0.22324   0.39487   0.02019   0.00000  Uiso   1.00
C55    C     0.21678   0.29139   0.05514   0.00000  Uiso   1.00
C56    C     0.17718   0.59938   0.93224   0.00000  Uiso   1.00
C57    C     0.16286   0.62206   0.85253   0.00000  Uiso   1.00
C58    C     0.12045   0.64389   0.81973   0.00000  Uiso   1.00
C59    C     0.05451   0.68455   0.73866   0.00000  Uiso   1.00
C60    C     0.17243   0.57171   0.06346   0.00000  Uiso   1.00
C61    C     0.21296   0.61196   0.10333   0.00000  Uiso   1.00
C62    C     0.22342   0.64505   0.17639   0.00000  Uiso   1.00
C63    C     0.26197   0.67907   0.20255   0.00000  Uiso   1.00
C64    C     0.18841   0.50570   0.05229   0.00000  Uiso   1.00
C65    C     0.17822   0.44945   0.08243   0.00000  Uiso   1.00
C66    C     0.19610   0.39402   0.06561   0.00000  Uiso   1.00
C67    C     0.15010   0.59853   0.97757   0.00000  Uiso   1.00
C68    C     0.10769   0.62033   0.94488   0.00000  Uiso   1.00
C69    C     0.09331   0.64304   0.86514   0.00000  Uiso   1.00
H70    H     0.24338   0.57393   0.94470   0.00000  Uiso   1.00
H71    H     0.29954   0.64742   0.04895   0.00000  Uiso   1.00
H72    H     0.25435   0.45186   0.95499   0.00000  Uiso   1.00
H73    H     0.18383   0.62271   0.81747   0.00000  Uiso   1.00
H74    H     0.34987   0.72851   0.18454   0.00000  Uiso   1.00
H75    H     0.25456   0.31615   0.98640   0.00000  Uiso   1.00
H76    H     0.10586   0.67641   0.69639   0.00000  Uiso   1.00
H77    H     0.15135   0.57104   0.09876   0.00000  Uiso   1.00
H78    H     0.20246   0.64438   0.21146   0.00000  Uiso   1.00
H79    H     0.15726   0.44881   0.11750   0.00000  Uiso   1.00
H80    H     0.08674   0.61966   0.97998   0.00000  Uiso   1.00
H81    H     0.27107   0.72604   0.31644   0.00000  Uiso   1.00
H82    H     0.17576   0.31367   0.11830   0.00000  Uiso   1.00
H83    H     0.02706   0.67394   0.82830   0.00000  Uiso   1.00
O84    O     0.34576   0.77556   0.32187   0.00000  Uiso   1.00
O85    O     0.22071   0.23455   0.06190   0.00000  Uiso   1.00
O86    O     0.02562   0.70721   0.68143   0.00000  Uiso   1.00
N87    N     0.32431   0.71788   0.20011   0.00000  Uiso   1.00
N88    N     0.23520   0.33234   0.01487   0.00000  Uiso   1.00
N89    N     0.09618   0.66914   0.74373   0.00000  Uiso   1.00
N90    N     0.28190   0.71655   0.27108   0.00000  Uiso   1.00
N91    N     0.19280   0.33101   0.08584   0.00000  Uiso   1.00
N92    N     0.05378   0.66782   0.81471   0.00000  Uiso   1.00
C93    C     0.27770   0.07327   0.52001   0.00000  Uiso   1.00
C94    C     0.25996   0.11281   0.44201   0.00000  Uiso   1.00
C95    C     0.22141   0.14678   0.41595   0.00000  Uiso   1.00
C96    C     0.21089   0.17992   0.34287   0.00000  Uiso   1.00
C97    C     0.17920   0.24141   0.22863   0.00000  Uiso   1.00
C98    C     0.28451   0.00655   0.49305   0.00000  Uiso   1.00
C99    C     0.26661   0.95118   0.50992   0.00000  Uiso   1.00
C100   C     0.27676   0.89487   0.47981   0.00000  Uiso   1.00
C101   C     0.28322   0.79139   0.44486   0.00000  Uiso   1.00
C102   C     0.32282   0.09938   0.56776   0.00000  Uiso   1.00
C103   C     0.33714   0.12206   0.64747   0.00000  Uiso   1.00
C104   C     0.37955   0.14389   0.68027   0.00000  Uiso   1.00
C105   C     0.44549   0.18455   0.76134   0.00000  Uiso   1.00
C106   C     0.32757   0.07171   0.43654   0.00000  Uiso   1.00
C107   C     0.28704   0.11196   0.39667   0.00000  Uiso   1.00
C108   C     0.27658   0.14505   0.32361   0.00000  Uiso   1.00
C109   C     0.23803   0.17907   0.29745   0.00000  Uiso   1.00
C110   C     0.31159   0.00570   0.44771   0.00000  Uiso   1.00
C111   C     0.32178   0.94945   0.41757   0.00000  Uiso   1.00
C112   C     0.30390   0.89402   0.43439   0.00000  Uiso   1.00
C113   C     0.34990   0.09853   0.52243   0.00000  Uiso   1.00
C114   C     0.39231   0.12033   0.55512   0.00000  Uiso   1.00
C115   C     0.40669   0.14304   0.63486   0.00000  Uiso   1.00
H116   H     0.25662   0.07393   0.55530   0.00000  Uiso   1.00
H117   H     0.20046   0.14742   0.45105   0.00000  Uiso   1.00
H118   H     0.24565   0.95186   0.54501   0.00000  Uiso   1.00
H119   H     0.31617   0.12271   0.68253   0.00000  Uiso   1.00
H120   H     0.15013   0.22851   0.31546   0.00000  Uiso   1.00
H121   H     0.24544   0.81615   0.51360   0.00000  Uiso   1.00
H122   H     0.39414   0.17641   0.80361   0.00000  Uiso   1.00
H123   H     0.34865   0.07104   0.40124   0.00000  Uiso   1.00
H124   H     0.29754   0.14438   0.28854   0.00000  Uiso   1.00
H125   H     0.34274   0.94881   0.38250   0.00000  Uiso   1.00
H126   H     0.41326   0.11966   0.52002   0.00000  Uiso   1.00
H127   H     0.22893   0.22604   0.18356   0.00000  Uiso   1.00
H128   H     0.32424   0.81367   0.38170   0.00000  Uiso   1.00
H129   H     0.47294   0.17394   0.67170   0.00000  Uiso   1.00
O130   O     0.15424   0.27556   0.17813   0.00000  Uiso   1.00
O131   O     0.27929   0.73455   0.43810   0.00000  Uiso   1.00
O132   O     0.47438   0.20721   0.81857   0.00000  Uiso   1.00
N133   N     0.17569   0.21788   0.29989   0.00000  Uiso   1.00
N134   N     0.26480   0.83234   0.48513   0.00000  Uiso   1.00
N135   N     0.40382   0.16914   0.75627   0.00000  Uiso   1.00
N136   N     0.21810   0.21655   0.22892   0.00000  Uiso   1.00
N137   N     0.30720   0.83101   0.41416   0.00000  Uiso   1.00
N138   N     0.44622   0.16782   0.68529   0.00000  Uiso   1.00
C139   C     0.77770   0.57327   0.52001   0.00000  Uiso   1.00
C140   C     0.75996   0.61281   0.44201   0.00000  Uiso   1.00
C141   C     0.72141   0.64678   0.41595   0.00000  Uiso   1.00
C142   C     0.71089   0.67992   0.34287   0.00000  Uiso   1.00
C143   C     0.67920   0.74141   0.22863   0.00000  Uiso   1.00
C144   C     0.78451   0.50655   0.49305   0.00000  Uiso   1.00
C145   C     0.76661   0.45118   0.50992   0.00000  Uiso   1.00
C146   C     0.77676   0.39487   0.47981   0.00000  Uiso   1.00
C147   C     0.78322   0.29139   0.44486   0.00000  Uiso   1.00
C148   C     0.82282   0.59938   0.56776   0.00000  Uiso   1.00
C149   C     0.83714   0.62206   0.64747   0.00000  Uiso   1.00
C150   C     0.87955   0.64389   0.68027   0.00000  Uiso   1.00
C151   C     0.94549   0.68455   0.76134   0.00000  Uiso   1.00
C152   C     0.82757   0.57171   0.43654   0.00000  Uiso   1.00
C153   C     0.78704   0.61196   0.39667   0.00000  Uiso   1.00
C154   C     0.77658   0.64505   0.32361   0.00000  Uiso   1.00
C155   C     0.73803   0.67907   0.29745   0.00000  Uiso   1.00
C156   C     0.81159   0.50570   0.44771   0.00000  Uiso   1.00
C157   C     0.82178   0.44945   0.41757   0.00000  Uiso   1.00
C158   C     0.80390   0.39402   0.43439   0.00000  Uiso   1.00
C159   C     0.84990   0.59853   0.52243   0.00000  Uiso   1.00
C160   C     0.89231   0.62033   0.55512   0.00000  Uiso   1.00
C161   C     0.90669   0.64304   0.63486   0.00000  Uiso   1.00
H162   H     0.75662   0.57393   0.55530   0.00000  Uiso   1.00
H163   H     0.70046   0.64742   0.45105   0.00000  Uiso   1.00
H164   H     0.74565   0.45186   0.54501   0.00000  Uiso   1.00
H165   H     0.81617   0.62271   0.68253   0.00000  Uiso   1.00
H166   H     0.65013   0.72851   0.31546   0.00000  Uiso   1.00
H167   H     0.74544   0.31615   0.51360   0.00000  Uiso   1.00
H168   H     0.89414   0.67641   0.80361   0.00000  Uiso   1.00
H169   H     0.84865   0.57104   0.40124   0.00000  Uiso   1.00
H170   H     0.79754   0.64438   0.28854   0.00000  Uiso   1.00
H171   H     0.84274   0.44881   0.38250   0.00000  Uiso   1.00
H172   H     0.91326   0.61966   0.52002   0.00000  Uiso   1.00
H173   H     0.72893   0.72604   0.18356   0.00000  Uiso   1.00
H174   H     0.82424   0.31367   0.38170   0.00000  Uiso   1.00
H175   H     0.97294   0.67394   0.67170   0.00000  Uiso   1.00
O176   O     0.65424   0.77556   0.17813   0.00000  Uiso   1.00
O177   O     0.77929   0.23455   0.43810   0.00000  Uiso   1.00
O178   O     0.97438   0.70721   0.81857   0.00000  Uiso   1.00
N179   N     0.67569   0.71788   0.29989   0.00000  Uiso   1.00
N180   N     0.76480   0.33234   0.48513   0.00000  Uiso   1.00
N181   N     0.90382   0.66914   0.75627   0.00000  Uiso   1.00
N182   N     0.71810   0.71655   0.22892   0.00000  Uiso   1.00
N183   N     0.80720   0.33101   0.41416   0.00000  Uiso   1.00
N184   N     0.94622   0.66782   0.68529   0.00000  Uiso   1.00
C185   C     0.27770   0.92673   0.02001   0.00000  Uiso   1.00
C186   C     0.25996   0.88719   0.94201   0.00000  Uiso   1.00
C187   C     0.22141   0.85322   0.91595   0.00000  Uiso   1.00
C188   C     0.21089   0.82008   0.84287   0.00000  Uiso   1.00
C189   C     0.17920   0.75859   0.72863   0.00000  Uiso   1.00
C190   C     0.28451   0.99345   0.99305   0.00000  Uiso   1.00
C191   C     0.26661   0.04882   0.00992   0.00000  Uiso   1.00
C192   C     0.27676   0.10513   0.97981   0.00000  Uiso   1.00
C193   C     0.28322   0.20861   0.94486   0.00000  Uiso   1.00
C194   C     0.32282   0.90062   0.06776   0.00000  Uiso   1.00
C195   C     0.33714   0.87794   0.14747   0.00000  Uiso   1.00
C196   C     0.37955   0.85611   0.18027   0.00000  Uiso   1.00
C197   C     0.44549   0.81545   0.26134   0.00000  Uiso   1.00
C198   C     0.32757   0.92829   0.93654   0.00000  Uiso   1.00
C199   C     0.28704   0.88804   0.89667   0.00000  Uiso   1.00
C200   C     0.27658   0.85495   0.82361   0.00000  Uiso   1.00
C201   C     0.23803   0.82093   0.79745   0.00000  Uiso   1.00
C202   C     0.31159   0.99430   0.94771   0.00000  Uiso   1.00
C203   C     0.32178   0.05055   0.91757   0.00000  Uiso   1.00
C204   C     0.30390   0.10598   0.93439   0.00000  Uiso   1.00
C205   C     0.34990   0.90147   0.02243   0.00000  Uiso   1.00
C206   C     0.39231   0.87967   0.05512   0.00000  Uiso   1.00
C207   C     0.40669   0.85696   0.13486   0.00000  Uiso   1.00
H208   H     0.25662   0.92607   0.05530   0.00000  Uiso   1.00
H209   H     0.20046   0.85258   0.95105   0.00000  Uiso   1.00
H210   H     0.24565   0.04814   0.04501   0.00000  Uiso   1.00
H211   H     0.31617   0.87729   0.18253   0.00000  Uiso   1.00
H212   H     0.15013   0.77149   0.81546   0.00000  Uiso   1.00
H213   H     0.24544   0.18385   0.01360   0.00000  Uiso   1.00
H214   H     0.39414   0.82359   0.30361   0.00000  Uiso   1.00
H215   H     0.34865   0.92896   0.90124   0.00000  Uiso   1.00
H216   H     0.29754   0.85562   0.78854   0.00000  Uiso   1.00
H217   H     0.34274   0.05119   0.88250   0.00000  Uiso   1.00
H218   H     0.41326   0.88034   0.02002   0.00000  Uiso   1.00
H219   H     0.22893   0.77396   0.68356   0.00000  Uiso   1.00
H220   H     0.32424   0.18633   0.88170   0.00000  Uiso   1.00
H221   H     0.47294   0.82606   0.17170   0.00000  Uiso   1.00
O222   O     0.15424   0.72444   0.67813   0.00000  Uiso   1.00
O223   O     0.27929   0.26545   0.93810   0.00000  Uiso   1.00
O224   O     0.47438   0.79279   0.31857   0.00000  Uiso   1.00
N225   N     0.17569   0.78212   0.79989   0.00000  Uiso   1.00
N226   N     0.26480   0.16766   0.98513   0.00000  Uiso   1.00
N227   N     0.40382   0.83086   0.25627   0.00000  Uiso   1.00
N228   N     0.21810   0.78345   0.72892   0.00000  Uiso   1.00
N229   N     0.30720   0.16899   0.91416   0.00000  Uiso   1.00
N230   N     0.44622   0.83218   0.18529   0.00000  Uiso   1.00
C231   C     0.77770   0.42673   0.02001   0.00000  Uiso   1.00
C232   C     0.75996   0.38719   0.94201   0.00000  Uiso   1.00
C233   C     0.72141   0.35322   0.91595   0.00000  Uiso   1.00
C234   C     0.71089   0.32008   0.84287   0.00000  Uiso   1.00
C235   C     0.67920   0.25859   0.72863   0.00000  Uiso   1.00
C236   C     0.78451   0.49345   0.99305   0.00000  Uiso   1.00
C237   C     0.76661   0.54882   0.00992   0.00000  Uiso   1.00
C238   C     0.77676   0.60513   0.97981   0.00000  Uiso   1.00
C239   C     0.78322   0.70861   0.94486   0.00000  Uiso   1.00
C240   C     0.82282   0.40062   0.06776   0.00000  Uiso   1.00
C241   C     0.83714   0.37794   0.14747   0.00000  Uiso   1.00
C242   C     0.87955   0.35611   0.18027   0.00000  Uiso   1.00
C243   C     0.94549   0.31545   0.26134   0.00000  Uiso   1.00
C244   C     0.82757   0.42829   0.93654   0.00000  Uiso   1.00
C245   C     0.78704   0.38804   0.89667   0.00000  Uiso   1.00
C246   C     0.77658   0.35495   0.82361   0.00000  Uiso   1.00
C247   C     0.73803   0.32093   0.79745   0.00000  Uiso   1.00
C248   C     0.81159   0.49430   0.94771   0.00000  Uiso   1.00
C249   C     0.82178   0.55055   0.91757   0.00000  Uiso   1.00
C250   C     0.80390   0.60598   0.93439   0.00000  Uiso   1.00
C251   C     0.84990   0.40147   0.02243   0.00000  Uiso   1.00
C252   C     0.89231   0.37967   0.05512   0.00000  Uiso   1.00
C253   C     0.90669   0.35696   0.13486   0.00000  Uiso   1.00
H254   H     0.75662   0.42607   0.05530   0.00000  Uiso   1.00
H255   H     0.70046   0.35258   0.95105   0.00000  Uiso   1.00
H256   H     0.74565   0.54814   0.04501   0.00000  Uiso   1.00
H257   H     0.81617   0.37729   0.18253   0.00000  Uiso   1.00
H258   H     0.65013   0.27149   0.81546   0.00000  Uiso   1.00
H259   H     0.74544   0.68385   0.01360   0.00000  Uiso   1.00
H260   H     0.89414   0.32359   0.30361   0.00000  Uiso   1.00
H261   H     0.84865   0.42896   0.90124   0.00000  Uiso   1.00
H262   H     0.79754   0.35562   0.78854   0.00000  Uiso   1.00
H263   H     0.84274   0.55119   0.88250   0.00000  Uiso   1.00
H264   H     0.91326   0.38034   0.02002   0.00000  Uiso   1.00
H265   H     0.72893   0.27396   0.68356   0.00000  Uiso   1.00
H266   H     0.82424   0.68633   0.88170   0.00000  Uiso   1.00
H267   H     0.97294   0.32606   0.17170   0.00000  Uiso   1.00
O268   O     0.65424   0.22444   0.67813   0.00000  Uiso   1.00
O269   O     0.77929   0.76545   0.93810   0.00000  Uiso   1.00
O270   O     0.97438   0.29279   0.31857   0.00000  Uiso   1.00
N271   N     0.67569   0.28212   0.79989   0.00000  Uiso   1.00
N272   N     0.76480   0.66766   0.98513   0.00000  Uiso   1.00
N273   N     0.90382   0.33086   0.25627   0.00000  Uiso   1.00
N274   N     0.71810   0.28345   0.72892   0.00000  Uiso   1.00
N275   N     0.80720   0.66899   0.91416   0.00000  Uiso   1.00
N276   N     0.94622   0.33218   0.18529   0.00000  Uiso   1.00
C277   C     0.72230   0.92673   0.47999   0.00000  Uiso   1.00
C278   C     0.74004   0.88719   0.55799   0.00000  Uiso   1.00
C279   C     0.77859   0.85322   0.58405   0.00000  Uiso   1.00
C280   C     0.78911   0.82008   0.65713   0.00000  Uiso   1.00
C281   C     0.82080   0.75859   0.77137   0.00000  Uiso   1.00
C282   C     0.71549   0.99345   0.50695   0.00000  Uiso   1.00
C283   C     0.73339   0.04882   0.49008   0.00000  Uiso   1.00
C284   C     0.72324   0.10513   0.52019   0.00000  Uiso   1.00
C285   C     0.71678   0.20861   0.55514   0.00000  Uiso   1.00
C286   C     0.67718   0.90062   0.43224   0.00000  Uiso   1.00
C287   C     0.66286   0.87794   0.35253   0.00000  Uiso   1.00
C288   C     0.62045   0.85611   0.31973   0.00000  Uiso   1.00
C289   C     0.55451   0.81545   0.23866   0.00000  Uiso   1.00
C290   C     0.67243   0.92829   0.56346   0.00000  Uiso   1.00
C291   C     0.71296   0.88804   0.60333   0.00000  Uiso   1.00
C292   C     0.72342   0.85495   0.67639   0.00000  Uiso   1.00
C293   C     0.76197   0.82093   0.70255   0.00000  Uiso   1.00
C294   C     0.68841   0.99430   0.55229   0.00000  Uiso   1.00
C295   C     0.67822   0.05055   0.58243   0.00000  Uiso   1.00
C296   C     0.69610   0.10598   0.56561   0.00000  Uiso   1.00
C297   C     0.65010   0.90147   0.47757   0.00000  Uiso   1.00
C298   C     0.60769   0.87967   0.44488   0.00000  Uiso   1.00
C299   C     0.59331   0.85696   0.36514   0.00000  Uiso   1.00
H300   H     0.74338   0.92607   0.44470   0.00000  Uiso   1.00
H301   H     0.79954   0.85258   0.54895   0.00000  Uiso   1.00
H302   H     0.75435   0.04814   0.45499   0.00000  Uiso   1.00
H303   H     0.68383   0.87729   0.31747   0.00000  Uiso   1.00
H304   H     0.84987   0.77149   0.68454   0.00000  Uiso   1.00
H305   H     0.75456   0.18385   0.48640   0.00000  Uiso   1.00
H306   H     0.60586   0.82359   0.19639   0.00000  Uiso   1.00
H307   H     0.65135   0.92896   0.59876   0.00000  Uiso   1.00
H308   H     0.70246   0.85562   0.71146   0.00000  Uiso   1.00
H309   H     0.65726   0.05119   0.61750   0.00000  Uiso   1.00
H310   H     0.58674   0.88034   0.47998   0.00000  Uiso   1.00
H311   H     0.77107   0.77396   0.81644   0.00000  Uiso   1.00
H312   H     0.67576   0.18633   0.61830   0.00000  Uiso   1.00
H313   H     0.52706   0.82606   0.32830   0.00000  Uiso   1.00
O314   O     0.84576   0.72444   0.82187   0.00000  Uiso   1.00
O315   O     0.72071   0.26545   0.56190   0.00000  Uiso   1.00
O316   O     0.52562   0.79279   0.18143   0.00000  Uiso   1.00
N317   N     0.82431   0.78212   0.70011   0.00000  Uiso   1.00
N318   N     0.73520   0.16766   0.51487   0.00000  Uiso   1.00
N319   N     0.59618   0.83086   0.24373   0.00000  Uiso   1.00
N320   N     0.78190   0.78345   0.77108   0.00000  Uiso   1.00
N321   N     0.69280   0.16899   0.58584   0.00000  Uiso   1.00
N322   N     0.55378   0.83218   0.31471   0.00000  Uiso   1.00
C323   C     0.22230   0.42673   0.47999   0.00000  Uiso   1.00
C324   C     0.24004   0.38719   0.55799   0.00000  Uiso   1.00
C325   C     0.27859   0.35322   0.58405   0.00000  Uiso   1.00
C326   C     0.28911   0.32008   0.65713   0.00000  Uiso   1.00
C327   C     0.32080   0.25859   0.77137   0.00000  Uiso   1.00
C328   C     0.21549   0.49345   0.50695   0.00000  Uiso   1.00
C329   C     0.23339   0.54882   0.49008   0.00000  Uiso   1.00
C330   C     0.22324   0.60513   0.52019   0.00000  Uiso   1.00
C331   C     0.21678   0.70861   0.55514   0.00000  Uiso   1.00
C332   C     0.17718   0.40062   0.43224   0.00000  Uiso   1.00
C333   C     0.16286   0.37794   0.35253   0.00000  Uiso   1.00
C334   C     0.12045   0.35611   0.31973   0.00000  Uiso   1.00
C335   C     0.05451   0.31545   0.23866   0.00000  Uiso   1.00
C336   C     0.17243   0.42829   0.56346   0.00000  Uiso   1.00
C337   C     0.21296   0.38804   0.60333   0.00000  Uiso   1.00
C338   C     0.22342   0.35495   0.67639   0.00000  Uiso   1.00
C339   C     0.26197   0.32093   0.70255   0.00000  Uiso   1.00
C340   C     0.18841   0.49430   0.55229   0.00000  Uiso   1.00
C341   C     0.17822   0.55055   0.58243   0.00000  Uiso   1.00
C342   C     0.19610   0.60598   0.56561   0.00000  Uiso   1.00
C343   C     0.15010   0.40147   0.47757   0.00000  Uiso   1.00
C344   C     0.10769   0.37967   0.44488   0.00000  Uiso   1.00
C345   C     0.09331   0.35696   0.36514   0.00000  Uiso   1.00
H346   H     0.24338   0.42607   0.44470   0.00000  Uiso   1.00
H347   H     0.29954   0.35258   0.54895   0.00000  Uiso   1.00
H348   H     0.25435   0.54814   0.45499   0.00000  Uiso   1.00
H349   H     0.18383   0.37729   0.31747   0.00000  Uiso   1.00
H350   H     0.34987   0.27149   0.68454   0.00000  Uiso   1.00
H351   H     0.25456   0.68385   0.48640   0.00000  Uiso   1.00
H352   H     0.10586   0.32359   0.19639   0.00000  Uiso   1.00
H353   H     0.15135   0.42896   0.59876   0.00000  Uiso   1.00
H354   H     0.20246   0.35562   0.71146   0.00000  Uiso   1.00
H355   H     0.15726   0.55119   0.61750   0.00000  Uiso   1.00
H356   H     0.08674   0.38034   0.47998   0.00000  Uiso   1.00
H357   H     0.27107   0.27396   0.81644   0.00000  Uiso   1.00
H358   H     0.17576   0.68633   0.61830   0.00000  Uiso   1.00
H359   H     0.02706   0.32606   0.32830   0.00000  Uiso   1.00
O360   O     0.34576   0.22444   0.82187   0.00000  Uiso   1.00
O361   O     0.22071   0.76545   0.56190   0.00000  Uiso   1.00
O362   O     0.02562   0.29279   0.18143   0.00000  Uiso   1.00
N363   N     0.32431   0.28212   0.70011   0.00000  Uiso   1.00
N364   N     0.23520   0.66766   0.51487   0.00000  Uiso   1.00
N365   N     0.09618   0.33086   0.24373   0.00000  Uiso   1.00
N366   N     0.28190   0.28345   0.77108   0.00000  Uiso   1.00
N367   N     0.19280   0.66899   0.58584   0.00000  Uiso   1.00
N368   N     0.05378   0.33218   0.31471   0.00000  Uiso   1.00
