data_job_03841
_audit_creation_date              2018-12-19
_audit_creation_method            'Materials Studio'
_symmetry_space_group_name_H-M    'P1'
_symmetry_Int_Tables_number       1
_symmetry_cell_setting            triclinic
loop_
_symmetry_equiv_pos_as_xyz
  x,y,z
_cell_length_a                    12.3235
_cell_length_b                    17.4180
_cell_length_c                    14.2428
_cell_angle_alpha                 90.0000
_cell_angle_beta                  90.0000
_cell_angle_gamma                 90.0000
loop_
_atom_site_label
_atom_site_type_symbol
_atom_site_fract_x
_atom_site_fract_y
_atom_site_fract_z
_atom_site_U_iso_or_equiv
_atom_site_adp_type
_atom_site_occupancy
C1     C     0.91863   0.41786   0.02228   0.00000  Uiso   1.00
C2     C     0.91294   0.34670   0.08446   0.00000  Uiso   1.00
C3     C     0.93637   0.27219   0.05654   0.00000  Uiso   1.00
C4     C     0.92627   0.21504   0.12392   0.00000  Uiso   1.00
C5     C     0.92231   0.10199   0.20648   0.00000  Uiso   1.00
C6     C     0.80655   0.45477   0.02685   0.00000  Uiso   1.00
C7     C     0.74054   0.47113   0.95048   0.00000  Uiso   1.00
C8     C     0.64088   0.50496   0.96937   0.00000  Uiso   1.00
C9     C     0.47178   0.55974   0.96248   0.00000  Uiso   1.00
C10    C     0.99555   0.47334   0.07156   0.00000  Uiso   1.00
C11    C     0.08844   0.50534   0.03277   0.00000  Uiso   1.00
C12    C     0.14790   0.55482   0.08929   0.00000  Uiso   1.00
C13    C     0.27225   0.63843   0.15181   0.00000  Uiso   1.00
C14    C     0.85904   0.44886   0.19161   0.00000  Uiso   1.00
C15    C     0.88057   0.36354   0.17644   0.00000  Uiso   1.00
C16    C     0.87044   0.30649   0.24389   0.00000  Uiso   1.00
C17    C     0.89385   0.23191   0.21606   0.00000  Uiso   1.00
C18    C     0.77418   0.47161   0.11882   0.00000  Uiso   1.00
C19    C     0.67461   0.50543   0.13783   0.00000  Uiso   1.00
C20    C     0.60845   0.52183   0.06151   0.00000  Uiso   1.00
C21    C     0.96319   0.49018   0.16353   0.00000  Uiso   1.00
C22    C     0.02251   0.53963   0.22012   0.00000  Uiso   1.00
C23    C     0.11547   0.57169   0.18143   0.00000  Uiso   1.00
H24    H     0.94383   0.40475   0.95067   0.00000  Uiso   1.00
H25    H     0.96141   0.25919   0.98535   0.00000  Uiso   1.00
H26    H     0.76561   0.45810   0.87931   0.00000  Uiso   1.00
H27    H     0.11346   0.49229   0.96159   0.00000  Uiso   1.00
H28    H     0.96659   0.10522   0.06435   0.00000  Uiso   1.00
H29    H     0.55375   0.52466   0.84077   0.00000  Uiso   1.00
H30    H     0.28727   0.59678   0.01427   0.00000  Uiso   1.00
H31    H     0.83384   0.46197   0.26322   0.00000  Uiso   1.00
H32    H     0.84539   0.31954   0.31506   0.00000  Uiso   1.00
H33    H     0.64959   0.51845   0.20902   0.00000  Uiso   1.00
H34    H     0.99744   0.55265   0.29130   0.00000  Uiso   1.00
H35    H     0.87242   0.15420   0.33195   0.00000  Uiso   1.00
H36    H     0.45958   0.57365   0.10836   0.00000  Uiso   1.00
H37    H     0.19310   0.64576   0.28187   0.00000  Uiso   1.00
O38    O     0.92905   0.03498   0.22660   0.00000  Uiso   1.00
O39    O     0.38744   0.58529   0.93326   0.00000  Uiso   1.00
O40    O     0.34979   0.67989   0.16089   0.00000  Uiso   1.00
N41    N     0.94286   0.13630   0.12022   0.00000  Uiso   1.00
N42    N     0.55688   0.52844   0.91118   0.00000  Uiso   1.00
N43    N     0.24264   0.59587   0.07338   0.00000  Uiso   1.00
N44    N     0.89219   0.16266   0.26422   0.00000  Uiso   1.00
N45    N     0.50621   0.55480   0.05518   0.00000  Uiso   1.00
N46    N     0.19197   0.62223   0.21738   0.00000  Uiso   1.00
C47    C     0.08137   0.58214   0.52228   0.00000  Uiso   1.00
C48    C     0.08706   0.65330   0.58446   0.00000  Uiso   1.00
C49    C     0.06363   0.72781   0.55654   0.00000  Uiso   1.00
C50    C     0.07373   0.78496   0.62392   0.00000  Uiso   1.00
C51    C     0.07769   0.89801   0.70648   0.00000  Uiso   1.00
C52    C     0.19345   0.54523   0.52685   0.00000  Uiso   1.00
C53    C     0.25946   0.52887   0.45048   0.00000  Uiso   1.00
C54    C     0.35912   0.49504   0.46937   0.00000  Uiso   1.00
C55    C     0.52822   0.44026   0.46248   0.00000  Uiso   1.00
C56    C     0.00445   0.52666   0.57156   0.00000  Uiso   1.00
C57    C     0.91156   0.49466   0.53277   0.00000  Uiso   1.00
C58    C     0.85210   0.44518   0.58929   0.00000  Uiso   1.00
C59    C     0.72775   0.36157   0.65181   0.00000  Uiso   1.00
C60    C     0.14096   0.55114   0.69161   0.00000  Uiso   1.00
C61    C     0.11943   0.63646   0.67644   0.00000  Uiso   1.00
C62    C     0.12956   0.69351   0.74389   0.00000  Uiso   1.00
C63    C     0.10615   0.76809   0.71606   0.00000  Uiso   1.00
C64    C     0.22582   0.52839   0.61882   0.00000  Uiso   1.00
C65    C     0.32539   0.49457   0.63783   0.00000  Uiso   1.00
C66    C     0.39155   0.47817   0.56151   0.00000  Uiso   1.00
C67    C     0.03681   0.50982   0.66353   0.00000  Uiso   1.00
C68    C     0.97749   0.46037   0.72012   0.00000  Uiso   1.00
C69    C     0.88453   0.42831   0.68143   0.00000  Uiso   1.00
H70    H     0.05617   0.59525   0.45067   0.00000  Uiso   1.00
H71    H     0.03859   0.74081   0.48535   0.00000  Uiso   1.00
H72    H     0.23439   0.54190   0.37931   0.00000  Uiso   1.00
H73    H     0.88654   0.50771   0.46159   0.00000  Uiso   1.00
H74    H     0.03341   0.89478   0.56435   0.00000  Uiso   1.00
H75    H     0.44625   0.47534   0.34077   0.00000  Uiso   1.00
H76    H     0.71273   0.40322   0.51427   0.00000  Uiso   1.00
H77    H     0.16616   0.53803   0.76322   0.00000  Uiso   1.00
H78    H     0.15461   0.68046   0.81506   0.00000  Uiso   1.00
H79    H     0.35041   0.48155   0.70902   0.00000  Uiso   1.00
H80    H     0.00256   0.44735   0.79130   0.00000  Uiso   1.00
H81    H     0.12758   0.84580   0.83195   0.00000  Uiso   1.00
H82    H     0.54042   0.42635   0.60836   0.00000  Uiso   1.00
H83    H     0.80690   0.35424   0.78187   0.00000  Uiso   1.00
O84    O     0.07095   0.96502   0.72660   0.00000  Uiso   1.00
O85    O     0.61256   0.41471   0.43326   0.00000  Uiso   1.00
O86    O     0.65021   0.32011   0.66089   0.00000  Uiso   1.00
N87    N     0.05714   0.86370   0.62022   0.00000  Uiso   1.00
N88    N     0.44312   0.47156   0.41118   0.00000  Uiso   1.00
N89    N     0.75736   0.40413   0.57338   0.00000  Uiso   1.00
N90    N     0.10781   0.83734   0.76422   0.00000  Uiso   1.00
N91    N     0.49379   0.44520   0.55518   0.00000  Uiso   1.00
N92    N     0.80803   0.37777   0.71738   0.00000  Uiso   1.00
C93    C     0.41863   0.08214   0.02228   0.00000  Uiso   1.00
C94    C     0.41294   0.15330   0.08446   0.00000  Uiso   1.00
C95    C     0.43637   0.22781   0.05654   0.00000  Uiso   1.00
C96    C     0.42627   0.28496   0.12392   0.00000  Uiso   1.00
C97    C     0.42231   0.39801   0.20648   0.00000  Uiso   1.00
C98    C     0.30655   0.04523   0.02685   0.00000  Uiso   1.00
C99    C     0.24054   0.02887   0.95048   0.00000  Uiso   1.00
C100   C     0.14088   0.99504   0.96937   0.00000  Uiso   1.00
C101   C     0.97178   0.94026   0.96248   0.00000  Uiso   1.00
C102   C     0.49555   0.02666   0.07156   0.00000  Uiso   1.00
C103   C     0.58844   0.99466   0.03277   0.00000  Uiso   1.00
C104   C     0.64790   0.94518   0.08929   0.00000  Uiso   1.00
C105   C     0.77225   0.86157   0.15181   0.00000  Uiso   1.00
C106   C     0.35904   0.05114   0.19161   0.00000  Uiso   1.00
C107   C     0.38057   0.13646   0.17644   0.00000  Uiso   1.00
C108   C     0.37044   0.19351   0.24389   0.00000  Uiso   1.00
C109   C     0.39385   0.26809   0.21606   0.00000  Uiso   1.00
C110   C     0.27418   0.02839   0.11882   0.00000  Uiso   1.00
C111   C     0.17461   0.99457   0.13783   0.00000  Uiso   1.00
C112   C     0.10845   0.97817   0.06151   0.00000  Uiso   1.00
C113   C     0.46319   0.00982   0.16353   0.00000  Uiso   1.00
C114   C     0.52251   0.96037   0.22012   0.00000  Uiso   1.00
C115   C     0.61547   0.92831   0.18143   0.00000  Uiso   1.00
H116   H     0.44383   0.09525   0.95067   0.00000  Uiso   1.00
H117   H     0.46141   0.24081   0.98535   0.00000  Uiso   1.00
H118   H     0.26561   0.04190   0.87931   0.00000  Uiso   1.00
H119   H     0.61346   0.00771   0.96159   0.00000  Uiso   1.00
H120   H     0.46659   0.39478   0.06435   0.00000  Uiso   1.00
H121   H     0.05375   0.97534   0.84077   0.00000  Uiso   1.00
H122   H     0.78727   0.90322   0.01427   0.00000  Uiso   1.00
H123   H     0.33384   0.03803   0.26322   0.00000  Uiso   1.00
H124   H     0.34539   0.18046   0.31506   0.00000  Uiso   1.00
H125   H     0.14959   0.98155   0.20902   0.00000  Uiso   1.00
H126   H     0.49744   0.94735   0.29130   0.00000  Uiso   1.00
H127   H     0.37242   0.34580   0.33195   0.00000  Uiso   1.00
H128   H     0.95958   0.92635   0.10836   0.00000  Uiso   1.00
H129   H     0.69310   0.85424   0.28187   0.00000  Uiso   1.00
O130   O     0.42905   0.46502   0.22660   0.00000  Uiso   1.00
O131   O     0.88744   0.91471   0.93326   0.00000  Uiso   1.00
O132   O     0.84979   0.82011   0.16089   0.00000  Uiso   1.00
N133   N     0.44286   0.36370   0.12022   0.00000  Uiso   1.00
N134   N     0.05688   0.97156   0.91118   0.00000  Uiso   1.00
N135   N     0.74264   0.90413   0.07338   0.00000  Uiso   1.00
N136   N     0.39219   0.33734   0.26422   0.00000  Uiso   1.00
N137   N     0.00621   0.94520   0.05518   0.00000  Uiso   1.00
N138   N     0.69197   0.87777   0.21738   0.00000  Uiso   1.00
C139   C     0.58137   0.91786   0.52228   0.00000  Uiso   1.00
C140   C     0.58706   0.84670   0.58446   0.00000  Uiso   1.00
C141   C     0.56363   0.77219   0.55654   0.00000  Uiso   1.00
C142   C     0.57373   0.71504   0.62392   0.00000  Uiso   1.00
C143   C     0.57769   0.60199   0.70648   0.00000  Uiso   1.00
C144   C     0.69345   0.95477   0.52685   0.00000  Uiso   1.00
C145   C     0.75946   0.97113   0.45048   0.00000  Uiso   1.00
C146   C     0.85912   0.00496   0.46937   0.00000  Uiso   1.00
C147   C     0.02822   0.05974   0.46248   0.00000  Uiso   1.00
C148   C     0.50445   0.97334   0.57156   0.00000  Uiso   1.00
C149   C     0.41156   0.00534   0.53277   0.00000  Uiso   1.00
C150   C     0.35210   0.05482   0.58929   0.00000  Uiso   1.00
C151   C     0.22775   0.13843   0.65181   0.00000  Uiso   1.00
C152   C     0.64096   0.94886   0.69161   0.00000  Uiso   1.00
C153   C     0.61943   0.86354   0.67644   0.00000  Uiso   1.00
C154   C     0.62956   0.80649   0.74389   0.00000  Uiso   1.00
C155   C     0.60615   0.73191   0.71606   0.00000  Uiso   1.00
C156   C     0.72582   0.97161   0.61882   0.00000  Uiso   1.00
C157   C     0.82539   0.00543   0.63783   0.00000  Uiso   1.00
C158   C     0.89155   0.02183   0.56151   0.00000  Uiso   1.00
C159   C     0.53681   0.99018   0.66353   0.00000  Uiso   1.00
C160   C     0.47749   0.03963   0.72012   0.00000  Uiso   1.00
C161   C     0.38453   0.07169   0.68143   0.00000  Uiso   1.00
H162   H     0.55617   0.90475   0.45067   0.00000  Uiso   1.00
H163   H     0.53859   0.75919   0.48535   0.00000  Uiso   1.00
H164   H     0.73439   0.95810   0.37931   0.00000  Uiso   1.00
H165   H     0.38654   0.99229   0.46159   0.00000  Uiso   1.00
H166   H     0.53341   0.60522   0.56435   0.00000  Uiso   1.00
H167   H     0.94625   0.02466   0.34077   0.00000  Uiso   1.00
H168   H     0.21273   0.09678   0.51427   0.00000  Uiso   1.00
H169   H     0.66616   0.96197   0.76322   0.00000  Uiso   1.00
H170   H     0.65461   0.81954   0.81506   0.00000  Uiso   1.00
H171   H     0.85041   0.01845   0.70902   0.00000  Uiso   1.00
H172   H     0.50256   0.05265   0.79130   0.00000  Uiso   1.00
H173   H     0.62758   0.65420   0.83195   0.00000  Uiso   1.00
H174   H     0.04042   0.07365   0.60836   0.00000  Uiso   1.00
H175   H     0.30690   0.14576   0.78187   0.00000  Uiso   1.00
O176   O     0.57095   0.53498   0.72660   0.00000  Uiso   1.00
O177   O     0.11256   0.08529   0.43326   0.00000  Uiso   1.00
O178   O     0.15021   0.17989   0.66089   0.00000  Uiso   1.00
N179   N     0.55714   0.63630   0.62022   0.00000  Uiso   1.00
N180   N     0.94312   0.02844   0.41118   0.00000  Uiso   1.00
N181   N     0.25736   0.09587   0.57338   0.00000  Uiso   1.00
N182   N     0.60781   0.66266   0.76422   0.00000  Uiso   1.00
N183   N     0.99379   0.05480   0.55518   0.00000  Uiso   1.00
N184   N     0.30803   0.12223   0.71738   0.00000  Uiso   1.00
