data_job_01261
_audit_creation_date              2018-12-19
_audit_creation_method            'Materials Studio'
_symmetry_space_group_name_H-M    'P1'
_symmetry_Int_Tables_number       1
_symmetry_cell_setting            triclinic
loop_
_symmetry_equiv_pos_as_xyz
  x,y,z
_cell_length_a                    9.9557
_cell_length_b                    14.7573
_cell_length_c                    8.7179
_cell_angle_alpha                 90.0000
_cell_angle_beta                  82.8584
_cell_angle_gamma                 90.0000
loop_
_atom_site_label
_atom_site_type_symbol
_atom_site_fract_x
_atom_site_fract_y
_atom_site_fract_z
_atom_site_U_iso_or_equiv
_atom_site_adp_type
_atom_site_occupancy
C1     C     0.57493   0.13368   0.15886   0.00000  Uiso   1.00
C2     C     0.63779   0.16687   0.00038   0.00000  Uiso   1.00
C3     C     0.72114   0.24198   0.97256   0.00000  Uiso   1.00
C4     C     0.76833   0.26109   0.81938   0.00000  Uiso   1.00
C5     C     0.87120   0.32088   0.59169   0.00000  Uiso   1.00
C6     C     0.42260   0.13038   0.15268   0.00000  Uiso   1.00
C7     C     0.32502   0.17480   0.25293   0.00000  Uiso   1.00
C8     C     0.19106   0.16317   0.22796   0.00000  Uiso   1.00
C9     C     0.95985   0.16626   0.23679   0.00000  Uiso   1.00
C10    C     0.62024   0.03551   0.17099   0.00000  Uiso   1.00
C11    C     0.68881   0.00016   0.28665   0.00000  Uiso   1.00
C12    C     0.72122   0.90865   0.27711   0.00000  Uiso   1.00
C13    C     0.79687   0.76445   0.31437   0.00000  Uiso   1.00
C14    C     0.51053   0.03404   0.93629   0.00000  Uiso   1.00
C15    C     0.60281   0.11275   0.87949   0.00000  Uiso   1.00
C16    C     0.64988   0.13174   0.72631   0.00000  Uiso   1.00
C17    C     0.73329   0.20687   0.69827   0.00000  Uiso   1.00
C18    C     0.38762   0.07626   0.03180   0.00000  Uiso   1.00
C19    C     0.25377   0.06456   0.00668   0.00000  Uiso   1.00
C20    C     0.15601   0.10895   0.10685   0.00000  Uiso   1.00
C21    C     0.58527   0.98139   0.05010   0.00000  Uiso   1.00
C22    C     0.61756   0.88992   0.04039   0.00000  Uiso   1.00
C23    C     0.68617   0.85443   0.15601   0.00000  Uiso   1.00
H24    H     0.60215   0.17582   0.25298   0.00000  Uiso   1.00
H25    H     0.74818   0.28385   0.06615   0.00000  Uiso   1.00
H26    H     0.35212   0.21667   0.34648   0.00000  Uiso   1.00
H27    H     0.71586   0.04206   0.38018   0.00000  Uiso   1.00
H28    H     0.89460   0.37978   0.80569   0.00000  Uiso   1.00
H29    H     0.05950   0.23810   0.39682   0.00000  Uiso   1.00
H30    H     0.82651   0.86990   0.46790   0.00000  Uiso   1.00
H31    H     0.48329   0.99190   0.84217   0.00000  Uiso   1.00
H32    H     0.62280   0.08985   0.63278   0.00000  Uiso   1.00
H33    H     0.22674   0.02267   0.91312   0.00000  Uiso   1.00
H34    H     0.59048   0.84806   0.94682   0.00000  Uiso   1.00
H35    H     0.79283   0.22233   0.45395   0.00000  Uiso   1.00
H36    H     0.95772   0.08064   0.04509   0.00000  Uiso   1.00
H37    H     0.72474   0.71244   0.11616   0.00000  Uiso   1.00
O38    O     0.93760   0.36882   0.49949   0.00000  Uiso   1.00
O39    O     0.84198   0.18293   0.27505   0.00000  Uiso   1.00
O40    O     0.84828   0.69986   0.36830   0.00000  Uiso   1.00
N41    N     0.85153   0.32927   0.75165   0.00000  Uiso   1.00
N42    N     0.07076   0.19682   0.30430   0.00000  Uiso   1.00
N43    N     0.78782   0.85258   0.37078   0.00000  Uiso   1.00
N44    N     0.79677   0.24455   0.56238   0.00000  Uiso   1.00
N45    N     0.01600   0.11209   0.11504   0.00000  Uiso   1.00
N46    N     0.73306   0.76785   0.18151   0.00000  Uiso   1.00
C47    C     0.42507   0.63368   0.84114   0.00000  Uiso   1.00
C48    C     0.36221   0.66687   0.99962   0.00000  Uiso   1.00
C49    C     0.27886   0.74198   0.02744   0.00000  Uiso   1.00
C50    C     0.23167   0.76109   0.18062   0.00000  Uiso   1.00
C51    C     0.12880   0.82088   0.40831   0.00000  Uiso   1.00
C52    C     0.57740   0.63038   0.84732   0.00000  Uiso   1.00
C53    C     0.67498   0.67480   0.74707   0.00000  Uiso   1.00
C54    C     0.80894   0.66317   0.77204   0.00000  Uiso   1.00
C55    C     0.04015   0.66626   0.76321   0.00000  Uiso   1.00
C56    C     0.37976   0.53551   0.82901   0.00000  Uiso   1.00
C57    C     0.31119   0.50016   0.71335   0.00000  Uiso   1.00
C58    C     0.27878   0.40865   0.72289   0.00000  Uiso   1.00
C59    C     0.20313   0.26445   0.68563   0.00000  Uiso   1.00
C60    C     0.48947   0.53404   0.06371   0.00000  Uiso   1.00
C61    C     0.39719   0.61275   0.12051   0.00000  Uiso   1.00
C62    C     0.35012   0.63174   0.27369   0.00000  Uiso   1.00
C63    C     0.26671   0.70687   0.30173   0.00000  Uiso   1.00
C64    C     0.61238   0.57626   0.96820   0.00000  Uiso   1.00
C65    C     0.74623   0.56456   0.99332   0.00000  Uiso   1.00
C66    C     0.84399   0.60895   0.89315   0.00000  Uiso   1.00
C67    C     0.41473   0.48139   0.94990   0.00000  Uiso   1.00
C68    C     0.38244   0.38992   0.95961   0.00000  Uiso   1.00
C69    C     0.31383   0.35443   0.84399   0.00000  Uiso   1.00
H70    H     0.39785   0.67582   0.74702   0.00000  Uiso   1.00
H71    H     0.25182   0.78385   0.93385   0.00000  Uiso   1.00
H72    H     0.64788   0.71667   0.65352   0.00000  Uiso   1.00
H73    H     0.28414   0.54206   0.61982   0.00000  Uiso   1.00
H74    H     0.10540   0.87978   0.19431   0.00000  Uiso   1.00
H75    H     0.94050   0.73810   0.60318   0.00000  Uiso   1.00
H76    H     0.17349   0.36990   0.53210   0.00000  Uiso   1.00
H77    H     0.51671   0.49190   0.15783   0.00000  Uiso   1.00
H78    H     0.37720   0.58985   0.36722   0.00000  Uiso   1.00
H79    H     0.77326   0.52267   0.08688   0.00000  Uiso   1.00
H80    H     0.40952   0.34806   0.05318   0.00000  Uiso   1.00
H81    H     0.20717   0.72233   0.54605   0.00000  Uiso   1.00
H82    H     0.04228   0.58064   0.95491   0.00000  Uiso   1.00
H83    H     0.27526   0.21244   0.88384   0.00000  Uiso   1.00
O84    O     0.06240   0.86882   0.50051   0.00000  Uiso   1.00
O85    O     0.15802   0.68293   0.72495   0.00000  Uiso   1.00
O86    O     0.15172   0.19986   0.63170   0.00000  Uiso   1.00
N87    N     0.14847   0.82927   0.24835   0.00000  Uiso   1.00
N88    N     0.92924   0.69682   0.69570   0.00000  Uiso   1.00
N89    N     0.21218   0.35258   0.62922   0.00000  Uiso   1.00
N90    N     0.20323   0.74455   0.43762   0.00000  Uiso   1.00
N91    N     0.98400   0.61209   0.88496   0.00000  Uiso   1.00
N92    N     0.26694   0.26785   0.81849   0.00000  Uiso   1.00
