data_job_06945
_audit_creation_date              2018-12-19
_audit_creation_method            'Materials Studio'
_symmetry_space_group_name_H-M    'P1'
_symmetry_Int_Tables_number       1
_symmetry_cell_setting            triclinic
loop_
_symmetry_equiv_pos_as_xyz
  x,y,z
_cell_length_a                    20.9586
_cell_length_b                    24.3185
_cell_length_c                    24.7651
_cell_angle_alpha                 115.7239
_cell_angle_beta                  82.6661
_cell_angle_gamma                 73.5969
loop_
_atom_site_label
_atom_site_type_symbol
_atom_site_fract_x
_atom_site_fract_y
_atom_site_fract_z
_atom_site_U_iso_or_equiv
_atom_site_adp_type
_atom_site_occupancy
C1     C     0.75696   0.06915   0.61738   0.00000  Uiso   1.00
C2     C     0.80274   0.99595   0.57960   0.00000  Uiso   1.00
C3     C     0.77937   0.94442   0.56101   0.00000  Uiso   1.00
C4     C     0.82950   0.88091   0.52674   0.00000  Uiso   1.00
C5     C     0.88979   0.76899   0.47040   0.00000  Uiso   1.00
C6     C     0.78173   0.09746   0.67513   0.00000  Uiso   1.00
C7     C     0.74069   0.13129   0.73685   0.00000  Uiso   1.00
C8     C     0.77314   0.15324   0.78300   0.00000  Uiso   1.00
C9     C     0.80080   0.19897   0.87497   0.00000  Uiso   1.00
C10    C     0.77592   0.09956   0.57838   0.00000  Uiso   1.00
C11    C     0.72999   0.13516   0.55877   0.00000  Uiso   1.00
C12    C     0.75755   0.15889   0.52347   0.00000  Uiso   1.00
C13    C     0.77620   0.20787   0.46523   0.00000  Uiso   1.00
C14    C     0.88757   0.04800   0.58960   0.00000  Uiso   1.00
C15    C     0.87368   0.98446   0.56452   0.00000  Uiso   1.00
C16    C     0.92387   0.92102   0.53027   0.00000  Uiso   1.00
C17    C     0.90057   0.86940   0.51162   0.00000  Uiso   1.00
C18    C     0.85267   0.08598   0.66005   0.00000  Uiso   1.00
C19    C     0.88519   0.10789   0.70612   0.00000  Uiso   1.00
C20    C     0.84421   0.14174   0.76789   0.00000  Uiso   1.00
C21    C     0.84686   0.08807   0.56329   0.00000  Uiso   1.00
C22    C     0.87450   0.11176   0.52803   0.00000  Uiso   1.00
C23    C     0.82862   0.14739   0.50836   0.00000  Uiso   1.00
H24    H     0.70174   0.07810   0.62914   0.00000  Uiso   1.00
H25    H     0.72446   0.95333   0.57270   0.00000  Uiso   1.00
H26    H     0.68579   0.14018   0.74851   0.00000  Uiso   1.00
H27    H     0.67510   0.14404   0.57045   0.00000  Uiso   1.00
H28    H     0.78095   0.80993   0.50349   0.00000  Uiso   1.00
H29    H     0.69940   0.20393   0.87421   0.00000  Uiso   1.00
H30    H     0.67686   0.21208   0.49874   0.00000  Uiso   1.00
H31    H     0.94280   0.03906   0.57786   0.00000  Uiso   1.00
H32    H     0.97876   0.91214   0.51860   0.00000  Uiso   1.00
H33    H     0.94009   0.09899   0.69442   0.00000  Uiso   1.00
H34    H     0.92940   0.10286   0.51636   0.00000  Uiso   1.00
H35    H     0.98734   0.77650   0.45959   0.00000  Uiso   1.00
H36    H     0.90579   0.17051   0.83031   0.00000  Uiso   1.00
H37    H     0.88325   0.17865   0.45483   0.00000  Uiso   1.00
O38    O     0.90345   0.71043   0.44350   0.00000  Uiso   1.00
O39    O     0.79646   0.22735   0.92987   0.00000  Uiso   1.00
O40    O     0.76688   0.23804   0.43726   0.00000  Uiso   1.00
N41    N     0.82459   0.81948   0.50128   0.00000  Uiso   1.00
N42    N     0.74835   0.18784   0.84788   0.00000  Uiso   1.00
N43    N     0.72727   0.19548   0.49686   0.00000  Uiso   1.00
N44    N     0.93565   0.80149   0.47765   0.00000  Uiso   1.00
N45    N     0.85941   0.16985   0.82425   0.00000  Uiso   1.00
N46    N     0.83833   0.17749   0.47323   0.00000  Uiso   1.00
C47    C     0.00732   0.37896   0.95452   0.00000  Uiso   1.00
C48    C     0.07902   0.34586   0.95806   0.00000  Uiso   1.00
C49    C     0.13445   0.29431   0.90775   0.00000  Uiso   1.00
C50    C     0.19572   0.27089   0.92073   0.00000  Uiso   1.00
C51    C     0.30619   0.21534   0.91693   0.00000  Uiso   1.00
C52    C     0.95561   0.37316   0.99903   0.00000  Uiso   1.00
C53    C     0.90728   0.34457   0.98315   0.00000  Uiso   1.00
C54    C     0.86465   0.34414   0.03061   0.00000  Uiso   1.00
C55    C     0.78350   0.33102   0.09043   0.00000  Uiso   1.00
C56    C     0.99434   0.45216   0.98358   0.00000  Uiso   1.00
C57    C     0.97855   0.49000   0.95473   0.00000  Uiso   1.00
C58    C     0.96852   0.55608   0.98919   0.00000  Uiso   1.00
C59    C     0.94749   0.66561   0.02502   0.00000  Uiso   1.00
C60    C     0.01755   0.42903   0.06704   0.00000  Uiso   1.00
C61    C     0.08457   0.37306   0.01918   0.00000  Uiso   1.00
C62    C     0.14577   0.34971   0.03224   0.00000  Uiso   1.00
C63    C     0.20129   0.29814   0.98195   0.00000  Uiso   1.00
C64    C     0.96116   0.40036   0.06014   0.00000  Uiso   1.00
C65    C     0.91859   0.39997   0.10764   0.00000  Uiso   1.00
C66    C     0.87022   0.37138   0.09184   0.00000  Uiso   1.00
C67    C     0.99989   0.47936   0.04470   0.00000  Uiso   1.00
C68    C     0.98987   0.54540   0.07921   0.00000  Uiso   1.00
C69    C     0.97408   0.58333   0.05042   0.00000  Uiso   1.00
H70    H     0.00299   0.35778   0.90694   0.00000  Uiso   1.00
H71    H     0.13013   0.27327   0.86046   0.00000  Uiso   1.00
H72    H     0.90299   0.32353   0.93586   0.00000  Uiso   1.00
H73    H     0.97426   0.46893   0.90743   0.00000  Uiso   1.00
H74    H     0.27353   0.19156   0.83588   0.00000  Uiso   1.00
H75    H     0.79457   0.29755   0.99486   0.00000  Uiso   1.00
H76    H     0.94485   0.60416   0.93493   0.00000  Uiso   1.00
H77    H     0.02187   0.45021   0.11462   0.00000  Uiso   1.00
H78    H     0.15005   0.37077   0.07953   0.00000  Uiso   1.00
H79    H     0.92291   0.42103   0.15493   0.00000  Uiso   1.00
H80    H     0.99417   0.56643   0.12650   0.00000  Uiso   1.00
H81    H     0.28970   0.27069   0.01369   0.00000  Uiso   1.00
H82    H     0.81073   0.37668   0.17267   0.00000  Uiso   1.00
H83    H     0.96102   0.68329   0.11273   0.00000  Uiso   1.00
O84    O     0.36559   0.17718   0.89796   0.00000  Uiso   1.00
O85    O     0.73720   0.31625   0.10653   0.00000  Uiso   1.00
O86    O     0.93437   0.71851   0.02790   0.00000  Uiso   1.00
N87    N     0.25975   0.22109   0.88254   0.00000  Uiso   1.00
N88    N     0.81196   0.32018   0.03117   0.00000  Uiso   1.00
N89    N     0.95244   0.60684   0.97515   0.00000  Uiso   1.00
N90    N     0.26845   0.26367   0.97822   0.00000  Uiso   1.00
N91    N     0.82066   0.36276   0.12685   0.00000  Uiso   1.00
N92    N     0.96114   0.64942   0.07082   0.00000  Uiso   1.00
C93    C     0.53792   0.57187   0.21653   0.00000  Uiso   1.00
C94    C     0.46112   0.60171   0.25259   0.00000  Uiso   1.00
C95    C     0.43465   0.61342   0.31252   0.00000  Uiso   1.00
C96    C     0.36286   0.64104   0.33732   0.00000  Uiso   1.00
C97    C     0.25026   0.68502   0.39846   0.00000  Uiso   1.00
C98    C     0.54703   0.51168   0.15516   0.00000  Uiso   1.00
C99    C     0.59279   0.44770   0.13318   0.00000  Uiso   1.00
C100   C     0.59331   0.39954   0.07596   0.00000  Uiso   1.00
C101   C     0.61412   0.30375   0.98583   0.00000  Uiso   1.00
C102   C     0.55049   0.62156   0.19898   0.00000  Uiso   1.00
C103   C     0.59918   0.64994   0.21382   0.00000  Uiso   1.00
C104   C     0.60263   0.69428   0.19348   0.00000  Uiso   1.00
C105   C     0.62882   0.76909   0.17138   0.00000  Uiso   1.00
C106   C     0.45750   0.60012   0.15399   0.00000  Uiso   1.00
C107   C     0.41744   0.61706   0.21861   0.00000  Uiso   1.00
C108   C     0.34567   0.64467   0.24333   0.00000  Uiso   1.00
C109   C     0.31909   0.65642   0.30329   0.00000  Uiso   1.00
C110   C     0.50335   0.52703   0.12119   0.00000  Uiso   1.00
C111   C     0.50381   0.47895   0.06399   0.00000  Uiso   1.00
C112   C     0.54956   0.41491   0.04193   0.00000  Uiso   1.00
C113   C     0.50681   0.63691   0.16501   0.00000  Uiso   1.00
C114   C     0.51020   0.68120   0.14463   0.00000  Uiso   1.00
C115   C     0.55887   0.70965   0.15945   0.00000  Uiso   1.00
H116   H     0.57193   0.55992   0.24297   0.00000  Uiso   1.00
H117   H     0.46847   0.60153   0.33879   0.00000  Uiso   1.00
H118   H     0.62659   0.43584   0.15947   0.00000  Uiso   1.00
H119   H     0.63297   0.63806   0.24011   0.00000  Uiso   1.00
H120   H     0.33450   0.65441   0.43004   0.00000  Uiso   1.00
H121   H     0.66792   0.30504   0.05193   0.00000  Uiso   1.00
H122   H     0.68139   0.73146   0.22196   0.00000  Uiso   1.00
H123   H     0.42349   0.61207   0.12754   0.00000  Uiso   1.00
H124   H     0.31188   0.65654   0.21703   0.00000  Uiso   1.00
H125   H     0.47000   0.49085   0.03772   0.00000  Uiso   1.00
H126   H     0.47639   0.69307   0.11835   0.00000  Uiso   1.00
H127   H     0.20741   0.69906   0.33121   0.00000  Uiso   1.00
H128   H     0.54083   0.34969   0.95311   0.00000  Uiso   1.00
H129   H     0.55430   0.77610   0.12313   0.00000  Uiso   1.00
O130   O     0.20022   0.70503   0.44157   0.00000  Uiso   1.00
O131   O     0.63766   0.24667   0.94551   0.00000  Uiso   1.00
O132   O     0.65532   0.80612   0.16858   0.00000  Uiso   1.00
N133   N     0.31991   0.65883   0.39450   0.00000  Uiso   1.00
N134   N     0.63163   0.33218   0.04100   0.00000  Uiso   1.00
N135   N     0.64423   0.73083   0.19994   0.00000  Uiso   1.00
N136   N     0.25152   0.68285   0.34133   0.00000  Uiso   1.00
N137   N     0.56324   0.35621   0.98783   0.00000  Uiso   1.00
N138   N     0.57584   0.75486   0.14677   0.00000  Uiso   1.00
C139   C     0.36536   0.77040   0.83846   0.00000  Uiso   1.00
C140   C     0.41479   0.77495   0.87896   0.00000  Uiso   1.00
C141   C     0.39563   0.80124   0.94346   0.00000  Uiso   1.00
C142   C     0.44863   0.80084   0.97185   0.00000  Uiso   1.00
C143   C     0.51479   0.81179   0.04005   0.00000  Uiso   1.00
C144   C     0.39034   0.69776   0.78926   0.00000  Uiso   1.00
C145   C     0.35061   0.65917   0.77833   0.00000  Uiso   1.00
C146   C     0.38302   0.59380   0.73120   0.00000  Uiso   1.00
C147   C     0.41120   0.48494   0.66009   0.00000  Uiso   1.00
C148   C     0.37882   0.80596   0.80311   0.00000  Uiso   1.00
C149   C     0.32940   0.85832   0.80382   0.00000  Uiso   1.00
C150   C     0.35211   0.88404   0.76834   0.00000  Uiso   1.00
C151   C     0.36240   0.94316   0.71875   0.00000  Uiso   1.00
C152   C     0.49357   0.72294   0.77419   0.00000  Uiso   1.00
C153   C     0.48443   0.74917   0.84405   0.00000  Uiso   1.00
C154   C     0.53748   0.74873   0.87235   0.00000  Uiso   1.00
C155   C     0.51839   0.77502   0.93688   0.00000  Uiso   1.00
C156   C     0.45997   0.67198   0.75435   0.00000  Uiso   1.00
C157   C     0.49245   0.60666   0.70722   0.00000  Uiso   1.00
C158   C     0.45278   0.56798   0.69623   0.00000  Uiso   1.00
C159   C     0.44846   0.78018   0.76821   0.00000  Uiso   1.00
C160   C     0.47125   0.80582   0.73272   0.00000  Uiso   1.00
C161   C     0.42187   0.85821   0.73337   0.00000  Uiso   1.00
H162   H     0.31115   0.79046   0.86563   0.00000  Uiso   1.00
H163   H     0.34173   0.82118   0.97045   0.00000  Uiso   1.00
H164   H     0.29671   0.67913   0.80534   0.00000  Uiso   1.00
H165   H     0.27551   0.87826   0.83084   0.00000  Uiso   1.00
H166   H     0.40635   0.84384   0.07127   0.00000  Uiso   1.00
H167   H     0.31142   0.54433   0.72311   0.00000  Uiso   1.00
H168   H     0.26671   0.96423   0.77686   0.00000  Uiso   1.00
H169   H     0.54779   0.70287   0.74701   0.00000  Uiso   1.00
H170   H     0.59136   0.72878   0.84533   0.00000  Uiso   1.00
H171   H     0.54634   0.58673   0.68022   0.00000  Uiso   1.00
H172   H     0.52514   0.78586   0.70571   0.00000  Uiso   1.00
H173   H     0.60896   0.76884   0.96972   0.00000  Uiso   1.00
H174   H     0.51403   0.46934   0.62155   0.00000  Uiso   1.00
H175   H     0.46932   0.88923   0.67531   0.00000  Uiso   1.00
O176   O     0.53205   0.82495   0.08731   0.00000  Uiso   1.00
O177   O     0.40750   0.43201   0.63053   0.00000  Uiso   1.00
O178   O     0.34885   0.98290   0.70105   0.00000  Uiso   1.00
N179   N     0.44805   0.82265   0.03388   0.00000  Uiso   1.00
N180   N     0.35931   0.54262   0.70838   0.00000  Uiso   1.00
N181   N     0.31750   0.93518   0.75862   0.00000  Uiso   1.00
N182   N     0.55708   0.78229   0.97923   0.00000  Uiso   1.00
N183   N     0.46833   0.50227   0.65373   0.00000  Uiso   1.00
N184   N     0.42652   0.89482   0.70397   0.00000  Uiso   1.00
C185   C     0.71663   0.09113   0.21413   0.00000  Uiso   1.00
C186   C     0.76173   0.07656   0.25366   0.00000  Uiso   1.00
C187   C     0.82577   0.08223   0.25380   0.00000  Uiso   1.00
C188   C     0.85883   0.06662   0.29330   0.00000  Uiso   1.00
C189   C     0.93340   0.04716   0.34892   0.00000  Uiso   1.00
C190   C     0.64635   0.14257   0.26012   0.00000  Uiso   1.00
C191   C     0.61339   0.20373   0.26568   0.00000  Uiso   1.00
C192   C     0.54933   0.24368   0.31060   0.00000  Uiso   1.00
C193   C     0.44477   0.32668   0.37621   0.00000  Uiso   1.00
C194   C     0.70399   0.02835   0.17652   0.00000  Uiso   1.00
C195   C     0.71947   0.99349   0.11179   0.00000  Uiso   1.00
C196   C     0.70392   0.93728   0.08632   0.00000  Uiso   1.00
C197   C     0.68885   0.84294   0.02214   0.00000  Uiso   1.00
C198   C     0.66147   0.05332   0.28402   0.00000  Uiso   1.00
C199   C     0.73176   0.05603   0.29162   0.00000  Uiso   1.00
C200   C     0.76474   0.04040   0.33112   0.00000  Uiso   1.00
C201   C     0.82882   0.04605   0.33132   0.00000  Uiso   1.00
C202   C     0.61639   0.12204   0.29808   0.00000  Uiso   1.00
C203   C     0.55237   0.16190   0.34300   0.00000  Uiso   1.00
C204   C     0.51932   0.22311   0.34862   0.00000  Uiso   1.00
C205   C     0.67403   0.00781   0.21448   0.00000  Uiso   1.00
C206   C     0.65845   0.95166   0.18911   0.00000  Uiso   1.00
C207   C     0.67391   0.91671   0.12435   0.00000  Uiso   1.00
H208   H     0.73995   0.10712   0.18458   0.00000  Uiso   1.00
H209   H     0.84893   0.09813   0.22443   0.00000  Uiso   1.00
H210   H     0.63659   0.21960   0.23629   0.00000  Uiso   1.00
H211   H     0.74266   0.00939   0.08243   0.00000  Uiso   1.00
H212   H     0.95654   0.07913   0.28535   0.00000  Uiso   1.00
H213   H     0.50879   0.33526   0.31036   0.00000  Uiso   1.00
H214   H     0.73245   0.89199   0.98590   0.00000  Uiso   1.00
H215   H     0.63814   0.03733   0.31357   0.00000  Uiso   1.00
H216   H     0.74154   0.02451   0.36049   0.00000  Uiso   1.00
H217   H     0.52920   0.14599   0.37236   0.00000  Uiso   1.00
H218   H     0.63527   0.93578   0.21849   0.00000  Uiso   1.00
H219   H     0.86938   0.01939   0.39579   0.00000  Uiso   1.00
H220   H     0.42162   0.27552   0.42080   0.00000  Uiso   1.00
H221   H     0.64529   0.83224   0.09634   0.00000  Uiso   1.00
O222   O     0.98281   0.04211   0.36913   0.00000  Uiso   1.00
O223   O     0.39537   0.37813   0.40192   0.00000  Uiso   1.00
O224   O     0.68881   0.79657   0.97625   0.00000  Uiso   1.00
N225   N     0.92184   0.06682   0.30490   0.00000  Uiso   1.00
N226   N     0.50323   0.30629   0.32828   0.00000  Uiso   1.00
N227   N     0.71231   0.89187   0.02495   0.00000  Uiso   1.00
N228   N     0.87494   0.03467   0.36432   0.00000  Uiso   1.00
N229   N     0.45633   0.27414   0.38771   0.00000  Uiso   1.00
N230   N     0.66541   0.85972   0.08437   0.00000  Uiso   1.00
C231   C     0.14587   0.39954   0.46092   0.00000  Uiso   1.00
C232   C     0.09325   0.36789   0.46418   0.00000  Uiso   1.00
C233   C     0.10550   0.30132   0.42959   0.00000  Uiso   1.00
C234   C     0.05062   0.28216   0.43933   0.00000  Uiso   1.00
C235   C     0.97878   0.22605   0.43789   0.00000  Uiso   1.00
C236   C     0.15000   0.43568   0.52759   0.00000  Uiso   1.00
C237   C     0.20997   0.42611   0.54631   0.00000  Uiso   1.00
C238   C     0.20286   0.46402   0.60944   0.00000  Uiso   1.00
C239   C     0.21913   0.51318   0.70644   0.00000  Uiso   1.00
C240   C     0.11263   0.45286   0.44502   0.00000  Uiso   1.00
C241   C     0.14119   0.45775   0.39433   0.00000  Uiso   1.00
C242   C     0.10262   0.51014   0.38794   0.00000  Uiso   1.00
C243   C     0.06088   0.58598   0.35674   0.00000  Uiso   1.00
C244   C     0.02662   0.48390   0.53973   0.00000  Uiso   1.00
C245   C     0.02848   0.41372   0.50698   0.00000  Uiso   1.00
C246   C     0.97356   0.39466   0.51677   0.00000  Uiso   1.00
C247   C     0.98573   0.32807   0.48221   0.00000  Uiso   1.00
C248   C     0.08523   0.48150   0.57039   0.00000  Uiso   1.00
C249   C     0.07803   0.51945   0.63350   0.00000  Uiso   1.00
C250   C     0.13797   0.50993   0.65232   0.00000  Uiso   1.00
C251   C     0.04786   0.49869   0.48782   0.00000  Uiso   1.00
C252   C     0.00925   0.55109   0.48151   0.00000  Uiso   1.00
C253   C     0.03773   0.55605   0.43082   0.00000  Uiso   1.00
H254   H     0.19630   0.36386   0.42761   0.00000  Uiso   1.00
H255   H     0.15564   0.26587   0.39648   0.00000  Uiso   1.00
H256   H     0.26009   0.39064   0.51318   0.00000  Uiso   1.00
H257   H     0.19131   0.42228   0.36122   0.00000  Uiso   1.00
H258   H     0.08200   0.17743   0.38085   0.00000  Uiso   1.00
H259   H     0.30224   0.44054   0.62693   0.00000  Uiso   1.00
H260   H     0.15722   0.50725   0.30648   0.00000  Uiso   1.00
H261   H     0.97619   0.51958   0.57305   0.00000  Uiso   1.00
H262   H     0.92344   0.43013   0.54990   0.00000  Uiso   1.00
H263   H     0.02790   0.55491   0.66661   0.00000  Uiso   1.00
H264   H     0.95912   0.58654   0.51464   0.00000  Uiso   1.00
H265   H     0.89354   0.31075   0.50538   0.00000  Uiso   1.00
H266   H     0.11379   0.57386   0.75146   0.00000  Uiso   1.00
H267   H     0.96876   0.64057   0.43101   0.00000  Uiso   1.00
O268   O     0.95705   0.18243   0.42528   0.00000  Uiso   1.00
O269   O     0.24601   0.52763   0.74811   0.00000  Uiso   1.00
O270   O     0.05574   0.61515   0.32770   0.00000  Uiso   1.00
N271   N     0.04488   0.22109   0.41333   0.00000  Uiso   1.00
N272   N     0.25079   0.46707   0.64340   0.00000  Uiso   1.00
N273   N     0.11522   0.52945   0.34382   0.00000  Uiso   1.00
N274   N     0.94347   0.29282   0.48034   0.00000  Uiso   1.00
N275   N     0.14939   0.53881   0.71040   0.00000  Uiso   1.00
N276   N     0.01381   0.60119   0.41082   0.00000  Uiso   1.00
C277   C     0.18408   0.17857   0.61068   0.00000  Uiso   1.00
C278   C     0.13535   0.25092   0.64789   0.00000  Uiso   1.00
C279   C     0.15555   0.30447   0.66779   0.00000  Uiso   1.00
C280   C     0.10305   0.36675   0.70124   0.00000  Uiso   1.00
C281   C     0.03804   0.47782   0.75701   0.00000  Uiso   1.00
C282   C     0.16205   0.14823   0.55161   0.00000  Uiso   1.00
C283   C     0.20471   0.11544   0.49057   0.00000  Uiso   1.00
C284   C     0.17469   0.09126   0.44298   0.00000  Uiso   1.00
C285   C     0.15115   0.04287   0.34928   0.00000  Uiso   1.00
C286   C     0.16634   0.14709   0.64898   0.00000  Uiso   1.00
C287   C     0.21261   0.11332   0.66979   0.00000  Uiso   1.00
C288   C     0.18620   0.08816   0.70416   0.00000  Uiso   1.00
C289   C     0.16932   0.03799   0.76163   0.00000  Uiso   1.00
C290   C     0.05491   0.19393   0.63468   0.00000  Uiso   1.00
C291   C     0.06518   0.25926   0.66092   0.00000  Uiso   1.00
C292   C     0.01263   0.32147   0.69435   0.00000  Uiso   1.00
C293   C     0.03276   0.37511   0.71430   0.00000  Uiso   1.00
C294   C     0.09189   0.15658   0.56464   0.00000  Uiso   1.00
C295   C     0.06180   0.13244   0.51713   0.00000  Uiso   1.00
C296   C     0.10440   0.09962   0.45604   0.00000  Uiso   1.00
C297   C     0.09617   0.15543   0.66201   0.00000  Uiso   1.00
C298   C     0.06969   0.13032   0.69635   0.00000  Uiso   1.00
C299   C     0.11591   0.09652   0.71722   0.00000  Uiso   1.00
H300   H     0.23871   0.17207   0.60052   0.00000  Uiso   1.00
H301   H     0.20986   0.29799   0.65769   0.00000  Uiso   1.00
H302   H     0.25901   0.10898   0.48050   0.00000  Uiso   1.00
H303   H     0.26690   0.10687   0.65969   0.00000  Uiso   1.00
H304   H     0.14692   0.44128   0.72680   0.00000  Uiso   1.00
H305   H     0.25057   0.04273   0.35319   0.00000  Uiso   1.00
H306   H     0.26721   0.03826   0.73105   0.00000  Uiso   1.00
H307   H     0.00028   0.20043   0.64482   0.00000  Uiso   1.00
H308   H     0.95834   0.32792   0.70443   0.00000  Uiso   1.00
H309   H     0.00750   0.13890   0.52723   0.00000  Uiso   1.00
H310   H     0.01539   0.13679   0.70643   0.00000  Uiso   1.00
H311   H     0.94278   0.46557   0.76473   0.00000  Uiso   1.00
H312   H     0.04644   0.06701   0.39111   0.00000  Uiso   1.00
H313   H     0.06308   0.06254   0.76898   0.00000  Uiso   1.00
O314   O     0.02156   0.53678   0.78416   0.00000  Uiso   1.00
O315   O     0.15755   0.01388   0.29399   0.00000  Uiso   1.00
O316   O     0.17939   0.00802   0.78973   0.00000  Uiso   1.00
N317   N     0.10463   0.42950   0.72756   0.00000  Uiso   1.00
N318   N     0.20154   0.05689   0.37825   0.00000  Uiso   1.00
N319   N     0.21710   0.05269   0.73150   0.00000  Uiso   1.00
N320   N     0.99479   0.44257   0.74797   0.00000  Uiso   1.00
N321   N     0.09169   0.06995   0.39866   0.00000  Uiso   1.00
N322   N     0.10726   0.06576   0.75191   0.00000  Uiso   1.00
C323   C     0.85190   0.85221   0.32488   0.00000  Uiso   1.00
C324   C     0.77437   0.89396   0.34788   0.00000  Uiso   1.00
C325   C     0.73777   0.94486   0.40838   0.00000  Uiso   1.00
C326   C     0.66714   0.97705   0.42002   0.00000  Uiso   1.00
C327   C     0.55175   0.04466   0.46291   0.00000  Uiso   1.00
C328   C     0.88209   0.85905   0.26979   0.00000  Uiso   1.00
C329   C     0.93606   0.88059   0.26463   0.00000  Uiso   1.00
C330   C     0.95612   0.88338   0.21053   0.00000  Uiso   1.00
C331   C     0.00800   0.89674   0.13215   0.00000  Uiso   1.00
C332   C     0.85789   0.78078   0.29741   0.00000  Uiso   1.00
C333   C     0.89153   0.73650   0.31547   0.00000  Uiso   1.00
C334   C     0.89123   0.67340   0.28461   0.00000  Uiso   1.00
C335   C     0.90553   0.56523   0.24914   0.00000  Uiso   1.00
C336   C     0.79156   0.81887   0.23797   0.00000  Uiso   1.00
C337   C     0.74160   0.87585   0.30067   0.00000  Uiso   1.00
C338   C     0.67101   0.90797   0.31223   0.00000  Uiso   1.00
C339   C     0.63431   0.95891   0.37274   0.00000  Uiso   1.00
C340   C     0.84932   0.84094   0.22258   0.00000  Uiso   1.00
C341   C     0.86930   0.84370   0.16848   0.00000  Uiso   1.00
C342   C     0.92329   0.86524   0.16324   0.00000  Uiso   1.00
C343   C     0.82511   0.76267   0.25021   0.00000  Uiso   1.00
C344   C     0.82477   0.69962   0.21932   0.00000  Uiso   1.00
C345   C     0.85840   0.65525   0.23733   0.00000  Uiso   1.00
H346   H     0.87741   0.86631   0.36162   0.00000  Uiso   1.00
H347   H     0.76315   0.95887   0.44489   0.00000  Uiso   1.00
H348   H     0.96141   0.89459   0.30116   0.00000  Uiso   1.00
H349   H     0.91688   0.75054   0.35199   0.00000  Uiso   1.00
H350   H     0.62202   0.05351   0.51639   0.00000  Uiso   1.00
H351   H     0.04009   0.91797   0.21331   0.00000  Uiso   1.00
H352   H     0.94619   0.61419   0.32051   0.00000  Uiso   1.00
H353   H     0.76604   0.80477   0.20122   0.00000  Uiso   1.00
H354   H     0.64566   0.89395   0.27569   0.00000  Uiso   1.00
H355   H     0.84393   0.82968   0.13196   0.00000  Uiso   1.00
H356   H     0.79940   0.68562   0.18279   0.00000  Uiso   1.00
H357   H     0.52666   0.00082   0.37906   0.00000  Uiso   1.00
H358   H     0.94473   0.86528   0.07598   0.00000  Uiso   1.00
H359   H     0.85083   0.56150   0.18318   0.00000  Uiso   1.00
O360   O     0.49716   0.08695   0.49960   0.00000  Uiso   1.00
O361   O     0.04566   0.90912   0.10197   0.00000  Uiso   1.00
O362   O     0.92247   0.51057   0.24261   0.00000  Uiso   1.00
N363   N     0.61609   0.02886   0.47385   0.00000  Uiso   1.00
N364   N     0.00696   0.90215   0.19050   0.00000  Uiso   1.00
N365   N     0.91919   0.61814   0.29070   0.00000  Uiso   1.00
N366   N     0.56478   0.00051   0.39996   0.00000  Uiso   1.00
N367   N     0.95565   0.87380   0.11660   0.00000  Uiso   1.00
N368   N     0.86788   0.58979   0.21681   0.00000  Uiso   1.00
C369   C     0.15529   0.72401   0.13465   0.00000  Uiso   1.00
C370   C     0.15723   0.69498   0.06584   0.00000  Uiso   1.00
C371   C     0.10102   0.70934   0.04331   0.00000  Uiso   1.00
C372   C     0.11351   0.67764   0.97876   0.00000  Uiso   1.00
C373   C     0.10644   0.63935   0.87808   0.00000  Uiso   1.00
C374   C     0.20930   0.75557   0.14193   0.00000  Uiso   1.00
C375   C     0.19686   0.82087   0.18338   0.00000  Uiso   1.00
C376   C     0.25318   0.84017   0.18289   0.00000  Uiso   1.00
C377   C     0.32695   0.89593   0.20038   0.00000  Uiso   1.00
C378   C     0.18303   0.66541   0.14508   0.00000  Uiso   1.00
C379   C     0.14852   0.65491   0.18918   0.00000  Uiso   1.00
C380   C     0.18273   0.59831   0.19134   0.00000  Uiso   1.00
C381   C     0.21572   0.51409   0.21371   0.00000  Uiso   1.00
C382   C     0.27741   0.64218   0.06009   0.00000  Uiso   1.00
C383   C     0.22357   0.65054   0.02535   0.00000  Uiso   1.00
C384   C     0.23614   0.61881   0.96081   0.00000  Uiso   1.00
C385   C     0.17996   0.63311   0.93819   0.00000  Uiso   1.00
C386   C     0.27563   0.71113   0.10144   0.00000  Uiso   1.00
C387   C     0.33198   0.73034   0.10089   0.00000  Uiso   1.00
C388   C     0.31963   0.79565   0.14232   0.00000  Uiso   1.00
C389   C     0.24936   0.62096   0.10458   0.00000  Uiso   1.00
C390   C     0.28363   0.56438   0.10668   0.00000  Uiso   1.00
C391   C     0.24918   0.55379   0.15077   0.00000  Uiso   1.00
H392   H     0.10365   0.75861   0.16618   0.00000  Uiso   1.00
H393   H     0.04970   0.74374   0.07466   0.00000  Uiso   1.00
H394   H     0.14553   0.85525   0.21472   0.00000  Uiso   1.00
H395   H     0.09719   0.68931   0.22051   0.00000  Uiso   1.00
H396   H     0.01914   0.70767   0.95534   0.00000  Uiso   1.00
H397   H     0.22120   0.94278   0.25067   0.00000  Uiso   1.00
H398   H     0.11928   0.59288   0.26288   0.00000  Uiso   1.00
H399   H     0.32906   0.60758   0.02856   0.00000  Uiso   1.00
H400   H     0.28748   0.58442   0.92949   0.00000  Uiso   1.00
H401   H     0.38330   0.69593   0.06954   0.00000  Uiso   1.00
H402   H     0.33497   0.52999   0.07533   0.00000  Uiso   1.00
H403   H     0.21213   0.57836   0.83751   0.00000  Uiso   1.00
H404   H     0.41419   0.81347   0.13284   0.00000  Uiso   1.00
H405   H     0.31227   0.46357   0.14505   0.00000  Uiso   1.00
O406   O     0.08422   0.63052   0.83374   0.00000  Uiso   1.00
O407   O     0.34931   0.93897   0.22120   0.00000  Uiso   1.00
O408   O     0.21559   0.47991   0.23723   0.00000  Uiso   1.00
N409   N     0.07027   0.68040   0.94121   0.00000  Uiso   1.00
N410   N     0.25918   0.90022   0.21731   0.00000  Uiso   1.00
N411   N     0.16389   0.57310   0.22874   0.00000  Uiso   1.00
N412   N     0.17411   0.61082   0.87780   0.00000  Uiso   1.00
N413   N     0.36302   0.83064   0.15391   0.00000  Uiso   1.00
N414   N     0.26774   0.50352   0.16534   0.00000  Uiso   1.00
C415   C     0.56760   0.47163   0.38254   0.00000  Uiso   1.00
C416   C     0.51544   0.46630   0.34472   0.00000  Uiso   1.00
C417   C     0.53132   0.43899   0.28015   0.00000  Uiso   1.00
C418   C     0.47621   0.43879   0.25446   0.00000  Uiso   1.00
C419   C     0.40563   0.42656   0.19002   0.00000  Uiso   1.00
C420   C     0.54365   0.54455   0.43056   0.00000  Uiso   1.00
C421   C     0.58326   0.58304   0.43818   0.00000  Uiso   1.00
C422   C     0.55189   0.64871   0.48476   0.00000  Uiso   1.00
C423   C     0.52513   0.75797   0.55363   0.00000  Uiso   1.00
C424   C     0.55728   0.43708   0.41974   0.00000  Uiso   1.00
C425   C     0.60836   0.38521   0.41827   0.00000  Uiso   1.00
C426   C     0.58847   0.36041   0.45574   0.00000  Uiso   1.00
C427   C     0.58287   0.30278   0.50781   0.00000  Uiso   1.00
C428   C     0.44147   0.51984   0.45171   0.00000  Uiso   1.00
C429   C     0.44693   0.49248   0.38229   0.00000  Uiso   1.00
C430   C     0.39177   0.49232   0.35669   0.00000  Uiso   1.00
C431   C     0.40757   0.46502   0.29209   0.00000  Uiso   1.00
C432   C     0.47514   0.57074   0.46814   0.00000  Uiso   1.00
C433   C     0.44371   0.63637   0.51471   0.00000  Uiso   1.00
C434   C     0.48326   0.67495   0.52240   0.00000  Uiso   1.00
C435   C     0.48877   0.46326   0.45731   0.00000  Uiso   1.00
C436   C     0.46880   0.43854   0.49480   0.00000  Uiso   1.00
C437   C     0.51983   0.38664   0.49339   0.00000  Uiso   1.00
H438   H     0.62094   0.45125   0.35329   0.00000  Uiso   1.00
H439   H     0.58435   0.41874   0.25109   0.00000  Uiso   1.00
H440   H     0.63628   0.56276   0.40910   0.00000  Uiso   1.00
H441   H     0.66137   0.36496   0.38919   0.00000  Uiso   1.00
H442   H     0.51357   0.39426   0.15436   0.00000  Uiso   1.00
H443   H     0.62307   0.69794   0.48755   0.00000  Uiso   1.00
H444   H     0.67598   0.28083   0.44556   0.00000  Uiso   1.00
H445   H     0.38813   0.54022   0.48097   0.00000  Uiso   1.00
H446   H     0.33876   0.51259   0.38577   0.00000  Uiso   1.00
H447   H     0.39069   0.65662   0.54378   0.00000  Uiso   1.00
H448   H     0.41578   0.45881   0.52387   0.00000  Uiso   1.00
H449   H     0.31424   0.47044   0.26367   0.00000  Uiso   1.00
H450   H     0.42374   0.77412   0.59686   0.00000  Uiso   1.00
H451   H     0.47665   0.35701   0.55487   0.00000  Uiso   1.00
O452   O     0.38562   0.41259   0.14410   0.00000  Uiso   1.00
O453   O     0.52929   0.81099   0.58123   0.00000  Uiso   1.00
O454   O     0.59870   0.26376   0.52614   0.00000  Uiso   1.00
N455   N     0.47343   0.41597   0.19315   0.00000  Uiso   1.00
N456   N     0.57580   0.69989   0.50465   0.00000  Uiso   1.00
N457   N     0.62527   0.30994   0.46541   0.00000  Uiso   1.00
N458   N     0.36617   0.45696   0.25197   0.00000  Uiso   1.00
N459   N     0.46855   0.74088   0.56347   0.00000  Uiso   1.00
N460   N     0.51802   0.35094   0.52423   0.00000  Uiso   1.00
C461   C     0.33883   0.08449   0.08286   0.00000  Uiso   1.00
C462   C     0.30024   0.15840   0.11023   0.00000  Uiso   1.00
C463   C     0.22891   0.19046   0.12572   0.00000  Uiso   1.00
C464   C     0.20371   0.25832   0.15016   0.00000  Uiso   1.00
C465   C     0.13702   0.36783   0.19131   0.00000  Uiso   1.00
C466   C     0.39223   0.06152   0.02193   0.00000  Uiso   1.00
C467   C     0.39824   0.01211   0.96319   0.00000  Uiso   1.00
C468   C     0.45049   0.99841   0.91330   0.00000  Uiso   1.00
C469   C     0.52663   0.95747   0.81738   0.00000  Uiso   1.00
C470   C     0.38029   0.07708   0.12728   0.00000  Uiso   1.00
C471   C     0.37628   0.04074   0.15710   0.00000  Uiso   1.00
C472   C     0.41849   0.04013   0.19590   0.00000  Uiso   1.00
C473   C     0.47609   0.02335   0.26354   0.00000  Uiso   1.00
C474   C     0.42094   0.14800   0.09871   0.00000  Uiso   1.00
C475   C     0.34485   0.19289   0.11883   0.00000  Uiso   1.00
C476   C     0.31975   0.26072   0.14326   0.00000  Uiso   1.00
C477   C     0.24839   0.29287   0.15879   0.00000  Uiso   1.00
C478   C     0.43683   0.09601   0.03054   0.00000  Uiso   1.00
C479   C     0.48908   0.08237   0.98073   0.00000  Uiso   1.00
C480   C     0.49517   0.03296   0.92192   0.00000  Uiso   1.00
C481   C     0.42489   0.11157   0.13589   0.00000  Uiso   1.00
C482   C     0.46712   0.11101   0.17464   0.00000  Uiso   1.00
C483   C     0.46317   0.07468   0.20452   0.00000  Uiso   1.00
H484   H     0.30411   0.05764   0.07616   0.00000  Uiso   1.00
H485   H     0.19441   0.16375   0.11905   0.00000  Uiso   1.00
H486   H     0.36372   0.98543   0.95655   0.00000  Uiso   1.00
H487   H     0.34176   0.01406   0.15043   0.00000  Uiso   1.00
H488   H     0.09246   0.29660   0.17038   0.00000  Uiso   1.00
H489   H     0.44948   0.92058   0.82773   0.00000  Uiso   1.00
H490   H     0.40316   0.98095   0.23657   0.00000  Uiso   1.00
H491   H     0.45567   0.17485   0.10541   0.00000  Uiso   1.00
H492   H     0.35428   0.28740   0.14991   0.00000  Uiso   1.00
H493   H     0.52359   0.10907   0.98741   0.00000  Uiso   1.00
H494   H     0.50162   0.13770   0.18129   0.00000  Uiso   1.00
H495   H     0.22221   0.39696   0.19542   0.00000  Uiso   1.00
H496   H     0.57923   0.02094   0.85278   0.00000  Uiso   1.00
H497   H     0.53292   0.08131   0.26162   0.00000  Uiso   1.00
O498   O     0.08791   0.41870   0.21163   0.00000  Uiso   1.00
O499   O     0.55631   0.92537   0.76209   0.00000  Uiso   1.00
O500   O     0.49554   0.00458   0.29849   0.00000  Uiso   1.00
N501   N     0.13691   0.30478   0.17018   0.00000  Uiso   1.00
N502   N     0.47069   0.95323   0.84982   0.00000  Uiso   1.00
N503   N     0.42741   0.00966   0.23204   0.00000  Uiso   1.00
N504   N     0.20673   0.35878   0.18366   0.00000  Uiso   1.00
N505   N     0.54051   0.00723   0.86330   0.00000  Uiso   1.00
N506   N     0.49722   0.06366   0.24552   0.00000  Uiso   1.00
C507   C     0.79023   0.84674   0.76330   0.00000  Uiso   1.00
C508   C     0.84383   0.87722   0.75941   0.00000  Uiso   1.00
C509   C     0.83234   0.94374   0.79263   0.00000  Uiso   1.00
C510   C     0.88807   0.96173   0.78251   0.00000  Uiso   1.00
C511   C     0.96143   0.01619   0.78282   0.00000  Uiso   1.00
C512   C     0.78689   0.80922   0.69656   0.00000  Uiso   1.00
C513   C     0.72752   0.81858   0.67695   0.00000  Uiso   1.00
C514   C     0.73532   0.77933   0.61392   0.00000  Uiso   1.00
C515   C     0.72026   0.72820   0.51666   0.00000  Uiso   1.00
C516   C     0.82178   0.79461   0.78110   0.00000  Uiso   1.00
C517   C     0.79175   0.79166   0.83257   0.00000  Uiso   1.00
C518   C     0.82891   0.74009   0.84071   0.00000  Uiso   1.00
C519   C     0.86804   0.66627   0.87472   0.00000  Uiso   1.00
C520   C     0.90963   0.76040   0.68623   0.00000  Uiso   1.00
C521   C     0.90868   0.83032   0.71755   0.00000  Uiso   1.00
C522   C     0.96444   0.84822   0.70737   0.00000  Uiso   1.00
C523   C     0.95304   0.91475   0.74058   0.00000  Uiso   1.00
C524   C     0.85174   0.76233   0.65470   0.00000  Uiso   1.00
C525   C     0.85962   0.72306   0.59169   0.00000  Uiso   1.00
C526   C     0.80028   0.73235   0.57198   0.00000  Uiso   1.00
C527   C     0.88664   0.74771   0.73925   0.00000  Uiso   1.00
C528   C     0.92385   0.69614   0.74731   0.00000  Uiso   1.00
C529   C     0.89388   0.69311   0.79878   0.00000  Uiso   1.00
H530   H     0.73974   0.88324   0.79588   0.00000  Uiso   1.00
H531   H     0.78214   0.98001   0.82502   0.00000  Uiso   1.00
H532   H     0.67734   0.85486   0.70935   0.00000  Uiso   1.00
H533   H     0.74156   0.82795   0.86495   0.00000  Uiso   1.00
H534   H     0.85776   0.06662   0.83885   0.00000  Uiso   1.00
H535   H     0.63677   0.80272   0.59496   0.00000  Uiso   1.00
H536   H     0.77218   0.74597   0.92307   0.00000  Uiso   1.00
H537   H     0.96012   0.72389   0.65364   0.00000  Uiso   1.00
H538   H     0.01462   0.81192   0.67498   0.00000  Uiso   1.00
H539   H     0.90982   0.68677   0.55931   0.00000  Uiso   1.00
H540   H     0.97404   0.65986   0.71491   0.00000  Uiso   1.00
H541   H     0.04644   0.93019   0.71707   0.00000  Uiso   1.00
H542   H     0.82545   0.66629   0.47318   0.00000  Uiso   1.00
H543   H     0.96087   0.60954   0.80129   0.00000  Uiso   1.00
O544   O     0.98397   0.05919   0.79454   0.00000  Uiso   1.00
O545   O     0.69404   0.71296   0.47458   0.00000  Uiso   1.00
O546   O     0.87170   0.63851   0.90505   0.00000  Uiso   1.00
N547   N     0.89469   0.02243   0.80727   0.00000  Uiso   1.00
N548   N     0.68808   0.77571   0.57925   0.00000  Uiso   1.00
N549   N     0.81467   0.72264   0.88599   0.00000  Uiso   1.00
N550   N     0.99622   0.94902   0.74174   0.00000  Uiso   1.00
N551   N     0.78961   0.70230   0.51372   0.00000  Uiso   1.00
N552   N     0.91620   0.64923   0.82046   0.00000  Uiso   1.00
