data_job_06820
_audit_creation_date              2018-12-19
_audit_creation_method            'Materials Studio'
_symmetry_space_group_name_H-M    'P1'
_symmetry_Int_Tables_number       1
_symmetry_cell_setting            triclinic
loop_
_symmetry_equiv_pos_as_xyz
  x,y,z
_cell_length_a                    18.8125
_cell_length_b                    18.5632
_cell_length_c                    22.9598
_cell_angle_alpha                 74.7919
_cell_angle_beta                  78.2731
_cell_angle_gamma                 81.1786
loop_
_atom_site_label
_atom_site_type_symbol
_atom_site_fract_x
_atom_site_fract_y
_atom_site_fract_z
_atom_site_U_iso_or_equiv
_atom_site_adp_type
_atom_site_occupancy
C1     C     0.68439   0.08885   0.82578   0.00000  Uiso   1.00
C2     C     0.65683   0.01683   0.86806   0.00000  Uiso   1.00
C3     C     0.61161   0.01125   0.92457   0.00000  Uiso   1.00
C4     C     0.59255   0.94032   0.95625   0.00000  Uiso   1.00
C5     C     0.54595   0.83808   0.02558   0.00000  Uiso   1.00
C6     C     0.76746   0.07424   0.81435   0.00000  Uiso   1.00
C7     C     0.81525   0.11693   0.82569   0.00000  Uiso   1.00
C8     C     0.88933   0.09433   0.81214   0.00000  Uiso   1.00
C9     C     0.01448   0.08125   0.79803   0.00000  Uiso   1.00
C10    C     0.66080   0.09594   0.76460   0.00000  Uiso   1.00
C11    C     0.61893   0.15689   0.73411   0.00000  Uiso   1.00
C12    C     0.60322   0.15256   0.67867   0.00000  Uiso   1.00
C13    C     0.56276   0.17317   0.58733   0.00000  Uiso   1.00
C14    C     0.73097   0.97280   0.78153   0.00000  Uiso   1.00
C15    C     0.68214   0.95380   0.84403   0.00000  Uiso   1.00
C16    C     0.66314   0.88286   0.87563   0.00000  Uiso   1.00
C17    C     0.61790   0.87717   0.93218   0.00000  Uiso   1.00
C18    C     0.79277   0.01121   0.79032   0.00000  Uiso   1.00
C19    C     0.86679   0.98854   0.77674   0.00000  Uiso   1.00
C20    C     0.91468   0.03118   0.78807   0.00000  Uiso   1.00
C21    C     0.68610   0.03291   0.74057   0.00000  Uiso   1.00
C22    C     0.67046   0.02849   0.68517   0.00000  Uiso   1.00
C23    C     0.62857   0.08941   0.65460   0.00000  Uiso   1.00
H24    H     0.66470   0.13792   0.84448   0.00000  Uiso   1.00
H25    H     0.59205   0.06004   0.94316   0.00000  Uiso   1.00
H26    H     0.79566   0.16571   0.84428   0.00000  Uiso   1.00
H27    H     0.59936   0.20565   0.75272   0.00000  Uiso   1.00
H28    H     0.52268   0.94590   0.04197   0.00000  Uiso   1.00
H29    H     0.95200   0.16872   0.83346   0.00000  Uiso   1.00
H30    H     0.53807   0.25295   0.64039   0.00000  Uiso   1.00
H31    H     0.75067   0.92372   0.76282   0.00000  Uiso   1.00
H32    H     0.68273   0.83409   0.85702   0.00000  Uiso   1.00
H33    H     0.88635   0.93976   0.75814   0.00000  Uiso   1.00
H34    H     0.69005   0.97970   0.66658   0.00000  Uiso   1.00
H35    H     0.59629   0.76251   0.97206   0.00000  Uiso   1.00
H36    H     0.02561   0.98533   0.76355   0.00000  Uiso   1.00
H37    H     0.61168   0.06956   0.57048   0.00000  Uiso   1.00
O38    O     0.51326   0.79910   0.07046   0.00000  Uiso   1.00
O39    O     0.07652   0.09144   0.79690   0.00000  Uiso   1.00
O40    O     0.53344   0.20195   0.54359   0.00000  Uiso   1.00
N41    N     0.54931   0.91504   0.01258   0.00000  Uiso   1.00
N42    N     0.95071   0.12336   0.81765   0.00000  Uiso   1.00
N43    N     0.56373   0.20212   0.63713   0.00000  Uiso   1.00
N44    N     0.58892   0.81636   0.97496   0.00000  Uiso   1.00
N45    N     0.99031   0.02468   0.78003   0.00000  Uiso   1.00
N46    N     0.60334   0.10344   0.59952   0.00000  Uiso   1.00
C47    C     0.90985   0.73332   0.04408   0.00000  Uiso   1.00
C48    C     0.90911   0.74099   0.97642   0.00000  Uiso   1.00
C49    C     0.95319   0.69699   0.93992   0.00000  Uiso   1.00
C50    C     0.94420   0.71292   0.87914   0.00000  Uiso   1.00
C51    C     0.95087   0.71605   0.77764   0.00000  Uiso   1.00
C52    C     0.92383   0.80998   0.04927   0.00000  Uiso   1.00
C53    C     0.98028   0.82400   0.07402   0.00000  Uiso   1.00
C54    C     0.98368   0.89800   0.07457   0.00000  Uiso   1.00
C55    C     0.01318   0.00824   0.08620   0.00000  Uiso   1.00
C56    C     0.83194   0.72198   0.07705   0.00000  Uiso   1.00
C57    C     0.81114   0.66200   0.12518   0.00000  Uiso   1.00
C58    C     0.73717   0.66192   0.14913   0.00000  Uiso   1.00
C59    C     0.62400   0.63552   0.20390   0.00000  Uiso   1.00
C60    C     0.81549   0.83983   0.00105   0.00000  Uiso   1.00
C61    C     0.85786   0.79884   0.95305   0.00000  Uiso   1.00
C62    C     0.84879   0.81483   0.89231   0.00000  Uiso   1.00
C63    C     0.89285   0.77087   0.85573   0.00000  Uiso   1.00
C64    C     0.87258   0.86784   0.02590   0.00000  Uiso   1.00
C65    C     0.87589   0.94184   0.02642   0.00000  Uiso   1.00
C66    C     0.93234   0.95596   0.05116   0.00000  Uiso   1.00
C67    C     0.78069   0.77983   0.05368   0.00000  Uiso   1.00
C68    C     0.70674   0.77984   0.07757   0.00000  Uiso   1.00
C69    C     0.68583   0.71988   0.12572   0.00000  Uiso   1.00
H70    H     0.94975   0.68828   0.06228   0.00000  Uiso   1.00
H71    H     0.99285   0.65223   0.95802   0.00000  Uiso   1.00
H72    H     0.01993   0.77921   0.09211   0.00000  Uiso   1.00
H73    H     0.85081   0.61724   0.14325   0.00000  Uiso   1.00
H74    H     0.01805   0.63780   0.83213   0.00000  Uiso   1.00
H75    H     0.07514   0.90554   0.11488   0.00000  Uiso   1.00
H76    H     0.71852   0.56400   0.22272   0.00000  Uiso   1.00
H77    H     0.77559   0.88487   0.98285   0.00000  Uiso   1.00
H78    H     0.80913   0.85961   0.87424   0.00000  Uiso   1.00
H79    H     0.83622   0.98659   0.00833   0.00000  Uiso   1.00
H80    H     0.66710   0.82462   0.05947   0.00000  Uiso   1.00
H81    H     0.86894   0.80611   0.76413   0.00000  Uiso   1.00
H82    H     0.92604   0.07386   0.04688   0.00000  Uiso   1.00
H83    H     0.56941   0.73231   0.15472   0.00000  Uiso   1.00
O84    O     0.96872   0.70181   0.72811   0.00000  Uiso   1.00
O85    O     0.04362   0.05307   0.09907   0.00000  Uiso   1.00
O86    O     0.57574   0.60497   0.24056   0.00000  Uiso   1.00
N87    N     0.97834   0.68087   0.83103   0.00000  Uiso   1.00
N88    N     0.03173   0.93119   0.09538   0.00000  Uiso   1.00
N89    N     0.69832   0.61189   0.19622   0.00000  Uiso   1.00
N90    N     0.89811   0.77144   0.79444   0.00000  Uiso   1.00
N91    N     0.95150   0.02176   0.05878   0.00000  Uiso   1.00
N92    N     0.61809   0.70246   0.15962   0.00000  Uiso   1.00
C93    C     0.14549   0.94614   0.57893   0.00000  Uiso   1.00
C94    C     0.06868   0.98544   0.57478   0.00000  Uiso   1.00
C95    C     0.05140   0.05533   0.53738   0.00000  Uiso   1.00
C96    C     0.97787   0.08152   0.54025   0.00000  Uiso   1.00
C97    C     0.86686   0.14898   0.52790   0.00000  Uiso   1.00
C98    C     0.15290   0.92958   0.64621   0.00000  Uiso   1.00
C99    C     0.20643   0.95250   0.66887   0.00000  Uiso   1.00
C100   C     0.20380   0.93165   0.73187   0.00000  Uiso   1.00
C101   C     0.22357   0.91234   0.83042   0.00000  Uiso   1.00
C102   C     0.14646   0.87011   0.56489   0.00000  Uiso   1.00
C103   C     0.19459   0.84300   0.51917   0.00000  Uiso   1.00
C104   C     0.18655   0.77206   0.51370   0.00000  Uiso   1.00
C105   C     0.19632   0.66041   0.48598   0.00000  Uiso   1.00
C106   C     0.04563   0.86837   0.65054   0.00000  Uiso   1.00
C107   C     0.01444   0.94320   0.61368   0.00000  Uiso   1.00
C108   C     0.94092   0.96928   0.61660   0.00000  Uiso   1.00
C109   C     0.92353   0.03920   0.57921   0.00000  Uiso   1.00
C110   C     0.09866   0.88734   0.68511   0.00000  Uiso   1.00
C111   C     0.09595   0.86645   0.74809   0.00000  Uiso   1.00
C112   C     0.14947   0.88933   0.77084   0.00000  Uiso   1.00
C113   C     0.09222   0.82786   0.60378   0.00000  Uiso   1.00
C114   C     0.08410   0.75695   0.59839   0.00000  Uiso   1.00
C115   C     0.13221   0.72974   0.55267   0.00000  Uiso   1.00
H116   H     0.18772   0.97903   0.54866   0.00000  Uiso   1.00
H117   H     0.09339   0.08801   0.50729   0.00000  Uiso   1.00
H118   H     0.24840   0.98518   0.63875   0.00000  Uiso   1.00
H119   H     0.23656   0.87570   0.48908   0.00000  Uiso   1.00
H120   H     0.96489   0.19021   0.47859   0.00000  Uiso   1.00
H121   H     0.29176   0.97337   0.75580   0.00000  Uiso   1.00
H122   H     0.26678   0.74252   0.44017   0.00000  Uiso   1.00
H123   H     0.00340   0.83548   0.68083   0.00000  Uiso   1.00
H124   H     0.89896   0.93658   0.64671   0.00000  Uiso   1.00
H125   H     0.05397   0.83375   0.77818   0.00000  Uiso   1.00
H126   H     0.04213   0.72428   0.62850   0.00000  Uiso   1.00
H127   H     0.80709   0.06731   0.59175   0.00000  Uiso   1.00
H128   H     0.13396   0.85047   0.86896   0.00000  Uiso   1.00
H129   H     0.10898   0.61961   0.55333   0.00000  Uiso   1.00
O130   O     0.82061   0.19787   0.51036   0.00000  Uiso   1.00
O131   O     0.24946   0.91337   0.87404   0.00000  Uiso   1.00
O132   O     0.21668   0.61050   0.45994   0.00000  Uiso   1.00
N133   N     0.94209   0.14741   0.50990   0.00000  Uiso   1.00
N134   N     0.24768   0.94469   0.76907   0.00000  Uiso   1.00
N135   N     0.22434   0.72885   0.47399   0.00000  Uiso   1.00
N136   N     0.85717   0.08127   0.57079   0.00000  Uiso   1.00
N137   N     0.16277   0.87855   0.82996   0.00000  Uiso   1.00
N138   N     0.13943   0.66271   0.53489   0.00000  Uiso   1.00
C139   C     0.15071   0.44532   0.51763   0.00000  Uiso   1.00
C140   C     0.15368   0.45729   0.44892   0.00000  Uiso   1.00
C141   C     0.13483   0.52467   0.40897   0.00000  Uiso   1.00
C142   C     0.14134   0.52401   0.34778   0.00000  Uiso   1.00
C143   C     0.14225   0.55260   0.24420   0.00000  Uiso   1.00
C144   C     0.22736   0.41310   0.52974   0.00000  Uiso   1.00
C145   C     0.27046   0.44332   0.55774   0.00000  Uiso   1.00
C146   C     0.33899   0.40544   0.56459   0.00000  Uiso   1.00
C147   C     0.45428   0.36540   0.58651   0.00000  Uiso   1.00
C148   C     0.10201   0.38265   0.54845   0.00000  Uiso   1.00
C149   C     0.03970   0.38726   0.59221   0.00000  Uiso   1.00
C150   C     0.00271   0.32375   0.61482   0.00000  Uiso   1.00
C151   C     0.92336   0.23643   0.66580   0.00000  Uiso   1.00
C152   C     0.19580   0.32431   0.48000   0.00000  Uiso   1.00
C153   C     0.17817   0.39156   0.42848   0.00000  Uiso   1.00
C154   C     0.18471   0.39080   0.36734   0.00000  Uiso   1.00
C155   C     0.16587   0.45817   0.32730   0.00000  Uiso   1.00
C156   C     0.25186   0.34737   0.50930   0.00000  Uiso   1.00
C157   C     0.32034   0.30944   0.51611   0.00000  Uiso   1.00
C158   C     0.36353   0.33960   0.54411   0.00000  Uiso   1.00
C159   C     0.12649   0.31693   0.52801   0.00000  Uiso   1.00
C160   C     0.08959   0.25339   0.55057   0.00000  Uiso   1.00
C161   C     0.02724   0.25790   0.59435   0.00000  Uiso   1.00
H162   H     0.13165   0.49649   0.53355   0.00000  Uiso   1.00
H163   H     0.11588   0.57553   0.42481   0.00000  Uiso   1.00
H164   H     0.25149   0.49418   0.57356   0.00000  Uiso   1.00
H165   H     0.02077   0.43813   0.60802   0.00000  Uiso   1.00
H166   H     0.10923   0.63418   0.29523   0.00000  Uiso   1.00
H167   H     0.39515   0.46264   0.60890   0.00000  Uiso   1.00
H168   H     0.90863   0.34446   0.68156   0.00000  Uiso   1.00
H169   H     0.21487   0.27314   0.46409   0.00000  Uiso   1.00
H170   H     0.20367   0.33993   0.35153   0.00000  Uiso   1.00
H171   H     0.33927   0.25858   0.50029   0.00000  Uiso   1.00
H172   H     0.10856   0.20254   0.53474   0.00000  Uiso   1.00
H173   H     0.18048   0.44296   0.23576   0.00000  Uiso   1.00
H174   H     0.46640   0.27141   0.54943   0.00000  Uiso   1.00
H175   H     0.97988   0.15323   0.62209   0.00000  Uiso   1.00
O176   O     0.13600   0.58653   0.19270   0.00000  Uiso   1.00
O177   O     0.51111   0.36147   0.60424   0.00000  Uiso   1.00
O178   O     0.87282   0.20642   0.69956   0.00000  Uiso   1.00
N179   N     0.12752   0.58000   0.29668   0.00000  Uiso   1.00
N180   N     0.39484   0.41963   0.58994   0.00000  Uiso   1.00
N181   N     0.94000   0.30914   0.65788   0.00000  Uiso   1.00
N182   N     0.16586   0.47711   0.26468   0.00000  Uiso   1.00
N183   N     0.43318   0.31674   0.55794   0.00000  Uiso   1.00
N184   N     0.97834   0.20624   0.62588   0.00000  Uiso   1.00
C185   C     0.41809   0.64594   0.09050   0.00000  Uiso   1.00
C186   C     0.45406   0.56766   0.08619   0.00000  Uiso   1.00
C187   C     0.52419   0.55086   0.05636   0.00000  Uiso   1.00
C188   C     0.54700   0.47577   0.05766   0.00000  Uiso   1.00
C189   C     0.60982   0.36278   0.04643   0.00000  Uiso   1.00
C190   C     0.39480   0.64266   0.15868   0.00000  Uiso   1.00
C191   C     0.41511   0.68891   0.18978   0.00000  Uiso   1.00
C192   C     0.38803   0.67696   0.25210   0.00000  Uiso   1.00
C193   C     0.35882   0.68043   0.35339   0.00000  Uiso   1.00
C194   C     0.34770   0.65659   0.06457   0.00000  Uiso   1.00
C195   C     0.32839   0.71458   0.01656   0.00000  Uiso   1.00
C196   C     0.26163   0.71437   0.99966   0.00000  Uiso   1.00
C197   C     0.15928   0.73948   0.95484   0.00000  Uiso   1.00
C198   C     0.33388   0.54248   0.14587   0.00000  Uiso   1.00
C199   C     0.40832   0.51147   0.11627   0.00000  Uiso   1.00
C200   C     0.43102   0.43639   0.11762   0.00000  Uiso   1.00
C201   C     0.50118   0.41948   0.08778   0.00000  Uiso   1.00
C202   C     0.34907   0.58647   0.18875   0.00000  Uiso   1.00
C203   C     0.32194   0.57445   0.25104   0.00000  Uiso   1.00
C204   C     0.34221   0.62066   0.28223   0.00000  Uiso   1.00
C205   C     0.30196   0.60040   0.09465   0.00000  Uiso   1.00
C206   C     0.23522   0.60011   0.07782   0.00000  Uiso   1.00
C207   C     0.21581   0.65807   0.02979   0.00000  Uiso   1.00
H208   H     0.45370   0.68969   0.06709   0.00000  Uiso   1.00
H209   H     0.55957   0.59436   0.03309   0.00000  Uiso   1.00
H210   H     0.45050   0.73239   0.16649   0.00000  Uiso   1.00
H211   H     0.36379   0.75805   0.99330   0.00000  Uiso   1.00
H212   H     0.65679   0.46389   0.00868   0.00000  Uiso   1.00
H213   H     0.42680   0.75496   0.28996   0.00000  Uiso   1.00
H214   H     0.24395   0.80906   0.92475   0.00000  Uiso   1.00
H215   H     0.29827   0.49873   0.16929   0.00000  Uiso   1.00
H216   H     0.39562   0.39292   0.14089   0.00000  Uiso   1.00
H217   H     0.28655   0.53096   0.27430   0.00000  Uiso   1.00
H218   H     0.19984   0.55661   0.10111   0.00000  Uiso   1.00
H219   H     0.52372   0.30039   0.09618   0.00000  Uiso   1.00
H220   H     0.29372   0.59146   0.37746   0.00000  Uiso   1.00
H221   H     0.11088   0.64557   0.01225   0.00000  Uiso   1.00
O222   O     0.65711   0.31598   0.03193   0.00000  Uiso   1.00
O223   O     0.35535   0.69786   0.40095   0.00000  Uiso   1.00
O224   O     0.11547   0.76884   0.92181   0.00000  Uiso   1.00
N225   N     0.61211   0.43993   0.03316   0.00000  Uiso   1.00
N226   N     0.39709   0.71206   0.29614   0.00000  Uiso   1.00
N227   N     0.22613   0.76265   0.95471   0.00000  Uiso   1.00
N228   N     0.54051   0.35195   0.08024   0.00000  Uiso   1.00
N229   N     0.32548   0.62408   0.34322   0.00000  Uiso   1.00
N230   N     0.15453   0.67468   0.00180   0.00000  Uiso   1.00
C231   C     0.55842   0.25360   0.39235   0.00000  Uiso   1.00
C232   C     0.48324   0.23187   0.39306   0.00000  Uiso   1.00
C233   C     0.44917   0.17406   0.43572   0.00000  Uiso   1.00
C234   C     0.38040   0.16319   0.42844   0.00000  Uiso   1.00
C235   C     0.26874   0.12257   0.43690   0.00000  Uiso   1.00
C236   C     0.54707   0.33635   0.39358   0.00000  Uiso   1.00
C237   C     0.56667   0.36638   0.43666   0.00000  Uiso   1.00
C238   C     0.55165   0.44346   0.42981   0.00000  Uiso   1.00
C239   C     0.53913   0.56505   0.43904   0.00000  Uiso   1.00
C240   C     0.60278   0.24980   0.32958   0.00000  Uiso   1.00
C241   C     0.66925   0.20708   0.31884   0.00000  Uiso   1.00
C242   C     0.70114   0.21131   0.25810   0.00000  Uiso   1.00
C243   C     0.77513   0.19852   0.16796   0.00000  Uiso   1.00
C244   C     0.49689   0.33708   0.30357   0.00000  Uiso   1.00
C245   C     0.44982   0.27721   0.34484   0.00000  Uiso   1.00
C246   C     0.38109   0.26642   0.33749   0.00000  Uiso   1.00
C247   C     0.34693   0.20861   0.38013   0.00000  Uiso   1.00
C248   C     0.51365   0.38169   0.34536   0.00000  Uiso   1.00
C249   C     0.49860   0.45874   0.33844   0.00000  Uiso   1.00
C250   C     0.51817   0.48888   0.38150   0.00000  Uiso   1.00
C251   C     0.56937   0.29514   0.28135   0.00000  Uiso   1.00
C252   C     0.60117   0.29944   0.22062   0.00000  Uiso   1.00
C253   C     0.66767   0.25673   0.20980   0.00000  Uiso   1.00
H254   H     0.58444   0.21830   0.42989   0.00000  Uiso   1.00
H255   H     0.47504   0.13899   0.47303   0.00000  Uiso   1.00
H256   H     0.59254   0.33128   0.47397   0.00000  Uiso   1.00
H257   H     0.69509   0.17200   0.35617   0.00000  Uiso   1.00
H258   H     0.33901   0.07107   0.49961   0.00000  Uiso   1.00
H259   H     0.58678   0.47652   0.50157   0.00000  Uiso   1.00
H260   H     0.80304   0.14066   0.25317   0.00000  Uiso   1.00
H261   H     0.47087   0.37238   0.26603   0.00000  Uiso   1.00
H262   H     0.35525   0.30152   0.30017   0.00000  Uiso   1.00
H263   H     0.47274   0.49381   0.30111   0.00000  Uiso   1.00
H264   H     0.57529   0.33453   0.18331   0.00000  Uiso   1.00
H265   H     0.24178   0.20299   0.35931   0.00000  Uiso   1.00
H266   H     0.48955   0.60845   0.36128   0.00000  Uiso   1.00
H267   H     0.70580   0.27258   0.11287   0.00000  Uiso   1.00
O268   O     0.21637   0.08765   0.45489   0.00000  Uiso   1.00
O269   O     0.54144   0.61959   0.45746   0.00000  Uiso   1.00
O270   O     0.82516   0.17894   0.13156   0.00000  Uiso   1.00
N271   N     0.33200   0.11183   0.46190   0.00000  Uiso   1.00
N272   N     0.56364   0.49091   0.46374   0.00000  Uiso   1.00
N273   N     0.76583   0.17691   0.23150   0.00000  Uiso   1.00
N274   N     0.27968   0.18281   0.38640   0.00000  Uiso   1.00
N275   N     0.51132   0.56189   0.38825   0.00000  Uiso   1.00
N276   N     0.71351   0.24790   0.15601   0.00000  Uiso   1.00
C277   C     0.43711   0.18632   0.03149   0.00000  Uiso   1.00
C278   C     0.41140   0.27004   0.01581   0.00000  Uiso   1.00
C279   C     0.44126   0.32276   0.96531   0.00000  Uiso   1.00
C280   C     0.40996   0.39655   0.95909   0.00000  Uiso   1.00
C281   C     0.37900   0.52346   0.92821   0.00000  Uiso   1.00
C282   C     0.37046   0.14606   0.03666   0.00000  Uiso   1.00
C283   C     0.36589   0.09452   0.00371   0.00000  Uiso   1.00
C284   C     0.30013   0.06394   0.01506   0.00000  Uiso   1.00
C285   C     0.20562   0.99831   0.01659   0.00000  Uiso   1.00
C286   C     0.45499   0.16843   0.09597   0.00000  Uiso   1.00
C287   C     0.52149   0.13569   0.11289   0.00000  Uiso   1.00
C288   C     0.52689   0.12392   0.17418   0.00000  Uiso   1.00
C289   C     0.56363   0.09303   0.26779   0.00000  Uiso   1.00
C290   C     0.32844   0.22362   0.11024   0.00000  Uiso   1.00
C291   C     0.35238   0.29030   0.05858   0.00000  Uiso   1.00
C292   C     0.32103   0.36403   0.05243   0.00000  Uiso   1.00
C293   C     0.35083   0.41685   0.00194   0.00000  Uiso   1.00
C294   C     0.31143   0.16631   0.07943   0.00000  Uiso   1.00
C295   C     0.24566   0.13579   0.09083   0.00000  Uiso   1.00
C296   C     0.24099   0.08423   0.05791   0.00000  Uiso   1.00
C297   C     0.39597   0.18869   0.13874   0.00000  Uiso   1.00
C298   C     0.40126   0.17696   0.20001   0.00000  Uiso   1.00
C299   C     0.46776   0.14421   0.21703   0.00000  Uiso   1.00
H300   H     0.48306   0.17055   0.99820   0.00000  Uiso   1.00
H301   H     0.48693   0.30706   0.93222   0.00000  Uiso   1.00
H302   H     0.41158   0.07885   0.97062   0.00000  Uiso   1.00
H303   H     0.56716   0.12002   0.07978   0.00000  Uiso   1.00
H304   H     0.46518   0.46734   0.87792   0.00000  Uiso   1.00
H305   H     0.30630   0.98614   0.95891   0.00000  Uiso   1.00
H306   H     0.63437   0.07293   0.18910   0.00000  Uiso   1.00
H307   H     0.28248   0.23939   0.14354   0.00000  Uiso   1.00
H308   H     0.27535   0.37969   0.08554   0.00000  Uiso   1.00
H309   H     0.20000   0.15148   0.12394   0.00000  Uiso   1.00
H310   H     0.35557   0.19264   0.23310   0.00000  Uiso   1.00
H311   H     0.29344   0.52629   0.00236   0.00000  Uiso   1.00
H312   H     0.13457   0.04508   0.08335   0.00000  Uiso   1.00
H313   H     0.46264   0.13188   0.31354   0.00000  Uiso   1.00
O314   O     0.37822   0.58786   0.89936   0.00000  Uiso   1.00
O315   O     0.16979   0.95652   0.00561   0.00000  Uiso   1.00
O316   O     0.60021   0.07041   0.30761   0.00000  Uiso   1.00
N317   N     0.42575   0.46197   0.91518   0.00000  Uiso   1.00
N318   N     0.27721   0.01207   0.99089   0.00000  Uiso   1.00
N319   N     0.58392   0.09320   0.20610   0.00000  Uiso   1.00
N320   N     0.33334   0.49368   0.98214   0.00000  Uiso   1.00
N321   N     0.18480   0.04379   0.05785   0.00000  Uiso   1.00
N322   N     0.49151   0.12492   0.27306   0.00000  Uiso   1.00
C323   C     0.08255   0.51590   0.75839   0.00000  Uiso   1.00
C324   C     0.02203   0.50352   0.81424   0.00000  Uiso   1.00
C325   C     0.94813   0.52527   0.81397   0.00000  Uiso   1.00
C326   C     0.90150   0.50881   0.86984   0.00000  Uiso   1.00
C327   C     0.80351   0.49517   0.94832   0.00000  Uiso   1.00
C328   C     0.12245   0.43848   0.75599   0.00000  Uiso   1.00
C329   C     0.13298   0.40555   0.70674   0.00000  Uiso   1.00
C330   C     0.17088   0.33434   0.71357   0.00000  Uiso   1.00
C331   C     0.22883   0.21975   0.70160   0.00000  Uiso   1.00
C332   C     0.13648   0.55916   0.77326   0.00000  Uiso   1.00
C333   C     0.15883   0.62768   0.73853   0.00000  Uiso   1.00
C334   C     0.20856   0.65806   0.75990   0.00000  Uiso   1.00
C335   C     0.28829   0.73084   0.77475   0.00000  Uiso   1.00
C336   C     0.13115   0.44801   0.85809   0.00000  Uiso   1.00
C337   C     0.04843   0.46665   0.86839   0.00000  Uiso   1.00
C338   C     0.00190   0.45016   0.92428   0.00000  Uiso   1.00
C339   C     0.92794   0.47187   0.92409   0.00000  Uiso   1.00
C340   C     0.14884   0.40161   0.81014   0.00000  Uiso   1.00
C341   C     0.18674   0.33044   0.81705   0.00000  Uiso   1.00
C342   C     0.19732   0.29740   0.76782   0.00000  Uiso   1.00
C343   C     0.16287   0.52229   0.82742   0.00000  Uiso   1.00
C344   C     0.21259   0.55257   0.84884   0.00000  Uiso   1.00
C345   C     0.23500   0.62112   0.81415   0.00000  Uiso   1.00
H346   H     0.06200   0.54460   0.71623   0.00000  Uiso   1.00
H347   H     0.92772   0.55379   0.77205   0.00000  Uiso   1.00
H348   H     0.11255   0.43410   0.66484   0.00000  Uiso   1.00
H349   H     0.13839   0.65619   0.69663   0.00000  Uiso   1.00
H350   H     0.79049   0.54770   0.85782   0.00000  Uiso   1.00
H351   H     0.18022   0.29533   0.63175   0.00000  Uiso   1.00
H352   H     0.23471   0.76366   0.69878   0.00000  Uiso   1.00
H353   H     0.15170   0.41930   0.90025   0.00000  Uiso   1.00
H354   H     0.02234   0.42162   0.96618   0.00000  Uiso   1.00
H355   H     0.20716   0.30192   0.85896   0.00000  Uiso   1.00
H356   H     0.23300   0.52402   0.89075   0.00000  Uiso   1.00
H357   H     0.86728   0.44042   0.01538   0.00000  Uiso   1.00
H358   H     0.25702   0.18805   0.78930   0.00000  Uiso   1.00
H359   H     0.31150   0.65638   0.85633   0.00000  Uiso   1.00
O360   O     0.74217   0.49783   0.97664   0.00000  Uiso   1.00
O361   O     0.25349   0.16673   0.68003   0.00000  Uiso   1.00
O362   O     0.32497   0.78117   0.76798   0.00000  Uiso   1.00
N363   N     0.82632   0.52215   0.88586   0.00000  Uiso   1.00
N364   N     0.19068   0.28619   0.67449   0.00000  Uiso   1.00
N365   N     0.24164   0.72403   0.73715   0.00000  Uiso   1.00
N366   N     0.86764   0.46442   0.97064   0.00000  Uiso   1.00
N367   N     0.23200   0.22846   0.75927   0.00000  Uiso   1.00
N368   N     0.28296   0.66630   0.82193   0.00000  Uiso   1.00
C369   C     0.00326   0.15334   0.28527   0.00000  Uiso   1.00
C370   C     0.07357   0.10474   0.29950   0.00000  Uiso   1.00
C371   C     0.07912   0.02916   0.32918   0.00000  Uiso   1.00
C372   C     0.14836   0.99475   0.33783   0.00000  Uiso   1.00
C373   C     0.24820   0.91323   0.36300   0.00000  Uiso   1.00
C374   C     0.01602   0.18612   0.21621   0.00000  Uiso   1.00
C375   C     0.97318   0.17898   0.17587   0.00000  Uiso   1.00
C376   C     0.99397   0.21309   0.11441   0.00000  Uiso   1.00
C377   C     0.00443   0.25797   0.01028   0.00000  Uiso   1.00
C378   C     0.99769   0.21937   0.31444   0.00000  Uiso   1.00
C379   C     0.93942   0.24020   0.35668   0.00000  Uiso   1.00
C380   C     0.94477   0.30231   0.37792   0.00000  Uiso   1.00
C381   C     0.92676   0.39880   0.42630   0.00000  Uiso   1.00
C382   C     0.11636   0.22663   0.24787   0.00000  Uiso   1.00
C383   C     0.13500   0.14455   0.27919   0.00000  Uiso   1.00
C384   C     0.20425   0.11025   0.28780   0.00000  Uiso   1.00
C385   C     0.20990   0.03463   0.31749   0.00000  Uiso   1.00
C386   C     0.07745   0.22593   0.19590   0.00000  Uiso   1.00
C387   C     0.09831   0.26007   0.13449   0.00000  Uiso   1.00
C388   C     0.05551   0.25297   0.09406   0.00000  Uiso   1.00
C389   C     0.05912   0.25918   0.29413   0.00000  Uiso   1.00
C390   C     0.06456   0.32128   0.31530   0.00000  Uiso   1.00
C391   C     0.00631   0.34219   0.35756   0.00000  Uiso   1.00
H392   H     0.95543   0.12235   0.30108   0.00000  Uiso   1.00
H393   H     0.03157   0.99837   0.34489   0.00000  Uiso   1.00
H394   H     0.92564   0.14818   0.19160   0.00000  Uiso   1.00
H395   H     0.89189   0.20938   0.37239   0.00000  Uiso   1.00
H396   H     0.14307   0.87847   0.38448   0.00000  Uiso   1.00
H397   H     0.91970   0.19437   0.06127   0.00000  Uiso   1.00
H398   H     0.84853   0.32342   0.44249   0.00000  Uiso   1.00
H399   H     0.16419   0.25762   0.23205   0.00000  Uiso   1.00
H400   H     0.25178   0.14107   0.27208   0.00000  Uiso   1.00
H401   H     0.14585   0.29087   0.11879   0.00000  Uiso   1.00
H402   H     0.11210   0.35207   0.29957   0.00000  Uiso   1.00
H403   H     0.32181   0.99429   0.32538   0.00000  Uiso   1.00
H404   H     0.09843   0.31018   0.00217   0.00000  Uiso   1.00
H405   H     0.02727   0.43923   0.38340   0.00000  Uiso   1.00
O406   O     0.28630   0.85726   0.38249   0.00000  Uiso   1.00
O407   O     0.99323   0.27171   0.95846   0.00000  Uiso   1.00
O408   O     0.89986   0.44102   0.45861   0.00000  Uiso   1.00
N409   N     0.17311   0.92173   0.36509   0.00000  Uiso   1.00
N410   N     0.96428   0.21706   0.06291   0.00000  Uiso   1.00
N411   N     0.89773   0.33772   0.41931   0.00000  Uiso   1.00
N412   N     0.26929   0.98405   0.33329   0.00000  Uiso   1.00
N413   N     0.06046   0.27938   0.03111   0.00000  Uiso   1.00
N414   N     0.99391   0.40004   0.38751   0.00000  Uiso   1.00
C415   C     0.98614   0.75027   0.25143   0.00000  Uiso   1.00
C416   C     0.97858   0.72770   0.32105   0.00000  Uiso   1.00
C417   C     0.96870   0.65632   0.35774   0.00000  Uiso   1.00
C418   C     0.96298   0.64714   0.42045   0.00000  Uiso   1.00
C419   C     0.95059   0.60296   0.52474   0.00000  Uiso   1.00
C420   C     0.92653   0.81458   0.23699   0.00000  Uiso   1.00
C421   C     0.87290   0.81625   0.20299   0.00000  Uiso   1.00
C422   C     0.82337   0.88022   0.19494   0.00000  Uiso   1.00
C423   C     0.73020   0.97094   0.16869   0.00000  Uiso   1.00
C424   C     0.05838   0.78435   0.22786   0.00000  Uiso   1.00
C425   C     0.11561   0.76062   0.18617   0.00000  Uiso   1.00
C426   C     0.17709   0.79915   0.17042   0.00000  Uiso   1.00
C427   C     0.28865   0.84294   0.13000   0.00000  Uiso   1.00
C428   C     0.99355   0.86090   0.29756   0.00000  Uiso   1.00
C429   C     0.98260   0.78779   0.34611   0.00000  Uiso   1.00
C430   C     0.97690   0.77872   0.40878   0.00000  Uiso   1.00
C431   C     0.96702   0.70734   0.44555   0.00000  Uiso   1.00
C432   C     0.93055   0.87466   0.26205   0.00000  Uiso   1.00
C433   C     0.88110   0.93864   0.25404   0.00000  Uiso   1.00
C434   C     0.82740   0.94041   0.22004   0.00000  Uiso   1.00
C435   C     0.06241   0.84444   0.25292   0.00000  Uiso   1.00
C436   C     0.12381   0.88301   0.23722   0.00000  Uiso   1.00
C437   C     0.18112   0.85934   0.19552   0.00000  Uiso   1.00
H438   H     0.98300   0.70349   0.23192   0.00000  Uiso   1.00
H439   H     0.96558   0.60984   0.33833   0.00000  Uiso   1.00
H440   H     0.86980   0.76975   0.18360   0.00000  Uiso   1.00
H441   H     0.11247   0.71412   0.16679   0.00000  Uiso   1.00
H442   H     0.94801   0.53251   0.46735   0.00000  Uiso   1.00
H443   H     0.74607   0.86969   0.14109   0.00000  Uiso   1.00
H444   H     0.25780   0.75240   0.10564   0.00000  Uiso   1.00
H445   H     0.99669   0.90768   0.31707   0.00000  Uiso   1.00
H446   H     0.98002   0.82523   0.42816   0.00000  Uiso   1.00
H447   H     0.88423   0.98513   0.27343   0.00000  Uiso   1.00
H448   H     0.12691   0.92951   0.25662   0.00000  Uiso   1.00
H449   H     0.95973   0.70732   0.54026   0.00000  Uiso   1.00
H450   H     0.75778   0.04451   0.21400   0.00000  Uiso   1.00
H451   H     0.26951   0.92722   0.17855   0.00000  Uiso   1.00
O452   O     0.94263   0.56200   0.57535   0.00000  Uiso   1.00
O453   O     0.67770   0.00438   0.14730   0.00000  Uiso   1.00
O454   O     0.34907   0.85048   0.10078   0.00000  Uiso   1.00
N455   N     0.95307   0.58496   0.46927   0.00000  Uiso   1.00
N456   N     0.76426   0.90021   0.16424   0.00000  Uiso   1.00
N457   N     0.24267   0.79056   0.13108   0.00000  Uiso   1.00
N458   N     0.95938   0.67903   0.50850   0.00000  Uiso   1.00
N459   N     0.77056   0.99427   0.20347   0.00000  Uiso   1.00
N460   N     0.24898   0.88462   0.17031   0.00000  Uiso   1.00
C461   C     0.65623   0.41610   0.78615   0.00000  Uiso   1.00
C462   C     0.65541   0.49778   0.78791   0.00000  Uiso   1.00
C463   C     0.59455   0.54386   0.80695   0.00000  Uiso   1.00
C464   C     0.60515   0.61686   0.80512   0.00000  Uiso   1.00
C465   C     0.59338   0.73976   0.81088   0.00000  Uiso   1.00
C466   C     0.68778   0.41191   0.72033   0.00000  Uiso   1.00
C467   C     0.65414   0.38577   0.68255   0.00000  Uiso   1.00
C468   C     0.69199   0.38647   0.62384   0.00000  Uiso   1.00
C469   C     0.73051   0.37599   0.52470   0.00000  Uiso   1.00
C470   C     0.71254   0.37132   0.82479   0.00000  Uiso   1.00
C471   C     0.69972   0.31105   0.87484   0.00000  Uiso   1.00
C472   C     0.75842   0.27758   0.90406   0.00000  Uiso   1.00
C473   C     0.83537   0.20408   0.96711   0.00000  Uiso   1.00
C474   C     0.78327   0.46382   0.74905   0.00000  Uiso   1.00
C475   C     0.72442   0.52370   0.76775   0.00000  Uiso   1.00
C476   C     0.73511   0.59665   0.76590   0.00000  Uiso   1.00
C477   C     0.67427   0.64283   0.78494   0.00000  Uiso   1.00
C478   C     0.75678   0.43782   0.70017   0.00000  Uiso   1.00
C479   C     0.79470   0.43856   0.64151   0.00000  Uiso   1.00
C480   C     0.76112   0.41244   0.60365   0.00000  Uiso   1.00
C481   C     0.78154   0.39724   0.80464   0.00000  Uiso   1.00
C482   C     0.84027   0.36385   0.83379   0.00000  Uiso   1.00
C483   C     0.82755   0.30354   0.88387   0.00000  Uiso   1.00
H484   H     0.60251   0.39592   0.80184   0.00000  Uiso   1.00
H485   H     0.54116   0.52378   0.82253   0.00000  Uiso   1.00
H486   H     0.60075   0.36571   0.69816   0.00000  Uiso   1.00
H487   H     0.64632   0.29101   0.89042   0.00000  Uiso   1.00
H488   H     0.50357   0.67697   0.83657   0.00000  Uiso   1.00
H489   H     0.62923   0.34365   0.57434   0.00000  Uiso   1.00
H490   H     0.72532   0.18612   0.97974   0.00000  Uiso   1.00
H491   H     0.83699   0.48400   0.73336   0.00000  Uiso   1.00
H492   H     0.78851   0.61669   0.75030   0.00000  Uiso   1.00
H493   H     0.84809   0.45862   0.62593   0.00000  Uiso   1.00
H494   H     0.89366   0.38392   0.81818   0.00000  Uiso   1.00
H495   H     0.70433   0.75238   0.77794   0.00000  Uiso   1.00
H496   H     0.82998   0.41905   0.51571   0.00000  Uiso   1.00
H497   H     0.92608   0.26153   0.92111   0.00000  Uiso   1.00
O498   O     0.56783   0.80038   0.81962   0.00000  Uiso   1.00
O499   O     0.73268   0.36306   0.47558   0.00000  Uiso   1.00
O500   O     0.85875   0.15640   0.00746   0.00000  Uiso   1.00
N501   N     0.55748   0.67650   0.82046   0.00000  Uiso   1.00
N502   N     0.67495   0.36487   0.57528   0.00000  Uiso   1.00
N503   N     0.76479   0.21759   0.95429   0.00000  Uiso   1.00
N504   N     0.66550   0.71708   0.78892   0.00000  Uiso   1.00
N505   N     0.78297   0.40545   0.54374   0.00000  Uiso   1.00
N506   N     0.87282   0.25817   0.92274   0.00000  Uiso   1.00
C507   C     0.47964   0.92695   0.56445   0.00000  Uiso   1.00
C508   C     0.55678   0.94214   0.53147   0.00000  Uiso   1.00
C509   C     0.57553   0.98226   0.47139   0.00000  Uiso   1.00
C510   C     0.64911   0.98990   0.44969   0.00000  Uiso   1.00
C511   C     0.76085   0.01821   0.39283   0.00000  Uiso   1.00
C512   C     0.48127   0.84188   0.58694   0.00000  Uiso   1.00
C513   C     0.43652   0.79772   0.57351   0.00000  Uiso   1.00
C514   C     0.44654   0.72096   0.59851   0.00000  Uiso   1.00
C515   C     0.44101   0.59363   0.62782   0.00000  Uiso   1.00
C516   C     0.46760   0.95724   0.62173   0.00000  Uiso   1.00
C517   C     0.41133   0.01006   0.63756   0.00000  Uiso   1.00
C518   C     0.40983   0.03042   0.69187   0.00000  Uiso   1.00
C519   C     0.38306   0.08221   0.77519   0.00000  Uiso   1.00
C520   C     0.57700   0.86917   0.63276   0.00000  Uiso   1.00
C521   C     0.60966   0.91074   0.56858   0.00000  Uiso   1.00
C522   C     0.68324   0.91833   0.54696   0.00000  Uiso   1.00
C523   C     0.70209   0.95846   0.48686   0.00000  Uiso   1.00
C524   C     0.53415   0.81049   0.62405   0.00000  Uiso   1.00
C525   C     0.54424   0.73378   0.64908   0.00000  Uiso   1.00
C526   C     0.49951   0.68951   0.63568   0.00000  Uiso   1.00
C527   C     0.52048   0.92586   0.65884   0.00000  Uiso   1.00
C528   C     0.51906   0.94613   0.71313   0.00000  Uiso   1.00
C529   C     0.46280   0.99897   0.72904   0.00000  Uiso   1.00
H530   H     0.43847   0.95139   0.53556   0.00000  Uiso   1.00
H531   H     0.53458   0.00654   0.44269   0.00000  Uiso   1.00
H532   H     0.39560   0.82202   0.54480   0.00000  Uiso   1.00
H533   H     0.37042   0.03434   0.60884   0.00000  Uiso   1.00
H534   H     0.66447   0.05382   0.35607   0.00000  Uiso   1.00
H535   H     0.37138   0.66476   0.57139   0.00000  Uiso   1.00
H536   H     0.31829   0.11247   0.70644   0.00000  Uiso   1.00
H537   H     0.61818   0.84473   0.66164   0.00000  Uiso   1.00
H538   H     0.72416   0.89403   0.57569   0.00000  Uiso   1.00
H539   H     0.58516   0.70951   0.67779   0.00000  Uiso   1.00
H540   H     0.55999   0.92183   0.74184   0.00000  Uiso   1.00
H541   H     0.81833   0.96250   0.46402   0.00000  Uiso   1.00
H542   H     0.52524   0.57344   0.67934   0.00000  Uiso   1.00
H543   H     0.47215   0.02115   0.81438   0.00000  Uiso   1.00
O544   O     0.80788   0.04249   0.35122   0.00000  Uiso   1.00
O545   O     0.42335   0.53207   0.63372   0.00000  Uiso   1.00
O546   O     0.35370   0.11945   0.81089   0.00000  Uiso   1.00
N547   N     0.68613   0.02557   0.39328   0.00000  Uiso   1.00
N548   N     0.41213   0.66183   0.59458   0.00000  Uiso   1.00
N549   N     0.36248   0.08038   0.72085   0.00000  Uiso   1.00
N550   N     0.76893   0.97644   0.45137   0.00000  Uiso   1.00
N551   N     0.49492   0.61269   0.65267   0.00000  Uiso   1.00
N552   N     0.44527   0.03124   0.77893   0.00000  Uiso   1.00
