data_job_05534
_audit_creation_date              2018-12-19
_audit_creation_method            'Materials Studio'
_symmetry_space_group_name_H-M    'P1'
_symmetry_Int_Tables_number       1
_symmetry_cell_setting            triclinic
loop_
_symmetry_equiv_pos_as_xyz
  x,y,z
_cell_length_a                    17.6003
_cell_length_b                    17.6003
_cell_length_c                    16.2060
_cell_angle_alpha                 90.0000
_cell_angle_beta                  90.0000
_cell_angle_gamma                 90.0000
loop_
_atom_site_label
_atom_site_type_symbol
_atom_site_fract_x
_atom_site_fract_y
_atom_site_fract_z
_atom_site_U_iso_or_equiv
_atom_site_adp_type
_atom_site_occupancy
C1     C     0.75527   0.79244   0.89496   0.00000  Uiso   1.00
C2     C     0.84004   0.78825   0.87603   0.00000  Uiso   1.00
C3     C     0.89828   0.80604   0.93042   0.00000  Uiso   1.00
C4     C     0.97209   0.79853   0.90129   0.00000  Uiso   1.00
C5     C     0.10144   0.79578   0.88414   0.00000  Uiso   1.00
C6     C     0.72106   0.84479   0.82984   0.00000  Uiso   1.00
C7     C     0.67927   0.91011   0.84540   0.00000  Uiso   1.00
C8     C     0.65291   0.95019   0.77738   0.00000  Uiso   1.00
C9     C     0.59750   0.03519   0.68852   0.00000  Uiso   1.00
C10    C     0.72355   0.71348   0.87730   0.00000  Uiso   1.00
C11    C     0.68383   0.66838   0.93275   0.00000  Uiso   1.00
C12    C     0.65955   0.59791   0.90468   0.00000  Uiso   1.00
C13    C     0.60801   0.47902   0.88950   0.00000  Uiso   1.00
C14    C     0.78276   0.74748   0.74652   0.00000  Uiso   1.00
C15    C     0.85496   0.76383   0.79540   0.00000  Uiso   1.00
C16    C     0.92870   0.75630   0.76618   0.00000  Uiso   1.00
C17    C     0.98705   0.77406   0.82052   0.00000  Uiso   1.00
C18    C     0.73599   0.82038   0.74921   0.00000  Uiso   1.00
C19    C     0.70968   0.86037   0.68116   0.00000  Uiso   1.00
C20    C     0.66787   0.92573   0.69661   0.00000  Uiso   1.00
C21    C     0.73848   0.68905   0.79667   0.00000  Uiso   1.00
C22    C     0.71425   0.61864   0.76851   0.00000  Uiso   1.00
C23    C     0.67451   0.57345   0.82390   0.00000  Uiso   1.00
H24    H     0.74364   0.81146   0.95774   0.00000  Uiso   1.00
H25    H     0.88670   0.82494   0.99281   0.00000  Uiso   1.00
H26    H     0.66772   0.92899   0.90780   0.00000  Uiso   1.00
H27    H     0.67229   0.68730   0.99513   0.00000  Uiso   1.00
H28    H     0.05190   0.82915   0.99613   0.00000  Uiso   1.00
H29    H     0.59013   0.04852   0.81688   0.00000  Uiso   1.00
H30    H     0.59976   0.53888   0.00104   0.00000  Uiso   1.00
H31    H     0.79438   0.72847   0.68374   0.00000  Uiso   1.00
H32    H     0.94024   0.73740   0.70378   0.00000  Uiso   1.00
H33    H     0.72125   0.84145   0.61877   0.00000  Uiso   1.00
H34    H     0.72582   0.59976   0.70611   0.00000  Uiso   1.00
H35    H     0.09535   0.75810   0.76154   0.00000  Uiso   1.00
H36    H     0.63357   0.97748   0.58229   0.00000  Uiso   1.00
H37    H     0.64321   0.46783   0.76646   0.00000  Uiso   1.00
O38    O     0.16866   0.80102   0.89695   0.00000  Uiso   1.00
O39    O     0.56282   0.08882   0.66179   0.00000  Uiso   1.00
O40    O     0.57546   0.42018   0.90341   0.00000  Uiso   1.00
N41    N     0.04211   0.81119   0.93817   0.00000  Uiso   1.00
N42    N     0.61039   0.01630   0.77059   0.00000  Uiso   1.00
N43    N     0.61938   0.53983   0.94276   0.00000  Uiso   1.00
N44    N     0.06549   0.77295   0.81194   0.00000  Uiso   1.00
N45    N     0.63377   0.97807   0.64436   0.00000  Uiso   1.00
N46    N     0.64276   0.50160   0.81653   0.00000  Uiso   1.00
C47    C     0.24473   0.20756   0.89496   0.00000  Uiso   1.00
C48    C     0.15996   0.21175   0.87603   0.00000  Uiso   1.00
C49    C     0.10172   0.19396   0.93042   0.00000  Uiso   1.00
C50    C     0.02791   0.20147   0.90129   0.00000  Uiso   1.00
C51    C     0.89856   0.20422   0.88414   0.00000  Uiso   1.00
C52    C     0.27894   0.15521   0.82984   0.00000  Uiso   1.00
C53    C     0.32073   0.08989   0.84540   0.00000  Uiso   1.00
C54    C     0.34709   0.04981   0.77738   0.00000  Uiso   1.00
C55    C     0.40250   0.96481   0.68852   0.00000  Uiso   1.00
C56    C     0.27645   0.28652   0.87730   0.00000  Uiso   1.00
C57    C     0.31617   0.33162   0.93275   0.00000  Uiso   1.00
C58    C     0.34045   0.40209   0.90468   0.00000  Uiso   1.00
C59    C     0.39199   0.52098   0.88950   0.00000  Uiso   1.00
C60    C     0.21724   0.25252   0.74652   0.00000  Uiso   1.00
C61    C     0.14504   0.23617   0.79540   0.00000  Uiso   1.00
C62    C     0.07130   0.24370   0.76618   0.00000  Uiso   1.00
C63    C     0.01295   0.22594   0.82052   0.00000  Uiso   1.00
C64    C     0.26401   0.17962   0.74921   0.00000  Uiso   1.00
C65    C     0.29032   0.13963   0.68116   0.00000  Uiso   1.00
C66    C     0.33213   0.07427   0.69661   0.00000  Uiso   1.00
C67    C     0.26152   0.31095   0.79667   0.00000  Uiso   1.00
C68    C     0.28575   0.38136   0.76851   0.00000  Uiso   1.00
C69    C     0.32549   0.42655   0.82390   0.00000  Uiso   1.00
H70    H     0.25636   0.18854   0.95774   0.00000  Uiso   1.00
H71    H     0.11330   0.17506   0.99281   0.00000  Uiso   1.00
H72    H     0.33228   0.07101   0.90780   0.00000  Uiso   1.00
H73    H     0.32771   0.31270   0.99513   0.00000  Uiso   1.00
H74    H     0.94810   0.17085   0.99613   0.00000  Uiso   1.00
H75    H     0.40987   0.95148   0.81688   0.00000  Uiso   1.00
H76    H     0.40024   0.46112   0.00104   0.00000  Uiso   1.00
H77    H     0.20562   0.27153   0.68374   0.00000  Uiso   1.00
H78    H     0.05976   0.26260   0.70378   0.00000  Uiso   1.00
H79    H     0.27875   0.15855   0.61877   0.00000  Uiso   1.00
H80    H     0.27418   0.40024   0.70611   0.00000  Uiso   1.00
H81    H     0.90465   0.24190   0.76154   0.00000  Uiso   1.00
H82    H     0.36643   0.02252   0.58229   0.00000  Uiso   1.00
H83    H     0.35679   0.53217   0.76646   0.00000  Uiso   1.00
O84    O     0.83134   0.19898   0.89695   0.00000  Uiso   1.00
O85    O     0.43718   0.91118   0.66179   0.00000  Uiso   1.00
O86    O     0.42454   0.57982   0.90341   0.00000  Uiso   1.00
N87    N     0.95789   0.18881   0.93817   0.00000  Uiso   1.00
N88    N     0.38961   0.98370   0.77059   0.00000  Uiso   1.00
N89    N     0.38062   0.46017   0.94276   0.00000  Uiso   1.00
N90    N     0.93451   0.22705   0.81194   0.00000  Uiso   1.00
N91    N     0.36623   0.02193   0.64436   0.00000  Uiso   1.00
N92    N     0.35724   0.49840   0.81653   0.00000  Uiso   1.00
C93    C     0.79244   0.24473   0.10504   0.00000  Uiso   1.00
C94    C     0.78825   0.15996   0.12397   0.00000  Uiso   1.00
C95    C     0.80604   0.10172   0.06958   0.00000  Uiso   1.00
C96    C     0.79853   0.02791   0.09871   0.00000  Uiso   1.00
C97    C     0.79578   0.89856   0.11586   0.00000  Uiso   1.00
C98    C     0.84479   0.27894   0.17016   0.00000  Uiso   1.00
C99    C     0.91011   0.32073   0.15460   0.00000  Uiso   1.00
C100   C     0.95019   0.34709   0.22262   0.00000  Uiso   1.00
C101   C     0.03519   0.40250   0.31148   0.00000  Uiso   1.00
C102   C     0.71348   0.27645   0.12270   0.00000  Uiso   1.00
C103   C     0.66838   0.31617   0.06725   0.00000  Uiso   1.00
C104   C     0.59791   0.34045   0.09532   0.00000  Uiso   1.00
C105   C     0.47902   0.39199   0.11050   0.00000  Uiso   1.00
C106   C     0.74748   0.21724   0.25348   0.00000  Uiso   1.00
C107   C     0.76383   0.14504   0.20460   0.00000  Uiso   1.00
C108   C     0.75630   0.07130   0.23382   0.00000  Uiso   1.00
C109   C     0.77406   0.01295   0.17948   0.00000  Uiso   1.00
C110   C     0.82038   0.26401   0.25079   0.00000  Uiso   1.00
C111   C     0.86037   0.29032   0.31884   0.00000  Uiso   1.00
C112   C     0.92573   0.33213   0.30339   0.00000  Uiso   1.00
C113   C     0.68905   0.26152   0.20333   0.00000  Uiso   1.00
C114   C     0.61864   0.28575   0.23149   0.00000  Uiso   1.00
C115   C     0.57345   0.32549   0.17610   0.00000  Uiso   1.00
H116   H     0.81146   0.25636   0.04226   0.00000  Uiso   1.00
H117   H     0.82494   0.11330   0.00719   0.00000  Uiso   1.00
H118   H     0.92899   0.33228   0.09220   0.00000  Uiso   1.00
H119   H     0.68730   0.32771   0.00487   0.00000  Uiso   1.00
H120   H     0.82915   0.94810   0.00387   0.00000  Uiso   1.00
H121   H     0.04852   0.40987   0.18312   0.00000  Uiso   1.00
H122   H     0.53888   0.40024   0.99896   0.00000  Uiso   1.00
H123   H     0.72847   0.20562   0.31626   0.00000  Uiso   1.00
H124   H     0.73740   0.05976   0.29622   0.00000  Uiso   1.00
H125   H     0.84145   0.27875   0.38123   0.00000  Uiso   1.00
H126   H     0.59976   0.27418   0.29389   0.00000  Uiso   1.00
H127   H     0.75810   0.90465   0.23846   0.00000  Uiso   1.00
H128   H     0.97748   0.36643   0.41771   0.00000  Uiso   1.00
H129   H     0.46783   0.35679   0.23354   0.00000  Uiso   1.00
O130   O     0.80102   0.83134   0.10305   0.00000  Uiso   1.00
O131   O     0.08882   0.43718   0.33821   0.00000  Uiso   1.00
O132   O     0.42018   0.42454   0.09659   0.00000  Uiso   1.00
N133   N     0.81119   0.95789   0.06183   0.00000  Uiso   1.00
N134   N     0.01630   0.38961   0.22941   0.00000  Uiso   1.00
N135   N     0.53983   0.38062   0.05724   0.00000  Uiso   1.00
N136   N     0.77295   0.93451   0.18806   0.00000  Uiso   1.00
N137   N     0.97807   0.36623   0.35564   0.00000  Uiso   1.00
N138   N     0.50160   0.35724   0.18347   0.00000  Uiso   1.00
C139   C     0.20756   0.75527   0.10504   0.00000  Uiso   1.00
C140   C     0.21175   0.84004   0.12397   0.00000  Uiso   1.00
C141   C     0.19396   0.89828   0.06958   0.00000  Uiso   1.00
C142   C     0.20147   0.97209   0.09871   0.00000  Uiso   1.00
C143   C     0.20422   0.10144   0.11586   0.00000  Uiso   1.00
C144   C     0.15521   0.72106   0.17016   0.00000  Uiso   1.00
C145   C     0.08989   0.67927   0.15460   0.00000  Uiso   1.00
C146   C     0.04981   0.65291   0.22262   0.00000  Uiso   1.00
C147   C     0.96481   0.59750   0.31148   0.00000  Uiso   1.00
C148   C     0.28652   0.72355   0.12270   0.00000  Uiso   1.00
C149   C     0.33162   0.68383   0.06725   0.00000  Uiso   1.00
C150   C     0.40209   0.65955   0.09532   0.00000  Uiso   1.00
C151   C     0.52098   0.60801   0.11050   0.00000  Uiso   1.00
C152   C     0.25252   0.78276   0.25348   0.00000  Uiso   1.00
C153   C     0.23617   0.85496   0.20460   0.00000  Uiso   1.00
C154   C     0.24370   0.92870   0.23382   0.00000  Uiso   1.00
C155   C     0.22594   0.98705   0.17948   0.00000  Uiso   1.00
C156   C     0.17962   0.73599   0.25079   0.00000  Uiso   1.00
C157   C     0.13963   0.70968   0.31884   0.00000  Uiso   1.00
C158   C     0.07427   0.66787   0.30339   0.00000  Uiso   1.00
C159   C     0.31095   0.73848   0.20333   0.00000  Uiso   1.00
C160   C     0.38136   0.71425   0.23149   0.00000  Uiso   1.00
C161   C     0.42655   0.67451   0.17610   0.00000  Uiso   1.00
H162   H     0.18854   0.74364   0.04226   0.00000  Uiso   1.00
H163   H     0.17506   0.88670   0.00719   0.00000  Uiso   1.00
H164   H     0.07101   0.66772   0.09220   0.00000  Uiso   1.00
H165   H     0.31270   0.67229   0.00487   0.00000  Uiso   1.00
H166   H     0.17085   0.05190   0.00387   0.00000  Uiso   1.00
H167   H     0.95148   0.59013   0.18312   0.00000  Uiso   1.00
H168   H     0.46112   0.59976   0.99896   0.00000  Uiso   1.00
H169   H     0.27153   0.79438   0.31626   0.00000  Uiso   1.00
H170   H     0.26260   0.94024   0.29622   0.00000  Uiso   1.00
H171   H     0.15855   0.72125   0.38123   0.00000  Uiso   1.00
H172   H     0.40024   0.72582   0.29389   0.00000  Uiso   1.00
H173   H     0.24190   0.09535   0.23846   0.00000  Uiso   1.00
H174   H     0.02252   0.63357   0.41771   0.00000  Uiso   1.00
H175   H     0.53217   0.64321   0.23354   0.00000  Uiso   1.00
O176   O     0.19898   0.16866   0.10305   0.00000  Uiso   1.00
O177   O     0.91118   0.56282   0.33821   0.00000  Uiso   1.00
O178   O     0.57982   0.57546   0.09659   0.00000  Uiso   1.00
N179   N     0.18881   0.04211   0.06183   0.00000  Uiso   1.00
N180   N     0.98370   0.61039   0.22941   0.00000  Uiso   1.00
N181   N     0.46017   0.61938   0.05724   0.00000  Uiso   1.00
N182   N     0.22705   0.06549   0.18806   0.00000  Uiso   1.00
N183   N     0.02193   0.63377   0.35564   0.00000  Uiso   1.00
N184   N     0.49840   0.64276   0.18347   0.00000  Uiso   1.00
C185   C     0.74473   0.29244   0.60504   0.00000  Uiso   1.00
C186   C     0.65996   0.28825   0.62397   0.00000  Uiso   1.00
C187   C     0.60172   0.30604   0.56958   0.00000  Uiso   1.00
C188   C     0.52791   0.29853   0.59871   0.00000  Uiso   1.00
C189   C     0.39856   0.29578   0.61586   0.00000  Uiso   1.00
C190   C     0.77894   0.34479   0.67016   0.00000  Uiso   1.00
C191   C     0.82073   0.41011   0.65460   0.00000  Uiso   1.00
C192   C     0.84709   0.45019   0.72262   0.00000  Uiso   1.00
C193   C     0.90250   0.53519   0.81148   0.00000  Uiso   1.00
C194   C     0.77645   0.21348   0.62270   0.00000  Uiso   1.00
C195   C     0.81617   0.16838   0.56725   0.00000  Uiso   1.00
C196   C     0.84045   0.09791   0.59532   0.00000  Uiso   1.00
C197   C     0.89199   0.97902   0.61050   0.00000  Uiso   1.00
C198   C     0.71724   0.24748   0.75348   0.00000  Uiso   1.00
C199   C     0.64504   0.26383   0.70460   0.00000  Uiso   1.00
C200   C     0.57130   0.25630   0.73382   0.00000  Uiso   1.00
C201   C     0.51295   0.27406   0.67948   0.00000  Uiso   1.00
C202   C     0.76401   0.32038   0.75079   0.00000  Uiso   1.00
C203   C     0.79032   0.36037   0.81884   0.00000  Uiso   1.00
C204   C     0.83213   0.42573   0.80339   0.00000  Uiso   1.00
C205   C     0.76152   0.18905   0.70333   0.00000  Uiso   1.00
C206   C     0.78575   0.11864   0.73149   0.00000  Uiso   1.00
C207   C     0.82549   0.07345   0.67610   0.00000  Uiso   1.00
H208   H     0.75636   0.31146   0.54226   0.00000  Uiso   1.00
H209   H     0.61330   0.32494   0.50719   0.00000  Uiso   1.00
H210   H     0.83228   0.42899   0.59220   0.00000  Uiso   1.00
H211   H     0.82771   0.18730   0.50487   0.00000  Uiso   1.00
H212   H     0.44810   0.32915   0.50387   0.00000  Uiso   1.00
H213   H     0.90987   0.54852   0.68312   0.00000  Uiso   1.00
H214   H     0.90024   0.03888   0.49896   0.00000  Uiso   1.00
H215   H     0.70562   0.22847   0.81626   0.00000  Uiso   1.00
H216   H     0.55976   0.23740   0.79622   0.00000  Uiso   1.00
H217   H     0.77875   0.34145   0.88123   0.00000  Uiso   1.00
H218   H     0.77418   0.09976   0.79389   0.00000  Uiso   1.00
H219   H     0.40465   0.25810   0.73846   0.00000  Uiso   1.00
H220   H     0.86643   0.47748   0.91771   0.00000  Uiso   1.00
H221   H     0.85679   0.96783   0.73354   0.00000  Uiso   1.00
O222   O     0.33134   0.30102   0.60305   0.00000  Uiso   1.00
O223   O     0.93718   0.58882   0.83821   0.00000  Uiso   1.00
O224   O     0.92454   0.92018   0.59659   0.00000  Uiso   1.00
N225   N     0.45789   0.31119   0.56183   0.00000  Uiso   1.00
N226   N     0.88961   0.51630   0.72941   0.00000  Uiso   1.00
N227   N     0.88062   0.03983   0.55724   0.00000  Uiso   1.00
N228   N     0.43451   0.27295   0.68806   0.00000  Uiso   1.00
N229   N     0.86623   0.47807   0.85564   0.00000  Uiso   1.00
N230   N     0.85724   0.00160   0.68347   0.00000  Uiso   1.00
C231   C     0.25527   0.70756   0.60504   0.00000  Uiso   1.00
C232   C     0.34004   0.71175   0.62397   0.00000  Uiso   1.00
C233   C     0.39828   0.69396   0.56958   0.00000  Uiso   1.00
C234   C     0.47209   0.70147   0.59871   0.00000  Uiso   1.00
C235   C     0.60144   0.70422   0.61586   0.00000  Uiso   1.00
C236   C     0.22106   0.65521   0.67016   0.00000  Uiso   1.00
C237   C     0.17927   0.58989   0.65460   0.00000  Uiso   1.00
C238   C     0.15291   0.54981   0.72262   0.00000  Uiso   1.00
C239   C     0.09750   0.46481   0.81148   0.00000  Uiso   1.00
C240   C     0.22355   0.78652   0.62270   0.00000  Uiso   1.00
C241   C     0.18383   0.83162   0.56725   0.00000  Uiso   1.00
C242   C     0.15955   0.90209   0.59532   0.00000  Uiso   1.00
C243   C     0.10801   0.02098   0.61050   0.00000  Uiso   1.00
C244   C     0.28276   0.75252   0.75348   0.00000  Uiso   1.00
C245   C     0.35496   0.73617   0.70460   0.00000  Uiso   1.00
C246   C     0.42870   0.74370   0.73382   0.00000  Uiso   1.00
C247   C     0.48705   0.72594   0.67948   0.00000  Uiso   1.00
C248   C     0.23599   0.67962   0.75079   0.00000  Uiso   1.00
C249   C     0.20968   0.63963   0.81884   0.00000  Uiso   1.00
C250   C     0.16787   0.57427   0.80339   0.00000  Uiso   1.00
C251   C     0.23848   0.81095   0.70333   0.00000  Uiso   1.00
C252   C     0.21425   0.88136   0.73149   0.00000  Uiso   1.00
C253   C     0.17451   0.92655   0.67610   0.00000  Uiso   1.00
H254   H     0.24364   0.68854   0.54226   0.00000  Uiso   1.00
H255   H     0.38670   0.67506   0.50719   0.00000  Uiso   1.00
H256   H     0.16772   0.57101   0.59220   0.00000  Uiso   1.00
H257   H     0.17229   0.81270   0.50487   0.00000  Uiso   1.00
H258   H     0.55190   0.67085   0.50387   0.00000  Uiso   1.00
H259   H     0.09013   0.45148   0.68312   0.00000  Uiso   1.00
H260   H     0.09976   0.96112   0.49896   0.00000  Uiso   1.00
H261   H     0.29438   0.77153   0.81626   0.00000  Uiso   1.00
H262   H     0.44024   0.76260   0.79622   0.00000  Uiso   1.00
H263   H     0.22125   0.65855   0.88123   0.00000  Uiso   1.00
H264   H     0.22582   0.90024   0.79389   0.00000  Uiso   1.00
H265   H     0.59535   0.74190   0.73846   0.00000  Uiso   1.00
H266   H     0.13357   0.52252   0.91771   0.00000  Uiso   1.00
H267   H     0.14321   0.03217   0.73354   0.00000  Uiso   1.00
O268   O     0.66866   0.69898   0.60305   0.00000  Uiso   1.00
O269   O     0.06282   0.41118   0.83821   0.00000  Uiso   1.00
O270   O     0.07546   0.07982   0.59659   0.00000  Uiso   1.00
N271   N     0.54211   0.68881   0.56183   0.00000  Uiso   1.00
N272   N     0.11039   0.48370   0.72941   0.00000  Uiso   1.00
N273   N     0.11938   0.96017   0.55724   0.00000  Uiso   1.00
N274   N     0.56549   0.72705   0.68806   0.00000  Uiso   1.00
N275   N     0.13377   0.52193   0.85564   0.00000  Uiso   1.00
N276   N     0.14276   0.99840   0.68347   0.00000  Uiso   1.00
C277   C     0.70756   0.74473   0.39496   0.00000  Uiso   1.00
C278   C     0.71175   0.65996   0.37603   0.00000  Uiso   1.00
C279   C     0.69396   0.60172   0.43042   0.00000  Uiso   1.00
C280   C     0.70147   0.52791   0.40129   0.00000  Uiso   1.00
C281   C     0.70422   0.39856   0.38414   0.00000  Uiso   1.00
C282   C     0.65521   0.77894   0.32984   0.00000  Uiso   1.00
C283   C     0.58989   0.82073   0.34540   0.00000  Uiso   1.00
C284   C     0.54981   0.84709   0.27738   0.00000  Uiso   1.00
C285   C     0.46481   0.90250   0.18852   0.00000  Uiso   1.00
C286   C     0.78652   0.77645   0.37730   0.00000  Uiso   1.00
C287   C     0.83162   0.81617   0.43275   0.00000  Uiso   1.00
C288   C     0.90209   0.84045   0.40468   0.00000  Uiso   1.00
C289   C     0.02098   0.89199   0.38950   0.00000  Uiso   1.00
C290   C     0.75252   0.71724   0.24652   0.00000  Uiso   1.00
C291   C     0.73617   0.64504   0.29540   0.00000  Uiso   1.00
C292   C     0.74370   0.57130   0.26618   0.00000  Uiso   1.00
C293   C     0.72594   0.51295   0.32052   0.00000  Uiso   1.00
C294   C     0.67962   0.76401   0.24921   0.00000  Uiso   1.00
C295   C     0.63963   0.79032   0.18116   0.00000  Uiso   1.00
C296   C     0.57427   0.83213   0.19661   0.00000  Uiso   1.00
C297   C     0.81095   0.76152   0.29667   0.00000  Uiso   1.00
C298   C     0.88136   0.78575   0.26851   0.00000  Uiso   1.00
C299   C     0.92655   0.82549   0.32390   0.00000  Uiso   1.00
H300   H     0.68854   0.75636   0.45774   0.00000  Uiso   1.00
H301   H     0.67506   0.61330   0.49281   0.00000  Uiso   1.00
H302   H     0.57101   0.83228   0.40780   0.00000  Uiso   1.00
H303   H     0.81270   0.82771   0.49513   0.00000  Uiso   1.00
H304   H     0.67085   0.44810   0.49613   0.00000  Uiso   1.00
H305   H     0.45148   0.90987   0.31688   0.00000  Uiso   1.00
H306   H     0.96112   0.90024   0.50104   0.00000  Uiso   1.00
H307   H     0.77153   0.70562   0.18374   0.00000  Uiso   1.00
H308   H     0.76260   0.55976   0.20378   0.00000  Uiso   1.00
H309   H     0.65855   0.77875   0.11877   0.00000  Uiso   1.00
H310   H     0.90024   0.77418   0.20611   0.00000  Uiso   1.00
H311   H     0.74190   0.40465   0.26154   0.00000  Uiso   1.00
H312   H     0.52252   0.86643   0.08229   0.00000  Uiso   1.00
H313   H     0.03217   0.85679   0.26646   0.00000  Uiso   1.00
O314   O     0.69898   0.33134   0.39695   0.00000  Uiso   1.00
O315   O     0.41118   0.93718   0.16179   0.00000  Uiso   1.00
O316   O     0.07982   0.92454   0.40341   0.00000  Uiso   1.00
N317   N     0.68881   0.45789   0.43817   0.00000  Uiso   1.00
N318   N     0.48370   0.88961   0.27059   0.00000  Uiso   1.00
N319   N     0.96017   0.88062   0.44276   0.00000  Uiso   1.00
N320   N     0.72705   0.43451   0.31194   0.00000  Uiso   1.00
N321   N     0.52193   0.86623   0.14436   0.00000  Uiso   1.00
N322   N     0.99840   0.85724   0.31653   0.00000  Uiso   1.00
C323   C     0.29244   0.25527   0.39496   0.00000  Uiso   1.00
C324   C     0.28825   0.34004   0.37603   0.00000  Uiso   1.00
C325   C     0.30604   0.39828   0.43042   0.00000  Uiso   1.00
C326   C     0.29853   0.47209   0.40129   0.00000  Uiso   1.00
C327   C     0.29578   0.60144   0.38414   0.00000  Uiso   1.00
C328   C     0.34479   0.22106   0.32984   0.00000  Uiso   1.00
C329   C     0.41011   0.17927   0.34540   0.00000  Uiso   1.00
C330   C     0.45019   0.15291   0.27738   0.00000  Uiso   1.00
C331   C     0.53519   0.09750   0.18852   0.00000  Uiso   1.00
C332   C     0.21348   0.22355   0.37730   0.00000  Uiso   1.00
C333   C     0.16838   0.18383   0.43275   0.00000  Uiso   1.00
C334   C     0.09791   0.15955   0.40468   0.00000  Uiso   1.00
C335   C     0.97902   0.10801   0.38950   0.00000  Uiso   1.00
C336   C     0.24748   0.28276   0.24652   0.00000  Uiso   1.00
C337   C     0.26383   0.35496   0.29540   0.00000  Uiso   1.00
C338   C     0.25630   0.42870   0.26618   0.00000  Uiso   1.00
C339   C     0.27406   0.48705   0.32052   0.00000  Uiso   1.00
C340   C     0.32038   0.23599   0.24921   0.00000  Uiso   1.00
C341   C     0.36037   0.20968   0.18116   0.00000  Uiso   1.00
C342   C     0.42573   0.16787   0.19661   0.00000  Uiso   1.00
C343   C     0.18905   0.23848   0.29667   0.00000  Uiso   1.00
C344   C     0.11864   0.21425   0.26851   0.00000  Uiso   1.00
C345   C     0.07345   0.17451   0.32390   0.00000  Uiso   1.00
H346   H     0.31146   0.24364   0.45774   0.00000  Uiso   1.00
H347   H     0.32494   0.38670   0.49281   0.00000  Uiso   1.00
H348   H     0.42899   0.16772   0.40780   0.00000  Uiso   1.00
H349   H     0.18730   0.17229   0.49513   0.00000  Uiso   1.00
H350   H     0.32915   0.55190   0.49613   0.00000  Uiso   1.00
H351   H     0.54852   0.09013   0.31688   0.00000  Uiso   1.00
H352   H     0.03888   0.09976   0.50104   0.00000  Uiso   1.00
H353   H     0.22847   0.29438   0.18374   0.00000  Uiso   1.00
H354   H     0.23740   0.44024   0.20378   0.00000  Uiso   1.00
H355   H     0.34145   0.22125   0.11877   0.00000  Uiso   1.00
H356   H     0.09976   0.22582   0.20611   0.00000  Uiso   1.00
H357   H     0.25810   0.59535   0.26154   0.00000  Uiso   1.00
H358   H     0.47748   0.13357   0.08229   0.00000  Uiso   1.00
H359   H     0.96783   0.14321   0.26646   0.00000  Uiso   1.00
O360   O     0.30102   0.66866   0.39695   0.00000  Uiso   1.00
O361   O     0.58882   0.06282   0.16179   0.00000  Uiso   1.00
O362   O     0.92018   0.07546   0.40341   0.00000  Uiso   1.00
N363   N     0.31119   0.54211   0.43817   0.00000  Uiso   1.00
N364   N     0.51630   0.11039   0.27059   0.00000  Uiso   1.00
N365   N     0.03983   0.11938   0.44276   0.00000  Uiso   1.00
N366   N     0.27295   0.56549   0.31194   0.00000  Uiso   1.00
N367   N     0.47807   0.13377   0.14436   0.00000  Uiso   1.00
N368   N     0.00160   0.14276   0.31653   0.00000  Uiso   1.00
