data_job_03715
_audit_creation_date              2018-12-19
_audit_creation_method            'Materials Studio'
_symmetry_space_group_name_H-M    'P1'
_symmetry_Int_Tables_number       1
_symmetry_cell_setting            triclinic
loop_
_symmetry_equiv_pos_as_xyz
  x,y,z
_cell_length_a                    19.4688
_cell_length_b                    12.4036
_cell_length_c                    12.5778
_cell_angle_alpha                 90.0000
_cell_angle_beta                  93.3860
_cell_angle_gamma                 90.0000
loop_
_atom_site_label
_atom_site_type_symbol
_atom_site_fract_x
_atom_site_fract_y
_atom_site_fract_z
_atom_site_U_iso_or_equiv
_atom_site_adp_type
_atom_site_occupancy
C1     C     0.25724   0.40450   0.84358   0.00000  Uiso   1.00
C2     C     0.30647   0.48828   0.89376   0.00000  Uiso   1.00
C3     C     0.32280   0.58656   0.84895   0.00000  Uiso   1.00
C4     C     0.36895   0.65187   0.90750   0.00000  Uiso   1.00
C5     C     0.44105   0.78679   0.97022   0.00000  Uiso   1.00
C6     C     0.29840   0.30020   0.83860   0.00000  Uiso   1.00
C7     C     0.30793   0.24034   0.74742   0.00000  Uiso   1.00
C8     C     0.34728   0.14732   0.75953   0.00000  Uiso   1.00
C9     C     0.40680   0.99020   0.73663   0.00000  Uiso   1.00
C10    C     0.20313   0.38472   0.92422   0.00000  Uiso   1.00
C11    C     0.13255   0.39590   0.90503   0.00000  Uiso   1.00
C12    C     0.09169   0.37401   0.98923   0.00000  Uiso   1.00
C13    C     0.00329   0.34812   0.09927   0.00000  Uiso   1.00
C14    C     0.31016   0.34571   0.02723   0.00000  Uiso   1.00
C15    C     0.33521   0.45634   0.99351   0.00000  Uiso   1.00
C16    C     0.38135   0.52152   0.05214   0.00000  Uiso   1.00
C17    C     0.39775   0.61988   0.00743   0.00000  Uiso   1.00
C18    C     0.32714   0.26827   0.93834   0.00000  Uiso   1.00
C19    C     0.36648   0.17530   0.95060   0.00000  Uiso   1.00
C20    C     0.37608   0.11533   0.85946   0.00000  Uiso   1.00
C21    C     0.23187   0.35279   0.02397   0.00000  Uiso   1.00
C22    C     0.19110   0.33087   0.10822   0.00000  Uiso   1.00
C23    C     0.12048   0.34202   0.08916   0.00000  Uiso   1.00
H24    H     0.23486   0.42935   0.76591   0.00000  Uiso   1.00
H25    H     0.30055   0.61124   0.77175   0.00000  Uiso   1.00
H26    H     0.28568   0.26507   0.67024   0.00000  Uiso   1.00
H27    H     0.11033   0.42061   0.82783   0.00000  Uiso   1.00
H28    H     0.38607   0.79880   0.82220   0.00000  Uiso   1.00
H29    H     0.35469   0.06886   0.60815   0.00000  Uiso   1.00
H30    H     0.98493   0.39684   0.94046   0.00000  Uiso   1.00
H31    H     0.33254   0.32085   0.10489   0.00000  Uiso   1.00
H32    H     0.40358   0.49679   0.12933   0.00000  Uiso   1.00
H33    H     0.38871   0.15062   0.02781   0.00000  Uiso   1.00
H34    H     0.21336   0.30616   0.18540   0.00000  Uiso   1.00
H35    H     0.46970   0.70590   0.11242   0.00000  Uiso   1.00
H36    H     0.43832   0.97596   0.89837   0.00000  Uiso   1.00
H37    H     0.06856   0.30395   0.23068   0.00000  Uiso   1.00
O38    O     0.47288   0.87003   0.97725   0.00000  Uiso   1.00
O39    O     0.43169   0.91237   0.69643   0.00000  Uiso   1.00
O40    O     0.94659   0.34268   0.13242   0.00000  Uiso   1.00
N41    N     0.39599   0.75280   0.88716   0.00000  Uiso   1.00
N42    N     0.36666   0.07036   0.68703   0.00000  Uiso   1.00
N43    N     0.02097   0.37697   0.99770   0.00000  Uiso   1.00
N44    N     0.44099   0.70281   0.04332   0.00000  Uiso   1.00
N45    N     0.41166   0.02037   0.84320   0.00000  Uiso   1.00
N46    N     0.06597   0.32698   0.15387   0.00000  Uiso   1.00
C47    C     0.74276   0.40450   0.65642   0.00000  Uiso   1.00
C48    C     0.69353   0.48828   0.60624   0.00000  Uiso   1.00
C49    C     0.67720   0.58656   0.65105   0.00000  Uiso   1.00
C50    C     0.63105   0.65187   0.59250   0.00000  Uiso   1.00
C51    C     0.55895   0.78679   0.52978   0.00000  Uiso   1.00
C52    C     0.70160   0.30020   0.66140   0.00000  Uiso   1.00
C53    C     0.69207   0.24034   0.75258   0.00000  Uiso   1.00
C54    C     0.65272   0.14732   0.74047   0.00000  Uiso   1.00
C55    C     0.59320   0.99020   0.76337   0.00000  Uiso   1.00
C56    C     0.79687   0.38472   0.57578   0.00000  Uiso   1.00
C57    C     0.86745   0.39590   0.59497   0.00000  Uiso   1.00
C58    C     0.90831   0.37401   0.51077   0.00000  Uiso   1.00
C59    C     0.99671   0.34812   0.40073   0.00000  Uiso   1.00
C60    C     0.68984   0.34571   0.47277   0.00000  Uiso   1.00
C61    C     0.66479   0.45634   0.50649   0.00000  Uiso   1.00
C62    C     0.61865   0.52152   0.44786   0.00000  Uiso   1.00
C63    C     0.60225   0.61988   0.49257   0.00000  Uiso   1.00
C64    C     0.67286   0.26827   0.56166   0.00000  Uiso   1.00
C65    C     0.63352   0.17530   0.54940   0.00000  Uiso   1.00
C66    C     0.62392   0.11533   0.64054   0.00000  Uiso   1.00
C67    C     0.76813   0.35279   0.47603   0.00000  Uiso   1.00
C68    C     0.80890   0.33087   0.39178   0.00000  Uiso   1.00
C69    C     0.87952   0.34202   0.41084   0.00000  Uiso   1.00
H70    H     0.76514   0.42935   0.73409   0.00000  Uiso   1.00
H71    H     0.69945   0.61124   0.72825   0.00000  Uiso   1.00
H72    H     0.71432   0.26507   0.82976   0.00000  Uiso   1.00
H73    H     0.88967   0.42061   0.67217   0.00000  Uiso   1.00
H74    H     0.61393   0.79880   0.67780   0.00000  Uiso   1.00
H75    H     0.64531   0.06886   0.89185   0.00000  Uiso   1.00
H76    H     0.01507   0.39684   0.55954   0.00000  Uiso   1.00
H77    H     0.66746   0.32085   0.39511   0.00000  Uiso   1.00
H78    H     0.59642   0.49679   0.37067   0.00000  Uiso   1.00
H79    H     0.61129   0.15062   0.47219   0.00000  Uiso   1.00
H80    H     0.78664   0.30616   0.31460   0.00000  Uiso   1.00
H81    H     0.53030   0.70590   0.38758   0.00000  Uiso   1.00
H82    H     0.56168   0.97596   0.60163   0.00000  Uiso   1.00
H83    H     0.93144   0.30395   0.26932   0.00000  Uiso   1.00
O84    O     0.52712   0.87003   0.52275   0.00000  Uiso   1.00
O85    O     0.56831   0.91237   0.80357   0.00000  Uiso   1.00
O86    O     0.05341   0.34268   0.36758   0.00000  Uiso   1.00
N87    N     0.60401   0.75280   0.61284   0.00000  Uiso   1.00
N88    N     0.63334   0.07036   0.81297   0.00000  Uiso   1.00
N89    N     0.97903   0.37697   0.50230   0.00000  Uiso   1.00
N90    N     0.55901   0.70281   0.45668   0.00000  Uiso   1.00
N91    N     0.58834   0.02037   0.65680   0.00000  Uiso   1.00
N92    N     0.93403   0.32698   0.34613   0.00000  Uiso   1.00
C93    C     0.74276   0.59550   0.15642   0.00000  Uiso   1.00
C94    C     0.69353   0.51172   0.10624   0.00000  Uiso   1.00
C95    C     0.67720   0.41344   0.15105   0.00000  Uiso   1.00
C96    C     0.63105   0.34813   0.09250   0.00000  Uiso   1.00
C97    C     0.55895   0.21321   0.02978   0.00000  Uiso   1.00
C98    C     0.70160   0.69980   0.16140   0.00000  Uiso   1.00
C99    C     0.69207   0.75966   0.25258   0.00000  Uiso   1.00
C100   C     0.65272   0.85268   0.24047   0.00000  Uiso   1.00
C101   C     0.59320   0.00980   0.26337   0.00000  Uiso   1.00
C102   C     0.79687   0.61528   0.07578   0.00000  Uiso   1.00
C103   C     0.86745   0.60410   0.09497   0.00000  Uiso   1.00
C104   C     0.90831   0.62599   0.01077   0.00000  Uiso   1.00
C105   C     0.99671   0.65188   0.90073   0.00000  Uiso   1.00
C106   C     0.68984   0.65429   0.97277   0.00000  Uiso   1.00
C107   C     0.66479   0.54366   0.00649   0.00000  Uiso   1.00
C108   C     0.61865   0.47848   0.94786   0.00000  Uiso   1.00
C109   C     0.60225   0.38012   0.99257   0.00000  Uiso   1.00
C110   C     0.67286   0.73173   0.06166   0.00000  Uiso   1.00
C111   C     0.63352   0.82470   0.04940   0.00000  Uiso   1.00
C112   C     0.62392   0.88467   0.14054   0.00000  Uiso   1.00
C113   C     0.76813   0.64721   0.97603   0.00000  Uiso   1.00
C114   C     0.80890   0.66913   0.89178   0.00000  Uiso   1.00
C115   C     0.87952   0.65798   0.91084   0.00000  Uiso   1.00
H116   H     0.76514   0.57065   0.23409   0.00000  Uiso   1.00
H117   H     0.69945   0.38876   0.22825   0.00000  Uiso   1.00
H118   H     0.71432   0.73493   0.32976   0.00000  Uiso   1.00
H119   H     0.88967   0.57939   0.17217   0.00000  Uiso   1.00
H120   H     0.61393   0.20120   0.17780   0.00000  Uiso   1.00
H121   H     0.64531   0.93114   0.39185   0.00000  Uiso   1.00
H122   H     0.01507   0.60316   0.05954   0.00000  Uiso   1.00
H123   H     0.66746   0.67915   0.89511   0.00000  Uiso   1.00
H124   H     0.59642   0.50321   0.87067   0.00000  Uiso   1.00
H125   H     0.61129   0.84938   0.97219   0.00000  Uiso   1.00
H126   H     0.78664   0.69384   0.81460   0.00000  Uiso   1.00
H127   H     0.53030   0.29410   0.88758   0.00000  Uiso   1.00
H128   H     0.56168   0.02404   0.10163   0.00000  Uiso   1.00
H129   H     0.93144   0.69605   0.76932   0.00000  Uiso   1.00
O130   O     0.52712   0.12997   0.02275   0.00000  Uiso   1.00
O131   O     0.56831   0.08763   0.30357   0.00000  Uiso   1.00
O132   O     0.05341   0.65732   0.86758   0.00000  Uiso   1.00
N133   N     0.60401   0.24720   0.11284   0.00000  Uiso   1.00
N134   N     0.63334   0.92964   0.31297   0.00000  Uiso   1.00
N135   N     0.97903   0.62303   0.00230   0.00000  Uiso   1.00
N136   N     0.55901   0.29719   0.95668   0.00000  Uiso   1.00
N137   N     0.58834   0.97963   0.15680   0.00000  Uiso   1.00
N138   N     0.93403   0.67302   0.84613   0.00000  Uiso   1.00
C139   C     0.25724   0.59550   0.34358   0.00000  Uiso   1.00
C140   C     0.30647   0.51172   0.39376   0.00000  Uiso   1.00
C141   C     0.32280   0.41344   0.34895   0.00000  Uiso   1.00
C142   C     0.36895   0.34813   0.40750   0.00000  Uiso   1.00
C143   C     0.44105   0.21321   0.47022   0.00000  Uiso   1.00
C144   C     0.29840   0.69980   0.33860   0.00000  Uiso   1.00
C145   C     0.30793   0.75966   0.24742   0.00000  Uiso   1.00
C146   C     0.34728   0.85268   0.25953   0.00000  Uiso   1.00
C147   C     0.40680   0.00980   0.23663   0.00000  Uiso   1.00
C148   C     0.20313   0.61528   0.42422   0.00000  Uiso   1.00
C149   C     0.13255   0.60410   0.40503   0.00000  Uiso   1.00
C150   C     0.09169   0.62599   0.48923   0.00000  Uiso   1.00
C151   C     0.00329   0.65188   0.59927   0.00000  Uiso   1.00
C152   C     0.31016   0.65429   0.52723   0.00000  Uiso   1.00
C153   C     0.33521   0.54366   0.49351   0.00000  Uiso   1.00
C154   C     0.38135   0.47848   0.55214   0.00000  Uiso   1.00
C155   C     0.39775   0.38012   0.50743   0.00000  Uiso   1.00
C156   C     0.32714   0.73173   0.43834   0.00000  Uiso   1.00
C157   C     0.36648   0.82470   0.45060   0.00000  Uiso   1.00
C158   C     0.37608   0.88467   0.35946   0.00000  Uiso   1.00
C159   C     0.23187   0.64721   0.52397   0.00000  Uiso   1.00
C160   C     0.19110   0.66913   0.60822   0.00000  Uiso   1.00
C161   C     0.12048   0.65798   0.58916   0.00000  Uiso   1.00
H162   H     0.23486   0.57065   0.26591   0.00000  Uiso   1.00
H163   H     0.30055   0.38876   0.27175   0.00000  Uiso   1.00
H164   H     0.28568   0.73493   0.17024   0.00000  Uiso   1.00
H165   H     0.11033   0.57939   0.32783   0.00000  Uiso   1.00
H166   H     0.38607   0.20120   0.32220   0.00000  Uiso   1.00
H167   H     0.35469   0.93114   0.10815   0.00000  Uiso   1.00
H168   H     0.98493   0.60316   0.44046   0.00000  Uiso   1.00
H169   H     0.33254   0.67915   0.60489   0.00000  Uiso   1.00
H170   H     0.40358   0.50321   0.62933   0.00000  Uiso   1.00
H171   H     0.38871   0.84938   0.52781   0.00000  Uiso   1.00
H172   H     0.21336   0.69384   0.68540   0.00000  Uiso   1.00
H173   H     0.46970   0.29410   0.61242   0.00000  Uiso   1.00
H174   H     0.43832   0.02404   0.39837   0.00000  Uiso   1.00
H175   H     0.06856   0.69605   0.73068   0.00000  Uiso   1.00
O176   O     0.47288   0.12997   0.47725   0.00000  Uiso   1.00
O177   O     0.43169   0.08763   0.19643   0.00000  Uiso   1.00
O178   O     0.94659   0.65732   0.63242   0.00000  Uiso   1.00
N179   N     0.39599   0.24720   0.38716   0.00000  Uiso   1.00
N180   N     0.36666   0.92964   0.18703   0.00000  Uiso   1.00
N181   N     0.02097   0.62303   0.49770   0.00000  Uiso   1.00
N182   N     0.44099   0.29719   0.54332   0.00000  Uiso   1.00
N183   N     0.41166   0.97963   0.34320   0.00000  Uiso   1.00
N184   N     0.06597   0.67302   0.65387   0.00000  Uiso   1.00
