data_job_04671
_audit_creation_date              2018-12-19
_audit_creation_method            'Materials Studio'
_symmetry_space_group_name_H-M    'P1'
_symmetry_Int_Tables_number       1
_symmetry_cell_setting            triclinic
loop_
_symmetry_equiv_pos_as_xyz
  x,y,z
_cell_length_a                    20.8256
_cell_length_b                    10.2510
_cell_length_c                    15.2500
_cell_angle_alpha                 90.0000
_cell_angle_beta                  139.4701
_cell_angle_gamma                 90.0000
loop_
_atom_site_label
_atom_site_type_symbol
_atom_site_fract_x
_atom_site_fract_y
_atom_site_fract_z
_atom_site_U_iso_or_equiv
_atom_site_adp_type
_atom_site_occupancy
C1     C     0.31041   0.75538   0.88829   0.00000  Uiso   1.00
C2     C     0.21231   0.81930   0.81040   0.00000  Uiso   1.00
C3     C     0.18553   0.94704   0.76408   0.00000  Uiso   1.00
C4     C     0.09249   0.98698   0.69489   0.00000  Uiso   1.00
C5     C     0.94986   0.09912   0.57723   0.00000  Uiso   1.00
C6     C     0.28441   0.63481   0.80747   0.00000  Uiso   1.00
C7     C     0.31827   0.60742   0.75871   0.00000  Uiso   1.00
C8     C     0.28593   0.49204   0.68707   0.00000  Uiso   1.00
C9     C     0.25529   0.31770   0.56495   0.00000  Uiso   1.00
C10    C     0.35390   0.70496   0.01922   0.00000  Uiso   1.00
C11    C     0.44621   0.73653   0.14851   0.00000  Uiso   1.00
C12    C     0.47239   0.68018   0.25515   0.00000  Uiso   1.00
C13    C     0.54966   0.61477   0.46181   0.00000  Uiso   1.00
C14    C     0.19278   0.59914   0.84777   0.00000  Uiso   1.00
C15    C     0.14841   0.73443   0.78839   0.00000  Uiso   1.00
C16    C     0.05538   0.77418   0.71925   0.00000  Uiso   1.00
C17    C     0.02848   0.90196   0.67284   0.00000  Uiso   1.00
C18    C     0.22051   0.54994   0.78546   0.00000  Uiso   1.00
C19    C     0.18812   0.43457   0.71388   0.00000  Uiso   1.00
C20    C     0.22192   0.40702   0.66502   0.00000  Uiso   1.00
C21    C     0.29001   0.62010   0.99722   0.00000  Uiso   1.00
C22    C     0.31606   0.56368   0.10368   0.00000  Uiso   1.00
C23    C     0.40838   0.59516   0.23311   0.00000  Uiso   1.00
H24    H     0.36016   0.82144   0.90542   0.00000  Uiso   1.00
H25    H     0.23500   0.01268   0.78112   0.00000  Uiso   1.00
H26    H     0.36772   0.67311   0.77577   0.00000  Uiso   1.00
H27    H     0.49564   0.80220   0.16550   0.00000  Uiso   1.00
H28    H     0.06805   0.18727   0.63357   0.00000  Uiso   1.00
H29    H     0.34793   0.47124   0.62232   0.00000  Uiso   1.00
H30    H     0.61767   0.74346   0.44415   0.00000  Uiso   1.00
H31    H     0.14303   0.53306   0.83063   0.00000  Uiso   1.00
H32    H     0.00595   0.70849   0.70223   0.00000  Uiso   1.00
H33    H     0.13868   0.36891   0.69688   0.00000  Uiso   1.00
H34    H     0.26659   0.49801   0.08661   0.00000  Uiso   1.00
H35    H     0.88214   0.94037   0.56953   0.00000  Uiso   1.00
H36    H     0.16203   0.22434   0.55829   0.00000  Uiso   1.00
H37    H     0.43176   0.49656   0.38012   0.00000  Uiso   1.00
O38    O     0.88883   0.18441   0.51839   0.00000  Uiso   1.00
O39    O     0.25604   0.24500   0.50366   0.00000  Uiso   1.00
O40    O     0.60992   0.60215   0.58188   0.00000  Uiso   1.00
N41    N     0.04311   0.10510   0.63614   0.00000  Uiso   1.00
N42    N     0.30477   0.43566   0.62560   0.00000  Uiso   1.00
N43    N     0.55697   0.69014   0.39395   0.00000  Uiso   1.00
N44    N     0.94308   0.97224   0.60169   0.00000  Uiso   1.00
N45    N     0.20474   0.30281   0.59115   0.00000  Uiso   1.00
N46    N     0.45694   0.55728   0.35950   0.00000  Uiso   1.00
C47    C     0.68959   0.25538   0.61171   0.00000  Uiso   1.00
C48    C     0.78769   0.31930   0.68960   0.00000  Uiso   1.00
C49    C     0.81447   0.44704   0.73592   0.00000  Uiso   1.00
C50    C     0.90751   0.48698   0.80511   0.00000  Uiso   1.00
C51    C     0.05014   0.59912   0.92277   0.00000  Uiso   1.00
C52    C     0.71559   0.13481   0.69253   0.00000  Uiso   1.00
C53    C     0.68173   0.10742   0.74129   0.00000  Uiso   1.00
C54    C     0.71407   0.99204   0.81293   0.00000  Uiso   1.00
C55    C     0.74471   0.81770   0.93505   0.00000  Uiso   1.00
C56    C     0.64610   0.20496   0.48078   0.00000  Uiso   1.00
C57    C     0.55379   0.23653   0.35149   0.00000  Uiso   1.00
C58    C     0.52761   0.18018   0.24485   0.00000  Uiso   1.00
C59    C     0.45034   0.11477   0.03819   0.00000  Uiso   1.00
C60    C     0.80722   0.09914   0.65223   0.00000  Uiso   1.00
C61    C     0.85159   0.23443   0.71161   0.00000  Uiso   1.00
C62    C     0.94462   0.27418   0.78075   0.00000  Uiso   1.00
C63    C     0.97152   0.40196   0.82716   0.00000  Uiso   1.00
C64    C     0.77949   0.04994   0.71454   0.00000  Uiso   1.00
C65    C     0.81188   0.93457   0.78612   0.00000  Uiso   1.00
C66    C     0.77808   0.90702   0.83498   0.00000  Uiso   1.00
C67    C     0.70999   0.12010   0.50278   0.00000  Uiso   1.00
C68    C     0.68394   0.06368   0.39632   0.00000  Uiso   1.00
C69    C     0.59162   0.09516   0.26689   0.00000  Uiso   1.00
H70    H     0.63984   0.32144   0.59458   0.00000  Uiso   1.00
H71    H     0.76500   0.51268   0.71888   0.00000  Uiso   1.00
H72    H     0.63228   0.17311   0.72423   0.00000  Uiso   1.00
H73    H     0.50436   0.30220   0.33450   0.00000  Uiso   1.00
H74    H     0.93195   0.68727   0.86643   0.00000  Uiso   1.00
H75    H     0.65207   0.97124   0.87768   0.00000  Uiso   1.00
H76    H     0.38233   0.24346   0.05585   0.00000  Uiso   1.00
H77    H     0.85697   0.03306   0.66937   0.00000  Uiso   1.00
H78    H     0.99405   0.20849   0.79777   0.00000  Uiso   1.00
H79    H     0.86132   0.86891   0.80312   0.00000  Uiso   1.00
H80    H     0.73341   0.99801   0.41339   0.00000  Uiso   1.00
H81    H     0.11786   0.44037   0.93047   0.00000  Uiso   1.00
H82    H     0.83797   0.72434   0.94171   0.00000  Uiso   1.00
H83    H     0.56824   0.99656   0.11988   0.00000  Uiso   1.00
O84    O     0.11117   0.68441   0.98161   0.00000  Uiso   1.00
O85    O     0.74396   0.74500   0.99634   0.00000  Uiso   1.00
O86    O     0.39008   0.10215   0.91812   0.00000  Uiso   1.00
N87    N     0.95689   0.60510   0.86386   0.00000  Uiso   1.00
N88    N     0.69523   0.93566   0.87440   0.00000  Uiso   1.00
N89    N     0.44303   0.19014   0.10605   0.00000  Uiso   1.00
N90    N     0.05692   0.47224   0.89831   0.00000  Uiso   1.00
N91    N     0.79526   0.80281   0.90885   0.00000  Uiso   1.00
N92    N     0.54306   0.05728   0.14050   0.00000  Uiso   1.00
C93    C     0.68959   0.24462   0.11171   0.00000  Uiso   1.00
C94    C     0.78769   0.18070   0.18960   0.00000  Uiso   1.00
C95    C     0.81447   0.05296   0.23592   0.00000  Uiso   1.00
C96    C     0.90751   0.01302   0.30511   0.00000  Uiso   1.00
C97    C     0.05014   0.90088   0.42277   0.00000  Uiso   1.00
C98    C     0.71559   0.36519   0.19253   0.00000  Uiso   1.00
C99    C     0.68173   0.39258   0.24129   0.00000  Uiso   1.00
C100   C     0.71407   0.50796   0.31293   0.00000  Uiso   1.00
C101   C     0.74471   0.68230   0.43505   0.00000  Uiso   1.00
C102   C     0.64610   0.29504   0.98078   0.00000  Uiso   1.00
C103   C     0.55379   0.26347   0.85149   0.00000  Uiso   1.00
C104   C     0.52761   0.31982   0.74485   0.00000  Uiso   1.00
C105   C     0.45034   0.38523   0.53819   0.00000  Uiso   1.00
C106   C     0.80722   0.40086   0.15223   0.00000  Uiso   1.00
C107   C     0.85159   0.26557   0.21161   0.00000  Uiso   1.00
C108   C     0.94462   0.22582   0.28075   0.00000  Uiso   1.00
C109   C     0.97152   0.09804   0.32716   0.00000  Uiso   1.00
C110   C     0.77949   0.45006   0.21454   0.00000  Uiso   1.00
C111   C     0.81188   0.56543   0.28612   0.00000  Uiso   1.00
C112   C     0.77808   0.59298   0.33498   0.00000  Uiso   1.00
C113   C     0.70999   0.37990   0.00278   0.00000  Uiso   1.00
C114   C     0.68394   0.43632   0.89632   0.00000  Uiso   1.00
C115   C     0.59162   0.40484   0.76689   0.00000  Uiso   1.00
H116   H     0.63984   0.17856   0.09458   0.00000  Uiso   1.00
H117   H     0.76500   0.98732   0.21888   0.00000  Uiso   1.00
H118   H     0.63228   0.32689   0.22423   0.00000  Uiso   1.00
H119   H     0.50436   0.19780   0.83450   0.00000  Uiso   1.00
H120   H     0.93195   0.81273   0.36643   0.00000  Uiso   1.00
H121   H     0.65207   0.52876   0.37768   0.00000  Uiso   1.00
H122   H     0.38233   0.25654   0.55585   0.00000  Uiso   1.00
H123   H     0.85697   0.46694   0.16937   0.00000  Uiso   1.00
H124   H     0.99405   0.29151   0.29777   0.00000  Uiso   1.00
H125   H     0.86132   0.63109   0.30312   0.00000  Uiso   1.00
H126   H     0.73341   0.50199   0.91339   0.00000  Uiso   1.00
H127   H     0.11786   0.05963   0.43047   0.00000  Uiso   1.00
H128   H     0.83797   0.77566   0.44171   0.00000  Uiso   1.00
H129   H     0.56824   0.50344   0.61988   0.00000  Uiso   1.00
O130   O     0.11117   0.81559   0.48161   0.00000  Uiso   1.00
O131   O     0.74396   0.75500   0.49634   0.00000  Uiso   1.00
O132   O     0.39008   0.39785   0.41812   0.00000  Uiso   1.00
N133   N     0.95689   0.89490   0.36386   0.00000  Uiso   1.00
N134   N     0.69523   0.56434   0.37440   0.00000  Uiso   1.00
N135   N     0.44303   0.30986   0.60605   0.00000  Uiso   1.00
N136   N     0.05692   0.02776   0.39831   0.00000  Uiso   1.00
N137   N     0.79526   0.69719   0.40885   0.00000  Uiso   1.00
N138   N     0.54306   0.44272   0.64050   0.00000  Uiso   1.00
C139   C     0.31041   0.74462   0.38829   0.00000  Uiso   1.00
C140   C     0.21231   0.68070   0.31040   0.00000  Uiso   1.00
C141   C     0.18553   0.55296   0.26408   0.00000  Uiso   1.00
C142   C     0.09249   0.51302   0.19489   0.00000  Uiso   1.00
C143   C     0.94986   0.40088   0.07723   0.00000  Uiso   1.00
C144   C     0.28441   0.86519   0.30747   0.00000  Uiso   1.00
C145   C     0.31827   0.89258   0.25871   0.00000  Uiso   1.00
C146   C     0.28593   0.00796   0.18707   0.00000  Uiso   1.00
C147   C     0.25529   0.18230   0.06495   0.00000  Uiso   1.00
C148   C     0.35390   0.79504   0.51922   0.00000  Uiso   1.00
C149   C     0.44621   0.76347   0.64851   0.00000  Uiso   1.00
C150   C     0.47239   0.81982   0.75515   0.00000  Uiso   1.00
C151   C     0.54966   0.88523   0.96181   0.00000  Uiso   1.00
C152   C     0.19278   0.90086   0.34777   0.00000  Uiso   1.00
C153   C     0.14841   0.76557   0.28839   0.00000  Uiso   1.00
C154   C     0.05538   0.72582   0.21925   0.00000  Uiso   1.00
C155   C     0.02848   0.59804   0.17284   0.00000  Uiso   1.00
C156   C     0.22051   0.95006   0.28546   0.00000  Uiso   1.00
C157   C     0.18812   0.06543   0.21388   0.00000  Uiso   1.00
C158   C     0.22192   0.09298   0.16502   0.00000  Uiso   1.00
C159   C     0.29001   0.87990   0.49722   0.00000  Uiso   1.00
C160   C     0.31606   0.93632   0.60368   0.00000  Uiso   1.00
C161   C     0.40838   0.90484   0.73311   0.00000  Uiso   1.00
H162   H     0.36016   0.67856   0.40542   0.00000  Uiso   1.00
H163   H     0.23500   0.48732   0.28112   0.00000  Uiso   1.00
H164   H     0.36772   0.82689   0.27577   0.00000  Uiso   1.00
H165   H     0.49564   0.69780   0.66550   0.00000  Uiso   1.00
H166   H     0.06805   0.31273   0.13357   0.00000  Uiso   1.00
H167   H     0.34793   0.02876   0.12232   0.00000  Uiso   1.00
H168   H     0.61767   0.75654   0.94415   0.00000  Uiso   1.00
H169   H     0.14303   0.96694   0.33063   0.00000  Uiso   1.00
H170   H     0.00595   0.79151   0.20223   0.00000  Uiso   1.00
H171   H     0.13868   0.13109   0.19688   0.00000  Uiso   1.00
H172   H     0.26659   0.00199   0.58661   0.00000  Uiso   1.00
H173   H     0.88214   0.55963   0.06953   0.00000  Uiso   1.00
H174   H     0.16203   0.27566   0.05829   0.00000  Uiso   1.00
H175   H     0.43176   0.00344   0.88012   0.00000  Uiso   1.00
O176   O     0.88883   0.31559   0.01839   0.00000  Uiso   1.00
O177   O     0.25604   0.25500   0.00366   0.00000  Uiso   1.00
O178   O     0.60992   0.89785   0.08188   0.00000  Uiso   1.00
N179   N     0.04311   0.39490   0.13614   0.00000  Uiso   1.00
N180   N     0.30477   0.06434   0.12560   0.00000  Uiso   1.00
N181   N     0.55697   0.80986   0.89395   0.00000  Uiso   1.00
N182   N     0.94308   0.52776   0.10169   0.00000  Uiso   1.00
N183   N     0.20474   0.19719   0.09115   0.00000  Uiso   1.00
N184   N     0.45694   0.94272   0.85950   0.00000  Uiso   1.00
