data_job_02679
_audit_creation_date              2018-12-19
_audit_creation_method            'Materials Studio'
_symmetry_space_group_name_H-M    'P1'
_symmetry_Int_Tables_number       1
_symmetry_cell_setting            triclinic
loop_
_symmetry_equiv_pos_as_xyz
  x,y,z
_cell_length_a                    20.2127
_cell_length_b                    20.2127
_cell_length_c                    12.4708
_cell_angle_alpha                 90.0000
_cell_angle_beta                  90.0000
_cell_angle_gamma                 90.0000
loop_
_atom_site_label
_atom_site_type_symbol
_atom_site_fract_x
_atom_site_fract_y
_atom_site_fract_z
_atom_site_U_iso_or_equiv
_atom_site_adp_type
_atom_site_occupancy
C1     C     0.41026   0.71983   0.79485   0.00000  Uiso   1.00
C2     C     0.34575   0.75811   0.78186   0.00000  Uiso   1.00
C3     C     0.28265   0.73287   0.79772   0.00000  Uiso   1.00
C4     C     0.23000   0.77586   0.78174   0.00000  Uiso   1.00
C5     C     0.12828   0.82528   0.76619   0.00000  Uiso   1.00
C6     C     0.44644   0.72593   0.68800   0.00000  Uiso   1.00
C7     C     0.46801   0.67361   0.62497   0.00000  Uiso   1.00
C8     C     0.50013   0.68952   0.52999   0.00000  Uiso   1.00
C9     C     0.55478   0.68896   0.36877   0.00000  Uiso   1.00
C10    C     0.45140   0.75854   0.87589   0.00000  Uiso   1.00
C11    C     0.47716   0.73365   0.97083   0.00000  Uiso   1.00
C12    C     0.51347   0.77701   0.03403   0.00000  Uiso   1.00
C13    C     0.57582   0.82710   0.16454   0.00000  Uiso   1.00
C14    C     0.42895   0.84109   0.73825   0.00000  Uiso   1.00
C15    C     0.35590   0.82398   0.75111   0.00000  Uiso   1.00
C16    C     0.30333   0.86702   0.73511   0.00000  Uiso   1.00
C17    C     0.24017   0.84184   0.75095   0.00000  Uiso   1.00
C18    C     0.45659   0.79179   0.65726   0.00000  Uiso   1.00
C19    C     0.48869   0.80777   0.56235   0.00000  Uiso   1.00
C20    C     0.51030   0.75550   0.49919   0.00000  Uiso   1.00
C21    C     0.46155   0.82441   0.84516   0.00000  Uiso   1.00
C22    C     0.49783   0.86781   0.90822   0.00000  Uiso   1.00
C23    C     0.52364   0.84299   0.00324   0.00000  Uiso   1.00
H24    H     0.40236   0.66855   0.81877   0.00000  Uiso   1.00
H25    H     0.27482   0.68189   0.82150   0.00000  Uiso   1.00
H26    H     0.46016   0.62265   0.64878   0.00000  Uiso   1.00
H27    H     0.46930   0.68268   0.99459   0.00000  Uiso   1.00
H28    H     0.13789   0.72572   0.81093   0.00000  Uiso   1.00
H29    H     0.52871   0.60081   0.44676   0.00000  Uiso   1.00
H30    H     0.54798   0.72739   0.17597   0.00000  Uiso   1.00
H31    H     0.43685   0.89236   0.71432   0.00000  Uiso   1.00
H32    H     0.31119   0.91799   0.71132   0.00000  Uiso   1.00
H33    H     0.49653   0.85874   0.53860   0.00000  Uiso   1.00
H34    H     0.50567   0.91877   0.88441   0.00000  Uiso   1.00
H35    H     0.16741   0.91734   0.72150   0.00000  Uiso   1.00
H36    H     0.55823   0.79243   0.35733   0.00000  Uiso   1.00
H37    H     0.57751   0.91901   0.08654   0.00000  Uiso   1.00
O38    O     0.06937   0.83434   0.76609   0.00000  Uiso   1.00
O39    O     0.58212   0.67046   0.28832   0.00000  Uiso   1.00
O40    O     0.60740   0.83653   0.24503   0.00000  Uiso   1.00
N41    N     0.16208   0.76730   0.79032   0.00000  Uiso   1.00
N42    N     0.52746   0.65052   0.44983   0.00000  Uiso   1.00
N43    N     0.54550   0.76886   0.13156   0.00000  Uiso   1.00
N44    N     0.17797   0.87041   0.74219   0.00000  Uiso   1.00
N45    N     0.54335   0.75363   0.40171   0.00000  Uiso   1.00
N46    N     0.56139   0.87197   0.08344   0.00000  Uiso   1.00
C47    C     0.58974   0.28017   0.79485   0.00000  Uiso   1.00
C48    C     0.65425   0.24189   0.78186   0.00000  Uiso   1.00
C49    C     0.71735   0.26713   0.79772   0.00000  Uiso   1.00
C50    C     0.77000   0.22414   0.78174   0.00000  Uiso   1.00
C51    C     0.87172   0.17472   0.76619   0.00000  Uiso   1.00
C52    C     0.55356   0.27407   0.68800   0.00000  Uiso   1.00
C53    C     0.53199   0.32639   0.62497   0.00000  Uiso   1.00
C54    C     0.49987   0.31048   0.52999   0.00000  Uiso   1.00
C55    C     0.44522   0.31104   0.36877   0.00000  Uiso   1.00
C56    C     0.54860   0.24146   0.87589   0.00000  Uiso   1.00
C57    C     0.52284   0.26635   0.97083   0.00000  Uiso   1.00
C58    C     0.48653   0.22299   0.03403   0.00000  Uiso   1.00
C59    C     0.42418   0.17290   0.16454   0.00000  Uiso   1.00
C60    C     0.57105   0.15891   0.73825   0.00000  Uiso   1.00
C61    C     0.64410   0.17602   0.75111   0.00000  Uiso   1.00
C62    C     0.69667   0.13298   0.73511   0.00000  Uiso   1.00
C63    C     0.75983   0.15816   0.75095   0.00000  Uiso   1.00
C64    C     0.54341   0.20821   0.65726   0.00000  Uiso   1.00
C65    C     0.51131   0.19223   0.56235   0.00000  Uiso   1.00
C66    C     0.48970   0.24450   0.49919   0.00000  Uiso   1.00
C67    C     0.53845   0.17559   0.84516   0.00000  Uiso   1.00
C68    C     0.50217   0.13219   0.90822   0.00000  Uiso   1.00
C69    C     0.47636   0.15701   0.00324   0.00000  Uiso   1.00
H70    H     0.59764   0.33145   0.81877   0.00000  Uiso   1.00
H71    H     0.72518   0.31811   0.82150   0.00000  Uiso   1.00
H72    H     0.53984   0.37735   0.64878   0.00000  Uiso   1.00
H73    H     0.53070   0.31732   0.99459   0.00000  Uiso   1.00
H74    H     0.86211   0.27428   0.81093   0.00000  Uiso   1.00
H75    H     0.47129   0.39919   0.44676   0.00000  Uiso   1.00
H76    H     0.45202   0.27261   0.17597   0.00000  Uiso   1.00
H77    H     0.56315   0.10764   0.71432   0.00000  Uiso   1.00
H78    H     0.68881   0.08201   0.71132   0.00000  Uiso   1.00
H79    H     0.50347   0.14126   0.53860   0.00000  Uiso   1.00
H80    H     0.49433   0.08123   0.88441   0.00000  Uiso   1.00
H81    H     0.83259   0.08266   0.72150   0.00000  Uiso   1.00
H82    H     0.44177   0.20757   0.35733   0.00000  Uiso   1.00
H83    H     0.42249   0.08099   0.08654   0.00000  Uiso   1.00
O84    O     0.93063   0.16566   0.76609   0.00000  Uiso   1.00
O85    O     0.41788   0.32954   0.28832   0.00000  Uiso   1.00
O86    O     0.39260   0.16347   0.24503   0.00000  Uiso   1.00
N87    N     0.83792   0.23270   0.79032   0.00000  Uiso   1.00
N88    N     0.47254   0.34948   0.44983   0.00000  Uiso   1.00
N89    N     0.45450   0.23114   0.13156   0.00000  Uiso   1.00
N90    N     0.82203   0.12959   0.74219   0.00000  Uiso   1.00
N91    N     0.45665   0.24637   0.40171   0.00000  Uiso   1.00
N92    N     0.43861   0.12803   0.08344   0.00000  Uiso   1.00
C93    C     0.78017   0.91026   0.79485   0.00000  Uiso   1.00
C94    C     0.74189   0.84575   0.78186   0.00000  Uiso   1.00
C95    C     0.76713   0.78265   0.79772   0.00000  Uiso   1.00
C96    C     0.72414   0.73000   0.78174   0.00000  Uiso   1.00
C97    C     0.67472   0.62828   0.76619   0.00000  Uiso   1.00
C98    C     0.77407   0.94644   0.68800   0.00000  Uiso   1.00
C99    C     0.82639   0.96801   0.62497   0.00000  Uiso   1.00
C100   C     0.81048   0.00013   0.52999   0.00000  Uiso   1.00
C101   C     0.81104   0.05478   0.36877   0.00000  Uiso   1.00
C102   C     0.74146   0.95140   0.87589   0.00000  Uiso   1.00
C103   C     0.76635   0.97716   0.97083   0.00000  Uiso   1.00
C104   C     0.72299   0.01347   0.03403   0.00000  Uiso   1.00
C105   C     0.67290   0.07582   0.16454   0.00000  Uiso   1.00
C106   C     0.65891   0.92895   0.73825   0.00000  Uiso   1.00
C107   C     0.67602   0.85590   0.75111   0.00000  Uiso   1.00
C108   C     0.63298   0.80333   0.73511   0.00000  Uiso   1.00
C109   C     0.65816   0.74017   0.75095   0.00000  Uiso   1.00
C110   C     0.70821   0.95659   0.65726   0.00000  Uiso   1.00
C111   C     0.69223   0.98869   0.56235   0.00000  Uiso   1.00
C112   C     0.74450   0.01030   0.49919   0.00000  Uiso   1.00
C113   C     0.67559   0.96155   0.84516   0.00000  Uiso   1.00
C114   C     0.63219   0.99783   0.90822   0.00000  Uiso   1.00
C115   C     0.65701   0.02364   0.00324   0.00000  Uiso   1.00
H116   H     0.83145   0.90236   0.81877   0.00000  Uiso   1.00
H117   H     0.81811   0.77482   0.82150   0.00000  Uiso   1.00
H118   H     0.87735   0.96016   0.64878   0.00000  Uiso   1.00
H119   H     0.81732   0.96930   0.99459   0.00000  Uiso   1.00
H120   H     0.77428   0.63789   0.81093   0.00000  Uiso   1.00
H121   H     0.89919   0.02871   0.44676   0.00000  Uiso   1.00
H122   H     0.77261   0.04798   0.17597   0.00000  Uiso   1.00
H123   H     0.60764   0.93685   0.71432   0.00000  Uiso   1.00
H124   H     0.58201   0.81119   0.71132   0.00000  Uiso   1.00
H125   H     0.64126   0.99653   0.53860   0.00000  Uiso   1.00
H126   H     0.58123   0.00567   0.88441   0.00000  Uiso   1.00
H127   H     0.58266   0.66741   0.72150   0.00000  Uiso   1.00
H128   H     0.70757   0.05823   0.35733   0.00000  Uiso   1.00
H129   H     0.58099   0.07751   0.08654   0.00000  Uiso   1.00
O130   O     0.66566   0.56937   0.76609   0.00000  Uiso   1.00
O131   O     0.82954   0.08212   0.28832   0.00000  Uiso   1.00
O132   O     0.66347   0.10740   0.24503   0.00000  Uiso   1.00
N133   N     0.73270   0.66208   0.79032   0.00000  Uiso   1.00
N134   N     0.84948   0.02746   0.44983   0.00000  Uiso   1.00
N135   N     0.73114   0.04550   0.13156   0.00000  Uiso   1.00
N136   N     0.62959   0.67797   0.74219   0.00000  Uiso   1.00
N137   N     0.74637   0.04335   0.40171   0.00000  Uiso   1.00
N138   N     0.62803   0.06139   0.08344   0.00000  Uiso   1.00
C139   C     0.21983   0.08974   0.79485   0.00000  Uiso   1.00
C140   C     0.25811   0.15425   0.78186   0.00000  Uiso   1.00
C141   C     0.23287   0.21735   0.79772   0.00000  Uiso   1.00
C142   C     0.27586   0.27000   0.78174   0.00000  Uiso   1.00
C143   C     0.32528   0.37172   0.76619   0.00000  Uiso   1.00
C144   C     0.22593   0.05356   0.68800   0.00000  Uiso   1.00
C145   C     0.17361   0.03199   0.62497   0.00000  Uiso   1.00
C146   C     0.18952   0.99987   0.52999   0.00000  Uiso   1.00
C147   C     0.18896   0.94522   0.36877   0.00000  Uiso   1.00
C148   C     0.25854   0.04860   0.87589   0.00000  Uiso   1.00
C149   C     0.23365   0.02284   0.97083   0.00000  Uiso   1.00
C150   C     0.27701   0.98653   0.03403   0.00000  Uiso   1.00
C151   C     0.32710   0.92418   0.16454   0.00000  Uiso   1.00
C152   C     0.34109   0.07105   0.73825   0.00000  Uiso   1.00
C153   C     0.32398   0.14410   0.75111   0.00000  Uiso   1.00
C154   C     0.36702   0.19667   0.73511   0.00000  Uiso   1.00
C155   C     0.34184   0.25983   0.75095   0.00000  Uiso   1.00
C156   C     0.29179   0.04341   0.65726   0.00000  Uiso   1.00
C157   C     0.30777   0.01131   0.56235   0.00000  Uiso   1.00
C158   C     0.25550   0.98970   0.49919   0.00000  Uiso   1.00
C159   C     0.32441   0.03845   0.84516   0.00000  Uiso   1.00
C160   C     0.36781   0.00217   0.90822   0.00000  Uiso   1.00
C161   C     0.34299   0.97636   0.00324   0.00000  Uiso   1.00
H162   H     0.16855   0.09764   0.81877   0.00000  Uiso   1.00
H163   H     0.18189   0.22518   0.82150   0.00000  Uiso   1.00
H164   H     0.12265   0.03984   0.64878   0.00000  Uiso   1.00
H165   H     0.18268   0.03070   0.99459   0.00000  Uiso   1.00
H166   H     0.22572   0.36211   0.81093   0.00000  Uiso   1.00
H167   H     0.10081   0.97129   0.44676   0.00000  Uiso   1.00
H168   H     0.22739   0.95202   0.17597   0.00000  Uiso   1.00
H169   H     0.39236   0.06315   0.71432   0.00000  Uiso   1.00
H170   H     0.41799   0.18881   0.71132   0.00000  Uiso   1.00
H171   H     0.35874   0.00347   0.53860   0.00000  Uiso   1.00
H172   H     0.41877   0.99433   0.88441   0.00000  Uiso   1.00
H173   H     0.41734   0.33259   0.72150   0.00000  Uiso   1.00
H174   H     0.29243   0.94177   0.35733   0.00000  Uiso   1.00
H175   H     0.41901   0.92249   0.08654   0.00000  Uiso   1.00
O176   O     0.33434   0.43063   0.76609   0.00000  Uiso   1.00
O177   O     0.17046   0.91788   0.28832   0.00000  Uiso   1.00
O178   O     0.33653   0.89260   0.24503   0.00000  Uiso   1.00
N179   N     0.26730   0.33792   0.79032   0.00000  Uiso   1.00
N180   N     0.15052   0.97254   0.44983   0.00000  Uiso   1.00
N181   N     0.26886   0.95450   0.13156   0.00000  Uiso   1.00
N182   N     0.37041   0.32203   0.74219   0.00000  Uiso   1.00
N183   N     0.25363   0.95665   0.40171   0.00000  Uiso   1.00
N184   N     0.37197   0.93861   0.08344   0.00000  Uiso   1.00
C185   C     0.08974   0.78017   0.20515   0.00000  Uiso   1.00
C186   C     0.15425   0.74189   0.21814   0.00000  Uiso   1.00
C187   C     0.21735   0.76713   0.20228   0.00000  Uiso   1.00
C188   C     0.27000   0.72414   0.21826   0.00000  Uiso   1.00
C189   C     0.37172   0.67472   0.23381   0.00000  Uiso   1.00
C190   C     0.05356   0.77407   0.31200   0.00000  Uiso   1.00
C191   C     0.03199   0.82639   0.37503   0.00000  Uiso   1.00
C192   C     0.99987   0.81048   0.47001   0.00000  Uiso   1.00
C193   C     0.94522   0.81104   0.63123   0.00000  Uiso   1.00
C194   C     0.04860   0.74146   0.12411   0.00000  Uiso   1.00
C195   C     0.02284   0.76635   0.02917   0.00000  Uiso   1.00
C196   C     0.98653   0.72299   0.96597   0.00000  Uiso   1.00
C197   C     0.92418   0.67290   0.83546   0.00000  Uiso   1.00
C198   C     0.07105   0.65891   0.26175   0.00000  Uiso   1.00
C199   C     0.14410   0.67602   0.24889   0.00000  Uiso   1.00
C200   C     0.19667   0.63298   0.26489   0.00000  Uiso   1.00
C201   C     0.25983   0.65816   0.24905   0.00000  Uiso   1.00
C202   C     0.04341   0.70821   0.34274   0.00000  Uiso   1.00
C203   C     0.01131   0.69223   0.43765   0.00000  Uiso   1.00
C204   C     0.98970   0.74450   0.50081   0.00000  Uiso   1.00
C205   C     0.03845   0.67559   0.15484   0.00000  Uiso   1.00
C206   C     0.00217   0.63219   0.09178   0.00000  Uiso   1.00
C207   C     0.97636   0.65701   0.99676   0.00000  Uiso   1.00
H208   H     0.09764   0.83145   0.18123   0.00000  Uiso   1.00
H209   H     0.22518   0.81811   0.17850   0.00000  Uiso   1.00
H210   H     0.03984   0.87735   0.35122   0.00000  Uiso   1.00
H211   H     0.03070   0.81732   0.00541   0.00000  Uiso   1.00
H212   H     0.36211   0.77428   0.18907   0.00000  Uiso   1.00
H213   H     0.97129   0.89919   0.55324   0.00000  Uiso   1.00
H214   H     0.95202   0.77261   0.82403   0.00000  Uiso   1.00
H215   H     0.06315   0.60764   0.28568   0.00000  Uiso   1.00
H216   H     0.18881   0.58201   0.28868   0.00000  Uiso   1.00
H217   H     0.00347   0.64126   0.46140   0.00000  Uiso   1.00
H218   H     0.99433   0.58123   0.11559   0.00000  Uiso   1.00
H219   H     0.33259   0.58266   0.27850   0.00000  Uiso   1.00
H220   H     0.94177   0.70757   0.64267   0.00000  Uiso   1.00
H221   H     0.92249   0.58099   0.91346   0.00000  Uiso   1.00
O222   O     0.43063   0.66566   0.23391   0.00000  Uiso   1.00
O223   O     0.91788   0.82954   0.71168   0.00000  Uiso   1.00
O224   O     0.89260   0.66347   0.75497   0.00000  Uiso   1.00
N225   N     0.33792   0.73270   0.20968   0.00000  Uiso   1.00
N226   N     0.97254   0.84948   0.55017   0.00000  Uiso   1.00
N227   N     0.95450   0.73114   0.86844   0.00000  Uiso   1.00
N228   N     0.32203   0.62959   0.25781   0.00000  Uiso   1.00
N229   N     0.95665   0.74637   0.59829   0.00000  Uiso   1.00
N230   N     0.93861   0.62803   0.91656   0.00000  Uiso   1.00
C231   C     0.91026   0.21983   0.20515   0.00000  Uiso   1.00
C232   C     0.84575   0.25811   0.21814   0.00000  Uiso   1.00
C233   C     0.78265   0.23287   0.20228   0.00000  Uiso   1.00
C234   C     0.73000   0.27586   0.21826   0.00000  Uiso   1.00
C235   C     0.62828   0.32528   0.23381   0.00000  Uiso   1.00
C236   C     0.94644   0.22593   0.31200   0.00000  Uiso   1.00
C237   C     0.96801   0.17361   0.37503   0.00000  Uiso   1.00
C238   C     0.00013   0.18952   0.47001   0.00000  Uiso   1.00
C239   C     0.05478   0.18896   0.63123   0.00000  Uiso   1.00
C240   C     0.95140   0.25854   0.12411   0.00000  Uiso   1.00
C241   C     0.97716   0.23365   0.02917   0.00000  Uiso   1.00
C242   C     0.01347   0.27701   0.96597   0.00000  Uiso   1.00
C243   C     0.07582   0.32710   0.83546   0.00000  Uiso   1.00
C244   C     0.92895   0.34109   0.26175   0.00000  Uiso   1.00
C245   C     0.85590   0.32398   0.24889   0.00000  Uiso   1.00
C246   C     0.80333   0.36702   0.26489   0.00000  Uiso   1.00
C247   C     0.74017   0.34184   0.24905   0.00000  Uiso   1.00
C248   C     0.95659   0.29179   0.34274   0.00000  Uiso   1.00
C249   C     0.98869   0.30777   0.43765   0.00000  Uiso   1.00
C250   C     0.01030   0.25550   0.50081   0.00000  Uiso   1.00
C251   C     0.96155   0.32441   0.15484   0.00000  Uiso   1.00
C252   C     0.99783   0.36781   0.09178   0.00000  Uiso   1.00
C253   C     0.02364   0.34299   0.99676   0.00000  Uiso   1.00
H254   H     0.90236   0.16855   0.18123   0.00000  Uiso   1.00
H255   H     0.77482   0.18189   0.17850   0.00000  Uiso   1.00
H256   H     0.96016   0.12265   0.35122   0.00000  Uiso   1.00
H257   H     0.96930   0.18268   0.00541   0.00000  Uiso   1.00
H258   H     0.63789   0.22572   0.18907   0.00000  Uiso   1.00
H259   H     0.02871   0.10081   0.55324   0.00000  Uiso   1.00
H260   H     0.04798   0.22739   0.82403   0.00000  Uiso   1.00
H261   H     0.93685   0.39236   0.28568   0.00000  Uiso   1.00
H262   H     0.81119   0.41799   0.28868   0.00000  Uiso   1.00
H263   H     0.99653   0.35874   0.46140   0.00000  Uiso   1.00
H264   H     0.00567   0.41877   0.11559   0.00000  Uiso   1.00
H265   H     0.66741   0.41734   0.27850   0.00000  Uiso   1.00
H266   H     0.05823   0.29243   0.64267   0.00000  Uiso   1.00
H267   H     0.07751   0.41901   0.91346   0.00000  Uiso   1.00
O268   O     0.56937   0.33434   0.23391   0.00000  Uiso   1.00
O269   O     0.08212   0.17046   0.71168   0.00000  Uiso   1.00
O270   O     0.10740   0.33653   0.75497   0.00000  Uiso   1.00
N271   N     0.66208   0.26730   0.20968   0.00000  Uiso   1.00
N272   N     0.02746   0.15052   0.55017   0.00000  Uiso   1.00
N273   N     0.04550   0.26886   0.86844   0.00000  Uiso   1.00
N274   N     0.67797   0.37041   0.25781   0.00000  Uiso   1.00
N275   N     0.04335   0.25363   0.59829   0.00000  Uiso   1.00
N276   N     0.06139   0.37197   0.91656   0.00000  Uiso   1.00
C277   C     0.71983   0.58974   0.20515   0.00000  Uiso   1.00
C278   C     0.75811   0.65425   0.21814   0.00000  Uiso   1.00
C279   C     0.73287   0.71735   0.20228   0.00000  Uiso   1.00
C280   C     0.77586   0.77000   0.21826   0.00000  Uiso   1.00
C281   C     0.82528   0.87172   0.23381   0.00000  Uiso   1.00
C282   C     0.72593   0.55356   0.31200   0.00000  Uiso   1.00
C283   C     0.67361   0.53199   0.37503   0.00000  Uiso   1.00
C284   C     0.68952   0.49987   0.47001   0.00000  Uiso   1.00
C285   C     0.68896   0.44522   0.63123   0.00000  Uiso   1.00
C286   C     0.75854   0.54860   0.12411   0.00000  Uiso   1.00
C287   C     0.73365   0.52284   0.02917   0.00000  Uiso   1.00
C288   C     0.77701   0.48653   0.96597   0.00000  Uiso   1.00
C289   C     0.82710   0.42418   0.83546   0.00000  Uiso   1.00
C290   C     0.84109   0.57105   0.26175   0.00000  Uiso   1.00
C291   C     0.82398   0.64410   0.24889   0.00000  Uiso   1.00
C292   C     0.86702   0.69667   0.26489   0.00000  Uiso   1.00
C293   C     0.84184   0.75983   0.24905   0.00000  Uiso   1.00
C294   C     0.79179   0.54341   0.34274   0.00000  Uiso   1.00
C295   C     0.80777   0.51131   0.43765   0.00000  Uiso   1.00
C296   C     0.75550   0.48970   0.50081   0.00000  Uiso   1.00
C297   C     0.82441   0.53845   0.15484   0.00000  Uiso   1.00
C298   C     0.86781   0.50217   0.09178   0.00000  Uiso   1.00
C299   C     0.84299   0.47636   0.99676   0.00000  Uiso   1.00
H300   H     0.66855   0.59764   0.18123   0.00000  Uiso   1.00
H301   H     0.68189   0.72518   0.17850   0.00000  Uiso   1.00
H302   H     0.62265   0.53984   0.35122   0.00000  Uiso   1.00
H303   H     0.68268   0.53070   0.00541   0.00000  Uiso   1.00
H304   H     0.72572   0.86211   0.18907   0.00000  Uiso   1.00
H305   H     0.60081   0.47129   0.55324   0.00000  Uiso   1.00
H306   H     0.72739   0.45202   0.82403   0.00000  Uiso   1.00
H307   H     0.89236   0.56315   0.28568   0.00000  Uiso   1.00
H308   H     0.91799   0.68881   0.28868   0.00000  Uiso   1.00
H309   H     0.85874   0.50347   0.46140   0.00000  Uiso   1.00
H310   H     0.91877   0.49433   0.11559   0.00000  Uiso   1.00
H311   H     0.91734   0.83259   0.27850   0.00000  Uiso   1.00
H312   H     0.79243   0.44177   0.64267   0.00000  Uiso   1.00
H313   H     0.91901   0.42249   0.91346   0.00000  Uiso   1.00
O314   O     0.83434   0.93063   0.23391   0.00000  Uiso   1.00
O315   O     0.67046   0.41788   0.71168   0.00000  Uiso   1.00
O316   O     0.83653   0.39260   0.75497   0.00000  Uiso   1.00
N317   N     0.76730   0.83792   0.20968   0.00000  Uiso   1.00
N318   N     0.65052   0.47254   0.55017   0.00000  Uiso   1.00
N319   N     0.76886   0.45450   0.86844   0.00000  Uiso   1.00
N320   N     0.87041   0.82203   0.25781   0.00000  Uiso   1.00
N321   N     0.75363   0.45665   0.59829   0.00000  Uiso   1.00
N322   N     0.87197   0.43861   0.91656   0.00000  Uiso   1.00
C323   C     0.28017   0.41026   0.20515   0.00000  Uiso   1.00
C324   C     0.24189   0.34575   0.21814   0.00000  Uiso   1.00
C325   C     0.26713   0.28265   0.20228   0.00000  Uiso   1.00
C326   C     0.22414   0.23000   0.21826   0.00000  Uiso   1.00
C327   C     0.17472   0.12828   0.23381   0.00000  Uiso   1.00
C328   C     0.27407   0.44644   0.31200   0.00000  Uiso   1.00
C329   C     0.32639   0.46801   0.37503   0.00000  Uiso   1.00
C330   C     0.31048   0.50013   0.47001   0.00000  Uiso   1.00
C331   C     0.31104   0.55478   0.63123   0.00000  Uiso   1.00
C332   C     0.24146   0.45140   0.12411   0.00000  Uiso   1.00
C333   C     0.26635   0.47716   0.02917   0.00000  Uiso   1.00
C334   C     0.22299   0.51347   0.96597   0.00000  Uiso   1.00
C335   C     0.17290   0.57582   0.83546   0.00000  Uiso   1.00
C336   C     0.15891   0.42895   0.26175   0.00000  Uiso   1.00
C337   C     0.17602   0.35590   0.24889   0.00000  Uiso   1.00
C338   C     0.13298   0.30333   0.26489   0.00000  Uiso   1.00
C339   C     0.15816   0.24017   0.24905   0.00000  Uiso   1.00
C340   C     0.20821   0.45659   0.34274   0.00000  Uiso   1.00
C341   C     0.19223   0.48869   0.43765   0.00000  Uiso   1.00
C342   C     0.24450   0.51030   0.50081   0.00000  Uiso   1.00
C343   C     0.17559   0.46155   0.15484   0.00000  Uiso   1.00
C344   C     0.13219   0.49783   0.09178   0.00000  Uiso   1.00
C345   C     0.15701   0.52364   0.99676   0.00000  Uiso   1.00
H346   H     0.33145   0.40236   0.18123   0.00000  Uiso   1.00
H347   H     0.31811   0.27482   0.17850   0.00000  Uiso   1.00
H348   H     0.37735   0.46016   0.35122   0.00000  Uiso   1.00
H349   H     0.31732   0.46930   0.00541   0.00000  Uiso   1.00
H350   H     0.27428   0.13789   0.18907   0.00000  Uiso   1.00
H351   H     0.39919   0.52871   0.55324   0.00000  Uiso   1.00
H352   H     0.27261   0.54798   0.82403   0.00000  Uiso   1.00
H353   H     0.10764   0.43685   0.28568   0.00000  Uiso   1.00
H354   H     0.08201   0.31119   0.28868   0.00000  Uiso   1.00
H355   H     0.14126   0.49653   0.46140   0.00000  Uiso   1.00
H356   H     0.08123   0.50567   0.11559   0.00000  Uiso   1.00
H357   H     0.08266   0.16741   0.27850   0.00000  Uiso   1.00
H358   H     0.20757   0.55823   0.64267   0.00000  Uiso   1.00
H359   H     0.08099   0.57751   0.91346   0.00000  Uiso   1.00
O360   O     0.16566   0.06937   0.23391   0.00000  Uiso   1.00
O361   O     0.32954   0.58212   0.71168   0.00000  Uiso   1.00
O362   O     0.16347   0.60740   0.75497   0.00000  Uiso   1.00
N363   N     0.23270   0.16208   0.20968   0.00000  Uiso   1.00
N364   N     0.34948   0.52746   0.55017   0.00000  Uiso   1.00
N365   N     0.23114   0.54550   0.86844   0.00000  Uiso   1.00
N366   N     0.12959   0.17797   0.25781   0.00000  Uiso   1.00
N367   N     0.24637   0.54335   0.59829   0.00000  Uiso   1.00
N368   N     0.12803   0.56139   0.91656   0.00000  Uiso   1.00
