data_job_01868
_audit_creation_date              2018-12-19
_audit_creation_method            'Materials Studio'
_symmetry_space_group_name_H-M    'P1'
_symmetry_Int_Tables_number       1
_symmetry_cell_setting            triclinic
loop_
_symmetry_equiv_pos_as_xyz
  x,y,z
_cell_length_a                    22.4389
_cell_length_b                    10.4018
_cell_length_c                    39.6018
_cell_angle_alpha                 90.0000
_cell_angle_beta                  90.0000
_cell_angle_gamma                 90.0000
loop_
_atom_site_label
_atom_site_type_symbol
_atom_site_fract_x
_atom_site_fract_y
_atom_site_fract_z
_atom_site_U_iso_or_equiv
_atom_site_adp_type
_atom_site_occupancy
C1     C     0.90472   0.77679   0.66315   0.00000  Uiso   1.00
C2     C     0.96221   0.81729   0.68071   0.00000  Uiso   1.00
C3     C     0.97480   0.93935   0.69293   0.00000  Uiso   1.00
C4     C     0.02991   0.95696   0.70818   0.00000  Uiso   1.00
C5     C     0.11296   0.03521   0.73499   0.00000  Uiso   1.00
C6     C     0.92329   0.72208   0.62901   0.00000  Uiso   1.00
C7     C     0.90315   0.76407   0.59776   0.00000  Uiso   1.00
C8     C     0.92549   0.70150   0.56950   0.00000  Uiso   1.00
C9     C     0.94807   0.63187   0.51604   0.00000  Uiso   1.00
C10    C     0.88038   0.66370   0.68340   0.00000  Uiso   1.00
C11    C     0.82415   0.65658   0.69787   0.00000  Uiso   1.00
C12    C     0.81036   0.54485   0.71539   0.00000  Uiso   1.00
C13    C     0.76632   0.38457   0.74639   0.00000  Uiso   1.00
C14    C     0.98019   0.59101   0.66851   0.00000  Uiso   1.00
C15    C     0.00321   0.71639   0.68362   0.00000  Uiso   1.00
C16    C     0.05831   0.73381   0.69886   0.00000  Uiso   1.00
C17    C     0.07098   0.85587   0.71110   0.00000  Uiso   1.00
C18    C     0.96428   0.62117   0.63192   0.00000  Uiso   1.00
C19    C     0.98665   0.55853   0.60369   0.00000  Uiso   1.00
C20    C     0.96656   0.60041   0.57241   0.00000  Uiso   1.00
C21    C     0.92137   0.56279   0.68631   0.00000  Uiso   1.00
C22    C     0.90766   0.45104   0.70381   0.00000  Uiso   1.00
C23    C     0.85143   0.44376   0.71831   0.00000  Uiso   1.00
H24    H     0.87280   0.85535   0.66088   0.00000  Uiso   1.00
H25    H     0.94307   0.01742   0.69067   0.00000  Uiso   1.00
H26    H     0.87142   0.84215   0.59552   0.00000  Uiso   1.00
H27    H     0.79244   0.73468   0.69562   0.00000  Uiso   1.00
H28    H     0.03906   0.15261   0.72496   0.00000  Uiso   1.00
H29    H     0.88797   0.78302   0.52434   0.00000  Uiso   1.00
H30    H     0.72142   0.55640   0.73542   0.00000  Uiso   1.00
H31    H     0.01211   0.51245   0.67077   0.00000  Uiso   1.00
H32    H     0.09003   0.65570   0.70110   0.00000  Uiso   1.00
H33    H     0.01838   0.48044   0.60595   0.00000  Uiso   1.00
H34    H     0.93940   0.37297   0.70605   0.00000  Uiso   1.00
H35    H     0.15834   0.85904   0.73343   0.00000  Uiso   1.00
H36    H     0.00724   0.48944   0.53281   0.00000  Uiso   1.00
H37    H     0.84070   0.26283   0.74389   0.00000  Uiso   1.00
O38    O     0.14745   0.10626   0.74896   0.00000  Uiso   1.00
O39    O     0.94921   0.62135   0.48575   0.00000  Uiso   1.00
O40    O     0.73071   0.32405   0.76268   0.00000  Uiso   1.00
N41    N     0.05644   0.06385   0.72280   0.00000  Uiso   1.00
N42    N     0.91518   0.71832   0.53523   0.00000  Uiso   1.00
N43    N     0.75947   0.50644   0.73256   0.00000  Uiso   1.00
N44    N     0.12062   0.90588   0.72736   0.00000  Uiso   1.00
N45    N     0.97936   0.56035   0.53979   0.00000  Uiso   1.00
N46    N     0.82365   0.34847   0.73712   0.00000  Uiso   1.00
C47    C     0.59528   0.72321   0.16315   0.00000  Uiso   1.00
C48    C     0.53779   0.68271   0.18071   0.00000  Uiso   1.00
C49    C     0.52520   0.56065   0.19293   0.00000  Uiso   1.00
C50    C     0.47009   0.54304   0.20818   0.00000  Uiso   1.00
C51    C     0.38704   0.46479   0.23499   0.00000  Uiso   1.00
C52    C     0.57671   0.77792   0.12901   0.00000  Uiso   1.00
C53    C     0.59685   0.73593   0.09776   0.00000  Uiso   1.00
C54    C     0.57451   0.79850   0.06950   0.00000  Uiso   1.00
C55    C     0.55193   0.86813   0.01604   0.00000  Uiso   1.00
C56    C     0.61962   0.83630   0.18340   0.00000  Uiso   1.00
C57    C     0.67585   0.84342   0.19787   0.00000  Uiso   1.00
C58    C     0.68964   0.95515   0.21539   0.00000  Uiso   1.00
C59    C     0.73368   0.11543   0.24639   0.00000  Uiso   1.00
C60    C     0.51981   0.90899   0.16851   0.00000  Uiso   1.00
C61    C     0.49679   0.78361   0.18362   0.00000  Uiso   1.00
C62    C     0.44169   0.76619   0.19886   0.00000  Uiso   1.00
C63    C     0.42902   0.64413   0.21110   0.00000  Uiso   1.00
C64    C     0.53572   0.87883   0.13192   0.00000  Uiso   1.00
C65    C     0.51335   0.94147   0.10369   0.00000  Uiso   1.00
C66    C     0.53344   0.89959   0.07241   0.00000  Uiso   1.00
C67    C     0.57863   0.93721   0.18631   0.00000  Uiso   1.00
C68    C     0.59234   0.04896   0.20381   0.00000  Uiso   1.00
C69    C     0.64857   0.05624   0.21831   0.00000  Uiso   1.00
H70    H     0.62720   0.64465   0.16088   0.00000  Uiso   1.00
H71    H     0.55693   0.48258   0.19067   0.00000  Uiso   1.00
H72    H     0.62858   0.65785   0.09552   0.00000  Uiso   1.00
H73    H     0.70756   0.76532   0.19562   0.00000  Uiso   1.00
H74    H     0.46094   0.34739   0.22496   0.00000  Uiso   1.00
H75    H     0.61203   0.71698   0.02434   0.00000  Uiso   1.00
H76    H     0.77858   0.94360   0.23542   0.00000  Uiso   1.00
H77    H     0.48789   0.98755   0.17077   0.00000  Uiso   1.00
H78    H     0.40997   0.84430   0.20110   0.00000  Uiso   1.00
H79    H     0.48162   0.01956   0.10595   0.00000  Uiso   1.00
H80    H     0.56060   0.12703   0.20605   0.00000  Uiso   1.00
H81    H     0.34166   0.64096   0.23343   0.00000  Uiso   1.00
H82    H     0.49276   0.01056   0.03281   0.00000  Uiso   1.00
H83    H     0.65930   0.23717   0.24389   0.00000  Uiso   1.00
O84    O     0.35255   0.39374   0.24896   0.00000  Uiso   1.00
O85    O     0.55079   0.87865   0.98575   0.00000  Uiso   1.00
O86    O     0.76929   0.17595   0.26268   0.00000  Uiso   1.00
N87    N     0.44356   0.43615   0.22280   0.00000  Uiso   1.00
N88    N     0.58482   0.78168   0.03523   0.00000  Uiso   1.00
N89    N     0.74053   0.99356   0.23256   0.00000  Uiso   1.00
N90    N     0.37938   0.59412   0.22736   0.00000  Uiso   1.00
N91    N     0.52064   0.93965   0.03979   0.00000  Uiso   1.00
N92    N     0.67635   0.15153   0.23712   0.00000  Uiso   1.00
C93    C     0.09528   0.77679   0.83685   0.00000  Uiso   1.00
C94    C     0.03779   0.81729   0.81929   0.00000  Uiso   1.00
C95    C     0.02520   0.93935   0.80707   0.00000  Uiso   1.00
C96    C     0.97009   0.95696   0.79182   0.00000  Uiso   1.00
C97    C     0.88704   0.03521   0.76501   0.00000  Uiso   1.00
C98    C     0.07671   0.72208   0.87099   0.00000  Uiso   1.00
C99    C     0.09685   0.76407   0.90224   0.00000  Uiso   1.00
C100   C     0.07451   0.70150   0.93050   0.00000  Uiso   1.00
C101   C     0.05193   0.63187   0.98396   0.00000  Uiso   1.00
C102   C     0.11962   0.66370   0.81660   0.00000  Uiso   1.00
C103   C     0.17585   0.65658   0.80213   0.00000  Uiso   1.00
C104   C     0.18964   0.54485   0.78461   0.00000  Uiso   1.00
C105   C     0.23368   0.38457   0.75361   0.00000  Uiso   1.00
C106   C     0.01981   0.59101   0.83149   0.00000  Uiso   1.00
C107   C     0.99679   0.71639   0.81638   0.00000  Uiso   1.00
C108   C     0.94169   0.73381   0.80114   0.00000  Uiso   1.00
C109   C     0.92902   0.85587   0.78890   0.00000  Uiso   1.00
C110   C     0.03572   0.62117   0.86808   0.00000  Uiso   1.00
C111   C     0.01335   0.55853   0.89631   0.00000  Uiso   1.00
C112   C     0.03344   0.60041   0.92759   0.00000  Uiso   1.00
C113   C     0.07863   0.56279   0.81369   0.00000  Uiso   1.00
C114   C     0.09234   0.45104   0.79619   0.00000  Uiso   1.00
C115   C     0.14857   0.44376   0.78169   0.00000  Uiso   1.00
H116   H     0.12720   0.85535   0.83912   0.00000  Uiso   1.00
H117   H     0.05693   0.01742   0.80933   0.00000  Uiso   1.00
H118   H     0.12858   0.84215   0.90448   0.00000  Uiso   1.00
H119   H     0.20756   0.73468   0.80438   0.00000  Uiso   1.00
H120   H     0.96094   0.15261   0.77504   0.00000  Uiso   1.00
H121   H     0.11203   0.78302   0.97566   0.00000  Uiso   1.00
H122   H     0.27858   0.55640   0.76458   0.00000  Uiso   1.00
H123   H     0.98789   0.51245   0.82923   0.00000  Uiso   1.00
H124   H     0.90997   0.65570   0.79890   0.00000  Uiso   1.00
H125   H     0.98162   0.48044   0.89405   0.00000  Uiso   1.00
H126   H     0.06060   0.37297   0.79395   0.00000  Uiso   1.00
H127   H     0.84166   0.85904   0.76657   0.00000  Uiso   1.00
H128   H     0.99276   0.48944   0.96719   0.00000  Uiso   1.00
H129   H     0.15930   0.26283   0.75611   0.00000  Uiso   1.00
O130   O     0.85255   0.10626   0.75104   0.00000  Uiso   1.00
O131   O     0.05079   0.62135   0.01425   0.00000  Uiso   1.00
O132   O     0.26929   0.32405   0.73732   0.00000  Uiso   1.00
N133   N     0.94356   0.06385   0.77720   0.00000  Uiso   1.00
N134   N     0.08482   0.71832   0.96477   0.00000  Uiso   1.00
N135   N     0.24053   0.50644   0.76744   0.00000  Uiso   1.00
N136   N     0.87938   0.90588   0.77264   0.00000  Uiso   1.00
N137   N     0.02064   0.56035   0.96021   0.00000  Uiso   1.00
N138   N     0.17635   0.34847   0.76288   0.00000  Uiso   1.00
C139   C     0.40472   0.72321   0.33685   0.00000  Uiso   1.00
C140   C     0.46221   0.68271   0.31929   0.00000  Uiso   1.00
C141   C     0.47480   0.56065   0.30707   0.00000  Uiso   1.00
C142   C     0.52991   0.54304   0.29182   0.00000  Uiso   1.00
C143   C     0.61296   0.46479   0.26501   0.00000  Uiso   1.00
C144   C     0.42329   0.77792   0.37099   0.00000  Uiso   1.00
C145   C     0.40315   0.73593   0.40224   0.00000  Uiso   1.00
C146   C     0.42549   0.79850   0.43050   0.00000  Uiso   1.00
C147   C     0.44807   0.86813   0.48396   0.00000  Uiso   1.00
C148   C     0.38038   0.83630   0.31660   0.00000  Uiso   1.00
C149   C     0.32415   0.84342   0.30213   0.00000  Uiso   1.00
C150   C     0.31036   0.95515   0.28461   0.00000  Uiso   1.00
C151   C     0.26632   0.11543   0.25361   0.00000  Uiso   1.00
C152   C     0.48019   0.90899   0.33149   0.00000  Uiso   1.00
C153   C     0.50321   0.78361   0.31638   0.00000  Uiso   1.00
C154   C     0.55831   0.76619   0.30114   0.00000  Uiso   1.00
C155   C     0.57098   0.64413   0.28890   0.00000  Uiso   1.00
C156   C     0.46428   0.87883   0.36808   0.00000  Uiso   1.00
C157   C     0.48665   0.94147   0.39631   0.00000  Uiso   1.00
C158   C     0.46656   0.89959   0.42759   0.00000  Uiso   1.00
C159   C     0.42137   0.93721   0.31369   0.00000  Uiso   1.00
C160   C     0.40766   0.04896   0.29619   0.00000  Uiso   1.00
C161   C     0.35143   0.05624   0.28169   0.00000  Uiso   1.00
H162   H     0.37280   0.64465   0.33912   0.00000  Uiso   1.00
H163   H     0.44307   0.48258   0.30933   0.00000  Uiso   1.00
H164   H     0.37142   0.65785   0.40448   0.00000  Uiso   1.00
H165   H     0.29244   0.76532   0.30438   0.00000  Uiso   1.00
H166   H     0.53906   0.34739   0.27504   0.00000  Uiso   1.00
H167   H     0.38797   0.71698   0.47566   0.00000  Uiso   1.00
H168   H     0.22142   0.94360   0.26458   0.00000  Uiso   1.00
H169   H     0.51211   0.98755   0.32923   0.00000  Uiso   1.00
H170   H     0.59003   0.84430   0.29890   0.00000  Uiso   1.00
H171   H     0.51838   0.01956   0.39405   0.00000  Uiso   1.00
H172   H     0.43940   0.12703   0.29395   0.00000  Uiso   1.00
H173   H     0.65834   0.64096   0.26657   0.00000  Uiso   1.00
H174   H     0.50724   0.01056   0.46719   0.00000  Uiso   1.00
H175   H     0.34070   0.23717   0.25611   0.00000  Uiso   1.00
O176   O     0.64745   0.39374   0.25104   0.00000  Uiso   1.00
O177   O     0.44921   0.87865   0.51425   0.00000  Uiso   1.00
O178   O     0.23071   0.17595   0.23732   0.00000  Uiso   1.00
N179   N     0.55644   0.43615   0.27720   0.00000  Uiso   1.00
N180   N     0.41518   0.78168   0.46477   0.00000  Uiso   1.00
N181   N     0.25947   0.99356   0.26744   0.00000  Uiso   1.00
N182   N     0.62062   0.59412   0.27264   0.00000  Uiso   1.00
N183   N     0.47936   0.93965   0.46021   0.00000  Uiso   1.00
N184   N     0.32365   0.15153   0.26288   0.00000  Uiso   1.00
C185   C     0.09528   0.22321   0.33685   0.00000  Uiso   1.00
C186   C     0.03779   0.18271   0.31929   0.00000  Uiso   1.00
C187   C     0.02520   0.06065   0.30707   0.00000  Uiso   1.00
C188   C     0.97009   0.04304   0.29182   0.00000  Uiso   1.00
C189   C     0.88704   0.96479   0.26501   0.00000  Uiso   1.00
C190   C     0.07671   0.27792   0.37099   0.00000  Uiso   1.00
C191   C     0.09685   0.23593   0.40224   0.00000  Uiso   1.00
C192   C     0.07451   0.29850   0.43050   0.00000  Uiso   1.00
C193   C     0.05193   0.36813   0.48396   0.00000  Uiso   1.00
C194   C     0.11962   0.33630   0.31660   0.00000  Uiso   1.00
C195   C     0.17585   0.34342   0.30213   0.00000  Uiso   1.00
C196   C     0.18964   0.45515   0.28461   0.00000  Uiso   1.00
C197   C     0.23368   0.61543   0.25361   0.00000  Uiso   1.00
C198   C     0.01981   0.40899   0.33149   0.00000  Uiso   1.00
C199   C     0.99679   0.28361   0.31638   0.00000  Uiso   1.00
C200   C     0.94169   0.26619   0.30114   0.00000  Uiso   1.00
C201   C     0.92902   0.14413   0.28890   0.00000  Uiso   1.00
C202   C     0.03572   0.37883   0.36808   0.00000  Uiso   1.00
C203   C     0.01335   0.44147   0.39631   0.00000  Uiso   1.00
C204   C     0.03344   0.39959   0.42759   0.00000  Uiso   1.00
C205   C     0.07863   0.43721   0.31369   0.00000  Uiso   1.00
C206   C     0.09234   0.54896   0.29619   0.00000  Uiso   1.00
C207   C     0.14857   0.55624   0.28169   0.00000  Uiso   1.00
H208   H     0.12720   0.14465   0.33912   0.00000  Uiso   1.00
H209   H     0.05693   0.98258   0.30933   0.00000  Uiso   1.00
H210   H     0.12858   0.15785   0.40448   0.00000  Uiso   1.00
H211   H     0.20756   0.26532   0.30438   0.00000  Uiso   1.00
H212   H     0.96094   0.84739   0.27504   0.00000  Uiso   1.00
H213   H     0.11203   0.21698   0.47566   0.00000  Uiso   1.00
H214   H     0.27858   0.44360   0.26458   0.00000  Uiso   1.00
H215   H     0.98789   0.48755   0.32923   0.00000  Uiso   1.00
H216   H     0.90997   0.34430   0.29890   0.00000  Uiso   1.00
H217   H     0.98162   0.51956   0.39405   0.00000  Uiso   1.00
H218   H     0.06060   0.62703   0.29395   0.00000  Uiso   1.00
H219   H     0.84166   0.14096   0.26657   0.00000  Uiso   1.00
H220   H     0.99276   0.51056   0.46719   0.00000  Uiso   1.00
H221   H     0.15930   0.73717   0.25611   0.00000  Uiso   1.00
O222   O     0.85255   0.89374   0.25104   0.00000  Uiso   1.00
O223   O     0.05079   0.37865   0.51425   0.00000  Uiso   1.00
O224   O     0.26929   0.67595   0.23732   0.00000  Uiso   1.00
N225   N     0.94356   0.93615   0.27720   0.00000  Uiso   1.00
N226   N     0.08482   0.28168   0.46477   0.00000  Uiso   1.00
N227   N     0.24053   0.49356   0.26744   0.00000  Uiso   1.00
N228   N     0.87938   0.09412   0.27264   0.00000  Uiso   1.00
N229   N     0.02064   0.43965   0.46021   0.00000  Uiso   1.00
N230   N     0.17635   0.65153   0.26288   0.00000  Uiso   1.00
C231   C     0.40472   0.27679   0.83685   0.00000  Uiso   1.00
C232   C     0.46221   0.31729   0.81929   0.00000  Uiso   1.00
C233   C     0.47480   0.43935   0.80707   0.00000  Uiso   1.00
C234   C     0.52991   0.45696   0.79182   0.00000  Uiso   1.00
C235   C     0.61296   0.53521   0.76501   0.00000  Uiso   1.00
C236   C     0.42329   0.22208   0.87099   0.00000  Uiso   1.00
C237   C     0.40315   0.26407   0.90224   0.00000  Uiso   1.00
C238   C     0.42549   0.20150   0.93050   0.00000  Uiso   1.00
C239   C     0.44807   0.13187   0.98396   0.00000  Uiso   1.00
C240   C     0.38038   0.16370   0.81660   0.00000  Uiso   1.00
C241   C     0.32415   0.15658   0.80213   0.00000  Uiso   1.00
C242   C     0.31036   0.04485   0.78461   0.00000  Uiso   1.00
C243   C     0.26632   0.88457   0.75361   0.00000  Uiso   1.00
C244   C     0.48019   0.09101   0.83149   0.00000  Uiso   1.00
C245   C     0.50321   0.21639   0.81638   0.00000  Uiso   1.00
C246   C     0.55831   0.23381   0.80114   0.00000  Uiso   1.00
C247   C     0.57098   0.35587   0.78890   0.00000  Uiso   1.00
C248   C     0.46428   0.12117   0.86808   0.00000  Uiso   1.00
C249   C     0.48665   0.05853   0.89631   0.00000  Uiso   1.00
C250   C     0.46656   0.10041   0.92759   0.00000  Uiso   1.00
C251   C     0.42137   0.06279   0.81369   0.00000  Uiso   1.00
C252   C     0.40766   0.95104   0.79619   0.00000  Uiso   1.00
C253   C     0.35143   0.94376   0.78169   0.00000  Uiso   1.00
H254   H     0.37280   0.35535   0.83912   0.00000  Uiso   1.00
H255   H     0.44307   0.51742   0.80933   0.00000  Uiso   1.00
H256   H     0.37142   0.34215   0.90448   0.00000  Uiso   1.00
H257   H     0.29244   0.23468   0.80438   0.00000  Uiso   1.00
H258   H     0.53906   0.65261   0.77504   0.00000  Uiso   1.00
H259   H     0.38797   0.28302   0.97566   0.00000  Uiso   1.00
H260   H     0.22142   0.05640   0.76458   0.00000  Uiso   1.00
H261   H     0.51211   0.01245   0.82923   0.00000  Uiso   1.00
H262   H     0.59003   0.15570   0.79890   0.00000  Uiso   1.00
H263   H     0.51838   0.98044   0.89405   0.00000  Uiso   1.00
H264   H     0.43940   0.87297   0.79395   0.00000  Uiso   1.00
H265   H     0.65834   0.35904   0.76657   0.00000  Uiso   1.00
H266   H     0.50724   0.98944   0.96719   0.00000  Uiso   1.00
H267   H     0.34070   0.76283   0.75611   0.00000  Uiso   1.00
O268   O     0.64745   0.60626   0.75104   0.00000  Uiso   1.00
O269   O     0.44921   0.12135   0.01425   0.00000  Uiso   1.00
O270   O     0.23071   0.82405   0.73732   0.00000  Uiso   1.00
N271   N     0.55644   0.56385   0.77720   0.00000  Uiso   1.00
N272   N     0.41518   0.21832   0.96477   0.00000  Uiso   1.00
N273   N     0.25947   0.00644   0.76744   0.00000  Uiso   1.00
N274   N     0.62062   0.40588   0.77264   0.00000  Uiso   1.00
N275   N     0.47936   0.06035   0.96021   0.00000  Uiso   1.00
N276   N     0.32365   0.84847   0.76288   0.00000  Uiso   1.00
C277   C     0.90472   0.22321   0.16315   0.00000  Uiso   1.00
C278   C     0.96221   0.18271   0.18071   0.00000  Uiso   1.00
C279   C     0.97480   0.06065   0.19293   0.00000  Uiso   1.00
C280   C     0.02991   0.04304   0.20818   0.00000  Uiso   1.00
C281   C     0.11296   0.96479   0.23499   0.00000  Uiso   1.00
C282   C     0.92329   0.27792   0.12901   0.00000  Uiso   1.00
C283   C     0.90315   0.23593   0.09776   0.00000  Uiso   1.00
C284   C     0.92549   0.29850   0.06950   0.00000  Uiso   1.00
C285   C     0.94807   0.36813   0.01604   0.00000  Uiso   1.00
C286   C     0.88038   0.33630   0.18340   0.00000  Uiso   1.00
C287   C     0.82415   0.34342   0.19787   0.00000  Uiso   1.00
C288   C     0.81036   0.45515   0.21539   0.00000  Uiso   1.00
C289   C     0.76632   0.61543   0.24639   0.00000  Uiso   1.00
C290   C     0.98019   0.40899   0.16851   0.00000  Uiso   1.00
C291   C     0.00321   0.28361   0.18362   0.00000  Uiso   1.00
C292   C     0.05831   0.26619   0.19886   0.00000  Uiso   1.00
C293   C     0.07098   0.14413   0.21110   0.00000  Uiso   1.00
C294   C     0.96428   0.37883   0.13192   0.00000  Uiso   1.00
C295   C     0.98665   0.44147   0.10369   0.00000  Uiso   1.00
C296   C     0.96656   0.39959   0.07241   0.00000  Uiso   1.00
C297   C     0.92137   0.43721   0.18631   0.00000  Uiso   1.00
C298   C     0.90766   0.54896   0.20381   0.00000  Uiso   1.00
C299   C     0.85143   0.55624   0.21831   0.00000  Uiso   1.00
H300   H     0.87280   0.14465   0.16088   0.00000  Uiso   1.00
H301   H     0.94307   0.98258   0.19067   0.00000  Uiso   1.00
H302   H     0.87142   0.15785   0.09552   0.00000  Uiso   1.00
H303   H     0.79244   0.26532   0.19562   0.00000  Uiso   1.00
H304   H     0.03906   0.84739   0.22496   0.00000  Uiso   1.00
H305   H     0.88797   0.21698   0.02434   0.00000  Uiso   1.00
H306   H     0.72142   0.44360   0.23542   0.00000  Uiso   1.00
H307   H     0.01211   0.48755   0.17077   0.00000  Uiso   1.00
H308   H     0.09003   0.34430   0.20110   0.00000  Uiso   1.00
H309   H     0.01838   0.51956   0.10595   0.00000  Uiso   1.00
H310   H     0.93940   0.62703   0.20605   0.00000  Uiso   1.00
H311   H     0.15834   0.14096   0.23343   0.00000  Uiso   1.00
H312   H     0.00724   0.51056   0.03281   0.00000  Uiso   1.00
H313   H     0.84070   0.73717   0.24389   0.00000  Uiso   1.00
O314   O     0.14745   0.89374   0.24896   0.00000  Uiso   1.00
O315   O     0.94921   0.37865   0.98575   0.00000  Uiso   1.00
O316   O     0.73071   0.67595   0.26268   0.00000  Uiso   1.00
N317   N     0.05644   0.93615   0.22280   0.00000  Uiso   1.00
N318   N     0.91518   0.28168   0.03523   0.00000  Uiso   1.00
N319   N     0.75947   0.49356   0.23256   0.00000  Uiso   1.00
N320   N     0.12062   0.09412   0.22736   0.00000  Uiso   1.00
N321   N     0.97936   0.43965   0.03979   0.00000  Uiso   1.00
N322   N     0.82365   0.65153   0.23712   0.00000  Uiso   1.00
C323   C     0.59528   0.27679   0.66315   0.00000  Uiso   1.00
C324   C     0.53779   0.31729   0.68071   0.00000  Uiso   1.00
C325   C     0.52520   0.43935   0.69293   0.00000  Uiso   1.00
C326   C     0.47009   0.45696   0.70818   0.00000  Uiso   1.00
C327   C     0.38704   0.53521   0.73499   0.00000  Uiso   1.00
C328   C     0.57671   0.22208   0.62901   0.00000  Uiso   1.00
C329   C     0.59685   0.26407   0.59776   0.00000  Uiso   1.00
C330   C     0.57451   0.20150   0.56950   0.00000  Uiso   1.00
C331   C     0.55193   0.13187   0.51604   0.00000  Uiso   1.00
C332   C     0.61962   0.16370   0.68340   0.00000  Uiso   1.00
C333   C     0.67585   0.15658   0.69787   0.00000  Uiso   1.00
C334   C     0.68964   0.04485   0.71539   0.00000  Uiso   1.00
C335   C     0.73368   0.88457   0.74639   0.00000  Uiso   1.00
C336   C     0.51981   0.09101   0.66851   0.00000  Uiso   1.00
C337   C     0.49679   0.21639   0.68362   0.00000  Uiso   1.00
C338   C     0.44169   0.23381   0.69886   0.00000  Uiso   1.00
C339   C     0.42902   0.35587   0.71110   0.00000  Uiso   1.00
C340   C     0.53572   0.12117   0.63192   0.00000  Uiso   1.00
C341   C     0.51335   0.05853   0.60369   0.00000  Uiso   1.00
C342   C     0.53344   0.10041   0.57241   0.00000  Uiso   1.00
C343   C     0.57863   0.06279   0.68631   0.00000  Uiso   1.00
C344   C     0.59234   0.95104   0.70381   0.00000  Uiso   1.00
C345   C     0.64857   0.94376   0.71831   0.00000  Uiso   1.00
H346   H     0.62720   0.35535   0.66088   0.00000  Uiso   1.00
H347   H     0.55693   0.51742   0.69067   0.00000  Uiso   1.00
H348   H     0.62858   0.34215   0.59552   0.00000  Uiso   1.00
H349   H     0.70756   0.23468   0.69562   0.00000  Uiso   1.00
H350   H     0.46094   0.65261   0.72496   0.00000  Uiso   1.00
H351   H     0.61203   0.28302   0.52434   0.00000  Uiso   1.00
H352   H     0.77858   0.05640   0.73542   0.00000  Uiso   1.00
H353   H     0.48789   0.01245   0.67077   0.00000  Uiso   1.00
H354   H     0.40997   0.15570   0.70110   0.00000  Uiso   1.00
H355   H     0.48162   0.98044   0.60595   0.00000  Uiso   1.00
H356   H     0.56060   0.87297   0.70605   0.00000  Uiso   1.00
H357   H     0.34166   0.35904   0.73343   0.00000  Uiso   1.00
H358   H     0.49276   0.98944   0.53281   0.00000  Uiso   1.00
H359   H     0.65930   0.76283   0.74389   0.00000  Uiso   1.00
O360   O     0.35255   0.60626   0.74896   0.00000  Uiso   1.00
O361   O     0.55079   0.12135   0.48575   0.00000  Uiso   1.00
O362   O     0.76929   0.82405   0.76268   0.00000  Uiso   1.00
N363   N     0.44356   0.56385   0.72280   0.00000  Uiso   1.00
N364   N     0.58482   0.21832   0.53523   0.00000  Uiso   1.00
N365   N     0.74053   0.00644   0.73256   0.00000  Uiso   1.00
N366   N     0.37938   0.40588   0.72736   0.00000  Uiso   1.00
N367   N     0.52064   0.06035   0.53979   0.00000  Uiso   1.00
N368   N     0.67635   0.84847   0.73712   0.00000  Uiso   1.00
