data_job_06829
_audit_creation_date              2018-12-19
_audit_creation_method            'Materials Studio'
_symmetry_space_group_name_H-M    'P1'
_symmetry_Int_Tables_number       1
_symmetry_cell_setting            triclinic
loop_
_symmetry_equiv_pos_as_xyz
  x,y,z
_cell_length_a                    20.9636
_cell_length_b                    22.6804
_cell_length_c                    22.8014
_cell_angle_alpha                 61.7458
_cell_angle_beta                  82.5471
_cell_angle_gamma                 110.6305
loop_
_atom_site_label
_atom_site_type_symbol
_atom_site_fract_x
_atom_site_fract_y
_atom_site_fract_z
_atom_site_U_iso_or_equiv
_atom_site_adp_type
_atom_site_occupancy
C1     C     0.57772   0.18918   0.02294   0.00000  Uiso   1.00
C2     C     0.60719   0.20704   0.94853   0.00000  Uiso   1.00
C3     C     0.56637   0.20040   0.90662   0.00000  Uiso   1.00
C4     C     0.60348   0.21948   0.84011   0.00000  Uiso   1.00
C5     C     0.63779   0.24340   0.72818   0.00000  Uiso   1.00
C6     C     0.59851   0.13044   0.07138   0.00000  Uiso   1.00
C7     C     0.55038   0.05940   0.13277   0.00000  Uiso   1.00
C8     C     0.58017   0.01400   0.16968   0.00000  Uiso   1.00
C9     C     0.60100   0.91902   0.24852   0.00000  Uiso   1.00
C10    C     0.62238   0.26137   0.01903   0.00000  Uiso   1.00
C11    C     0.59432   0.30041   0.03642   0.00000  Uiso   1.00
C12    C     0.64422   0.36524   0.02927   0.00000  Uiso   1.00
C13    C     0.70212   0.47354   0.02683   0.00000  Uiso   1.00
C14    C     0.71622   0.23488   0.97934   0.00000  Uiso   1.00
C15    C     0.68242   0.23186   0.92485   0.00000  Uiso   1.00
C16    C     0.71960   0.25096   0.85838   0.00000  Uiso   1.00
C17    C     0.67884   0.24435   0.81638   0.00000  Uiso   1.00
C18    C     0.67373   0.15526   0.04770   0.00000  Uiso   1.00
C19    C     0.70361   0.10996   0.08453   0.00000  Uiso   1.00
C20    C     0.65554   0.03887   0.14596   0.00000  Uiso   1.00
C21    C     0.69761   0.28619   0.99535   0.00000  Uiso   1.00
C22    C     0.74756   0.35097   0.98818   0.00000  Uiso   1.00
C23    C     0.71959   0.39010   0.00555   0.00000  Uiso   1.00
H24    H     0.51916   0.16985   0.04137   0.00000  Uiso   1.00
H25    H     0.50815   0.18118   0.92496   0.00000  Uiso   1.00
H26    H     0.49216   0.04021   0.15108   0.00000  Uiso   1.00
H27    H     0.53611   0.28118   0.05474   0.00000  Uiso   1.00
H28    H     0.52912   0.20466   0.78547   0.00000  Uiso   1.00
H29    H     0.49541   0.90742   0.26227   0.00000  Uiso   1.00
H30    H     0.58807   0.41556   0.05912   0.00000  Uiso   1.00
H31    H     0.77479   0.25420   0.96091   0.00000  Uiso   1.00
H32    H     0.77782   0.27017   0.84007   0.00000  Uiso   1.00
H33    H     0.76183   0.12919   0.06620   0.00000  Uiso   1.00
H34    H     0.80577   0.37016   0.96986   0.00000  Uiso   1.00
H35    H     0.74799   0.27688   0.71657   0.00000  Uiso   1.00
H36    H     0.71428   0.97964   0.19337   0.00000  Uiso   1.00
H37    H     0.80694   0.48778   0.99022   0.00000  Uiso   1.00
O38    O     0.63593   0.24972   0.67300   0.00000  Uiso   1.00
O39    O     0.59170   0.85977   0.29854   0.00000  Uiso   1.00
O40    O     0.71327   0.52643   0.03202   0.00000  Uiso   1.00
N41    N     0.58022   0.21948   0.78583   0.00000  Uiso   1.00
N42    N     0.54870   0.94158   0.23160   0.00000  Uiso   1.00
N43    N     0.63533   0.41663   0.04170   0.00000  Uiso   1.00
N44    N     0.69799   0.25834   0.74876   0.00000  Uiso   1.00
N45    N     0.66648   0.98044   0.19453   0.00000  Uiso   1.00
N46    N     0.75310   0.45549   0.00462   0.00000  Uiso   1.00
C47    C     0.74942   0.14533   0.41855   0.00000  Uiso   1.00
C48    C     0.67164   0.07987   0.46163   0.00000  Uiso   1.00
C49    C     0.65198   0.00564   0.51497   0.00000  Uiso   1.00
C50    C     0.57793   0.95412   0.54802   0.00000  Uiso   1.00
C51    C     0.46515   0.84913   0.61786   0.00000  Uiso   1.00
C52    C     0.75951   0.17642   0.34039   0.00000  Uiso   1.00
C53    C     0.81375   0.18337   0.29180   0.00000  Uiso   1.00
C54    C     0.81367   0.21314   0.22279   0.00000  Uiso   1.00
C55    C     0.83734   0.25809   0.10440   0.00000  Uiso   1.00
C56    C     0.75093   0.20746   0.42884   0.00000  Uiso   1.00
C57    C     0.79796   0.24053   0.45461   0.00000  Uiso   1.00
C58    C     0.79067   0.29645   0.46005   0.00000  Uiso   1.00
C59    C     0.80101   0.38960   0.47899   0.00000  Uiso   1.00
C60    C     0.65287   0.18584   0.38238   0.00000  Uiso   1.00
C61    C     0.61920   0.10187   0.44198   0.00000  Uiso   1.00
C62    C     0.54516   0.05046   0.47495   0.00000  Uiso   1.00
C63    C     0.52539   0.97617   0.52833   0.00000  Uiso   1.00
C64    C     0.70707   0.19842   0.32074   0.00000  Uiso   1.00
C65    C     0.70692   0.22819   0.25178   0.00000  Uiso   1.00
C66    C     0.76113   0.23519   0.20310   0.00000  Uiso   1.00
C67    C     0.69849   0.22946   0.40920   0.00000  Uiso   1.00
C68    C     0.69113   0.28535   0.41459   0.00000  Uiso   1.00
C69    C     0.73813   0.31850   0.44036   0.00000  Uiso   1.00
H70    H     0.79025   0.12820   0.43385   0.00000  Uiso   1.00
H71    H     0.69259   0.98863   0.53016   0.00000  Uiso   1.00
H72    H     0.85432   0.16634   0.30703   0.00000  Uiso   1.00
H73    H     0.83853   0.22349   0.46981   0.00000  Uiso   1.00
H74    H     0.56118   0.84359   0.62826   0.00000  Uiso   1.00
H75    H     0.90223   0.21834   0.15776   0.00000  Uiso   1.00
H76    H     0.86894   0.33884   0.50102   0.00000  Uiso   1.00
H77    H     0.61204   0.20297   0.36708   0.00000  Uiso   1.00
H78    H     0.50459   0.06751   0.45973   0.00000  Uiso   1.00
H79    H     0.66633   0.24522   0.23659   0.00000  Uiso   1.00
H80    H     0.65054   0.30237   0.39938   0.00000  Uiso   1.00
H81    H     0.40860   0.90761   0.57109   0.00000  Uiso   1.00
H82    H     0.74965   0.28236   0.10059   0.00000  Uiso   1.00
H83    H     0.71636   0.40286   0.44385   0.00000  Uiso   1.00
O84    O     0.41743   0.78513   0.66181   0.00000  Uiso   1.00
O85    O     0.86488   0.27679   0.04453   0.00000  Uiso   1.00
O86    O     0.82120   0.43489   0.49488   0.00000  Uiso   1.00
N87    N     0.54002   0.87725   0.60210   0.00000  Uiso   1.00
N88    N     0.85887   0.22760   0.16221   0.00000  Uiso   1.00
N89    N     0.82776   0.34028   0.48311   0.00000  Uiso   1.00
N90    N     0.45791   0.91170   0.57134   0.00000  Uiso   1.00
N91    N     0.77677   0.26205   0.13145   0.00000  Uiso   1.00
N92    N     0.74566   0.37473   0.45235   0.00000  Uiso   1.00
C93    C     0.25307   0.46707   0.78663   0.00000  Uiso   1.00
C94    C     0.29704   0.46497   0.83522   0.00000  Uiso   1.00
C95    C     0.35643   0.45111   0.83291   0.00000  Uiso   1.00
C96    C     0.38924   0.45160   0.88192   0.00000  Uiso   1.00
C97    C     0.46140   0.44620   0.94986   0.00000  Uiso   1.00
C98    C     0.17392   0.40902   0.83590   0.00000  Uiso   1.00
C99    C     0.12978   0.34813   0.83416   0.00000  Uiso   1.00
C100   C     0.05894   0.30153   0.88374   0.00000  Uiso   1.00
C101   C     0.93994   0.20931   0.95270   0.00000  Uiso   1.00
C102   C     0.25581   0.54468   0.75123   0.00000  Uiso   1.00
C103   C     0.28051   0.59785   0.67829   0.00000  Uiso   1.00
C104   C     0.27859   0.66546   0.65659   0.00000  Uiso   1.00
C105   C     0.28673   0.78386   0.59409   0.00000  Uiso   1.00
C106   C     0.20573   0.49258   0.87778   0.00000  Uiso   1.00
C107   C     0.27133   0.47883   0.88473   0.00000  Uiso   1.00
C108   C     0.30405   0.47934   0.93375   0.00000  Uiso   1.00
C109   C     0.36348   0.46549   0.93151   0.00000  Uiso   1.00
C110   C     0.14821   0.42288   0.88541   0.00000  Uiso   1.00
C111   C     0.07741   0.37636   0.93500   0.00000  Uiso   1.00
C112   C     0.03318   0.31542   0.93333   0.00000  Uiso   1.00
C113   C     0.23010   0.55854   0.80074   0.00000  Uiso   1.00
C114   C     0.22814   0.62608   0.77914   0.00000  Uiso   1.00
C115   C     0.25283   0.67934   0.70618   0.00000  Uiso   1.00
H116   H     0.27308   0.45627   0.74809   0.00000  Uiso   1.00
H117   H     0.37631   0.44038   0.79459   0.00000  Uiso   1.00
H118   H     0.14969   0.33742   0.79583   0.00000  Uiso   1.00
H119   H     0.30040   0.58710   0.64000   0.00000  Uiso   1.00
H120   H     0.47939   0.42885   0.86800   0.00000  Uiso   1.00
H121   H     0.00156   0.21177   0.87060   0.00000  Uiso   1.00
H122   H     0.31935   0.73827   0.54199   0.00000  Uiso   1.00
H123   H     0.18571   0.50337   0.91632   0.00000  Uiso   1.00
H124   H     0.28414   0.49007   0.97206   0.00000  Uiso   1.00
H125   H     0.05753   0.38711   0.97330   0.00000  Uiso   1.00
H126   H     0.20824   0.63679   0.81747   0.00000  Uiso   1.00
H127   H     0.40459   0.46917   0.01204   0.00000  Uiso   1.00
H128   H     0.92675   0.25210   0.01464   0.00000  Uiso   1.00
H129   H     0.24454   0.77859   0.68603   0.00000  Uiso   1.00
O130   O     0.50830   0.43938   0.97366   0.00000  Uiso   1.00
O131   O     0.88140   0.15460   0.97707   0.00000  Uiso   1.00
O132   O     0.29834   0.84535   0.54594   0.00000  Uiso   1.00
N133   N     0.44829   0.44018   0.89424   0.00000  Uiso   1.00
N134   N     0.00155   0.23722   0.89668   0.00000  Uiso   1.00
N135   N     0.29863   0.72944   0.58946   0.00000  Uiso   1.00
N136   N     0.40804   0.46188   0.97175   0.00000  Uiso   1.00
N137   N     0.96129   0.25892   0.97419   0.00000  Uiso   1.00
N138   N     0.25838   0.75114   0.66697   0.00000  Uiso   1.00
C139   C     0.83979   0.60804   0.61047   0.00000  Uiso   1.00
C140   C     0.91927   0.63267   0.57393   0.00000  Uiso   1.00
C141   C     0.96489   0.61092   0.60807   0.00000  Uiso   1.00
C142   C     0.03577   0.63960   0.56515   0.00000  Uiso   1.00
C143   C     0.15547   0.67042   0.51973   0.00000  Uiso   1.00
C144   C     0.79580   0.57178   0.57744   0.00000  Uiso   1.00
C145   C     0.73761   0.49884   0.61454   0.00000  Uiso   1.00
C146   C     0.70455   0.47628   0.57458   0.00000  Uiso   1.00
C147   C     0.63253   0.41258   0.53462   0.00000  Uiso   1.00
C148   C     0.83498   0.68108   0.58619   0.00000  Uiso   1.00
C149   C     0.80969   0.70003   0.63064   0.00000  Uiso   1.00
C150   C     0.80960   0.76948   0.59804   0.00000  Uiso   1.00
C151   C     0.79840   0.87548   0.57166   0.00000  Uiso   1.00
C152   C     0.88456   0.69768   0.47354   0.00000  Uiso   1.00
C153   C     0.94358   0.68136   0.49956   0.00000  Uiso   1.00
C154   C     0.01441   0.71010   0.45658   0.00000  Uiso   1.00
C155   C     0.06013   0.68839   0.49065   0.00000  Uiso   1.00
C156   C     0.82012   0.62047   0.50307   0.00000  Uiso   1.00
C157   C     0.78714   0.59802   0.46305   0.00000  Uiso   1.00
C158   C     0.72891   0.52505   0.50007   0.00000  Uiso   1.00
C159   C     0.85929   0.72977   0.51182   0.00000  Uiso   1.00
C160   C     0.85923   0.79921   0.47914   0.00000  Uiso   1.00
C161   C     0.83396   0.81826   0.52353   0.00000  Uiso   1.00
H162   H     0.82086   0.57013   0.66837   0.00000  Uiso   1.00
H163   H     0.94605   0.57323   0.66563   0.00000  Uiso   1.00
H164   H     0.71880   0.46117   0.67209   0.00000  Uiso   1.00
H165   H     0.79088   0.66233   0.68819   0.00000  Uiso   1.00
H166   H     0.09556   0.59812   0.62979   0.00000  Uiso   1.00
H167   H     0.61638   0.36185   0.64343   0.00000  Uiso   1.00
H168   H     0.76838   0.78603   0.67737   0.00000  Uiso   1.00
H169   H     0.90349   0.73559   0.41563   0.00000  Uiso   1.00
H170   H     0.03321   0.74777   0.39902   0.00000  Uiso   1.00
H171   H     0.80596   0.63571   0.40549   0.00000  Uiso   1.00
H172   H     0.87805   0.83687   0.42159   0.00000  Uiso   1.00
H173   H     0.16630   0.73978   0.41340   0.00000  Uiso   1.00
H174   H     0.68712   0.50351   0.42704   0.00000  Uiso   1.00
H175   H     0.83912   0.92770   0.46098   0.00000  Uiso   1.00
O176   O     0.21477   0.67396   0.51523   0.00000  Uiso   1.00
O177   O     0.58610   0.36399   0.53312   0.00000  Uiso   1.00
O178   O     0.78552   0.92051   0.57765   0.00000  Uiso   1.00
N179   N     0.09441   0.62980   0.58114   0.00000  Uiso   1.00
N180   N     0.64641   0.40890   0.59389   0.00000  Uiso   1.00
N181   N     0.78850   0.80546   0.62563   0.00000  Uiso   1.00
N182   N     0.13248   0.70603   0.46471   0.00000  Uiso   1.00
N183   N     0.68448   0.48512   0.47746   0.00000  Uiso   1.00
N184   N     0.82657   0.88169   0.50919   0.00000  Uiso   1.00
C185   C     0.51117   0.56699   0.19864   0.00000  Uiso   1.00
C186   C     0.47123   0.50465   0.27801   0.00000  Uiso   1.00
C187   C     0.41340   0.43318   0.30711   0.00000  Uiso   1.00
C188   C     0.38433   0.38427   0.38098   0.00000  Uiso   1.00
C189   C     0.31810   0.28414   0.49766   0.00000  Uiso   1.00
C190   C     0.59161   0.58754   0.18402   0.00000  Uiso   1.00
C191   C     0.63501   0.58577   0.13408   0.00000  Uiso   1.00
C192   C     0.70728   0.60665   0.12883   0.00000  Uiso   1.00
C193   C     0.82797   0.63526   0.09955   0.00000  Uiso   1.00
C194   C     0.50576   0.63634   0.18835   0.00000  Uiso   1.00
C195   C     0.47698   0.67562   0.14203   0.00000  Uiso   1.00
C196   C     0.47698   0.73759   0.14041   0.00000  Uiso   1.00
C197   C     0.46437   0.84197   0.11784   0.00000  Uiso   1.00
C198   C     0.56236   0.60723   0.27811   0.00000  Uiso   1.00
C199   C     0.49904   0.52651   0.32117   0.00000  Uiso   1.00
C200   C     0.47004   0.47769   0.39503   0.00000  Uiso   1.00
C201   C     0.41218   0.40616   0.42423   0.00000  Uiso   1.00
C202   C     0.61942   0.60940   0.22718   0.00000  Uiso   1.00
C203   C     0.69165   0.63029   0.22200   0.00000  Uiso   1.00
C204   C     0.73514   0.62854   0.17207   0.00000  Uiso   1.00
C205   C     0.53356   0.65820   0.23151   0.00000  Uiso   1.00
C206   C     0.53362   0.72013   0.22995   0.00000  Uiso   1.00
C207   C     0.50484   0.75949   0.18365   0.00000  Uiso   1.00
H208   H     0.48953   0.54997   0.16504   0.00000  Uiso   1.00
H209   H     0.39190   0.41628   0.27369   0.00000  Uiso   1.00
H210   H     0.61347   0.56886   0.10068   0.00000  Uiso   1.00
H211   H     0.45547   0.65869   0.10864   0.00000  Uiso   1.00
H212   H     0.29595   0.27769   0.41318   0.00000  Uiso   1.00
H213   H     0.76315   0.59944   0.04838   0.00000  Uiso   1.00
H214   H     0.42997   0.78885   0.06514   0.00000  Uiso   1.00
H215   H     0.58402   0.62424   0.31171   0.00000  Uiso   1.00
H216   H     0.49157   0.49462   0.42842   0.00000  Uiso   1.00
H217   H     0.71315   0.64720   0.25541   0.00000  Uiso   1.00
H218   H     0.55514   0.73703   0.26336   0.00000  Uiso   1.00
H219   H     0.37685   0.34127   0.53876   0.00000  Uiso   1.00
H220   H     0.84405   0.66302   0.17396   0.00000  Uiso   1.00
H221   H     0.51087   0.85243   0.19072   0.00000  Uiso   1.00
O222   O     0.27390   0.22286   0.55009   0.00000  Uiso   1.00
O223   O     0.88685   0.64500   0.07148   0.00000  Uiso   1.00
O224   O     0.44972   0.89350   0.09348   0.00000  Uiso   1.00
N225   N     0.32766   0.31045   0.42672   0.00000  Uiso   1.00
N226   N     0.76447   0.61125   0.08566   0.00000  Uiso   1.00
N227   N     0.45299   0.78835   0.10132   0.00000  Uiso   1.00
N228   N     0.37120   0.34466   0.49429   0.00000  Uiso   1.00
N229   N     0.80800   0.64546   0.15324   0.00000  Uiso   1.00
N230   N     0.49652   0.82256   0.16889   0.00000  Uiso   1.00
C231   C     0.32402   0.00064   0.66329   0.00000  Uiso   1.00
C232   C     0.24965   0.99016   0.65755   0.00000  Uiso   1.00
C233   C     0.23224   0.00398   0.59723   0.00000  Uiso   1.00
C234   C     0.16117   0.99090   0.60280   0.00000  Uiso   1.00
C235   C     0.05356   0.97854   0.58421   0.00000  Uiso   1.00
C236   C     0.31048   0.92405   0.72551   0.00000  Uiso   1.00
C237   C     0.34421   0.88229   0.72232   0.00000  Uiso   1.00
C238   C     0.32435   0.81357   0.78511   0.00000  Uiso   1.00
C239   C     0.31122   0.69860   0.87204   0.00000  Uiso   1.00
C240   C     0.34665   0.05494   0.68711   0.00000  Uiso   1.00
C241   C     0.41081   0.12323   0.65165   0.00000  Uiso   1.00
C242   C     0.42142   0.16470   0.68211   0.00000  Uiso   1.00
C243   C     0.46444   0.25297   0.70942   0.00000  Uiso   1.00
C244   C     0.22877   0.95284   0.78045   0.00000  Uiso   1.00
C245   C     0.19792   0.96420   0.72118   0.00000  Uiso   1.00
C246   C     0.12685   0.95110   0.72685   0.00000  Uiso   1.00
C247   C     0.10934   0.96490   0.66655   0.00000  Uiso   1.00
C248   C     0.25874   0.89809   0.78914   0.00000  Uiso   1.00
C249   C     0.23883   0.82941   0.85195   0.00000  Uiso   1.00
C250   C     0.27253   0.78756   0.84886   0.00000  Uiso   1.00
C251   C     0.29491   0.02898   0.75074   0.00000  Uiso   1.00
C252   C     0.30543   0.07035   0.78127   0.00000  Uiso   1.00
C253   C     0.36959   0.13869   0.74587   0.00000  Uiso   1.00
H254   H     0.36430   0.02085   0.61375   0.00000  Uiso   1.00
H255   H     0.27229   0.02406   0.54799   0.00000  Uiso   1.00
H256   H     0.38425   0.90240   0.67307   0.00000  Uiso   1.00
H257   H     0.45083   0.14331   0.60241   0.00000  Uiso   1.00
H258   H     0.14746   0.01615   0.50316   0.00000  Uiso   1.00
H259   H     0.38356   0.75964   0.76690   0.00000  Uiso   1.00
H260   H     0.52396   0.26763   0.61789   0.00000  Uiso   1.00
H261   H     0.18849   0.93263   0.82999   0.00000  Uiso   1.00
H262   H     0.08683   0.93101   0.77610   0.00000  Uiso   1.00
H263   H     0.19880   0.80934   0.90118   0.00000  Uiso   1.00
H264   H     0.26538   0.05024   0.83052   0.00000  Uiso   1.00
H265   H     0.99693   0.94062   0.68830   0.00000  Uiso   1.00
H266   H     0.23304   0.68410   0.95205   0.00000  Uiso   1.00
H267   H     0.37344   0.19209   0.80304   0.00000  Uiso   1.00
O268   O     0.00849   0.97889   0.55638   0.00000  Uiso   1.00
O269   O     0.31826   0.64236   0.90241   0.00000  Uiso   1.00
O270   O     0.50246   0.30883   0.70691   0.00000  Uiso   1.00
N271   N     0.12599   0.99861   0.55412   0.00000  Uiso   1.00
N272   N     0.34672   0.75878   0.80071   0.00000  Uiso   1.00
N273   N     0.47799   0.23370   0.66140   0.00000  Uiso   1.00
N274   N     0.04499   0.95797   0.65375   0.00000  Uiso   1.00
N275   N     0.26572   0.71814   0.90033   0.00000  Uiso   1.00
N276   N     0.39700   0.19306   0.76103   0.00000  Uiso   1.00
C277   C     0.17616   0.65602   0.19211   0.00000  Uiso   1.00
C278   C     0.12082   0.61536   0.26645   0.00000  Uiso   1.00
C279   C     0.13725   0.61216   0.32459   0.00000  Uiso   1.00
C280   C     0.07886   0.57214   0.38799   0.00000  Uiso   1.00
C281   C     0.00392   0.51444   0.50265   0.00000  Uiso   1.00
C282   C     0.15415   0.71177   0.14099   0.00000  Uiso   1.00
C283   C     0.19860   0.78961   0.09363   0.00000  Uiso   1.00
C284   C     0.16827   0.83074   0.05141   0.00000  Uiso   1.00
C285   C     0.14508   0.92270   0.97125   0.00000  Uiso   1.00
C286   C     0.16243   0.59614   0.17521   0.00000  Uiso   1.00
C287   C     0.21385   0.57677   0.15660   0.00000  Uiso   1.00
C288   C     0.19048   0.52055   0.14317   0.00000  Uiso   1.00
C289   C     0.18015   0.43298   0.11613   0.00000  Uiso   1.00
C290   C     0.04326   0.59064   0.20132   0.00000  Uiso   1.00
C291   C     0.04864   0.57985   0.27145   0.00000  Uiso   1.00
C292   C     0.99021   0.53982   0.33478   0.00000  Uiso   1.00
C293   C     0.00654   0.53656   0.39300   0.00000  Uiso   1.00
C294   C     0.08197   0.67626   0.14599   0.00000  Uiso   1.00
C295   C     0.05156   0.71728   0.10383   0.00000  Uiso   1.00
C296   C     0.09595   0.79516   0.05642   0.00000  Uiso   1.00
C297   C     0.09024   0.56062   0.18021   0.00000  Uiso   1.00
C298   C     0.06680   0.50443   0.16680   0.00000  Uiso   1.00
C299   C     0.11817   0.48498   0.14818   0.00000  Uiso   1.00
H300   H     0.23236   0.68367   0.18821   0.00000  Uiso   1.00
H301   H     0.19312   0.63966   0.32069   0.00000  Uiso   1.00
H302   H     0.25447   0.81708   0.08977   0.00000  Uiso   1.00
H303   H     0.26970   0.60427   0.15273   0.00000  Uiso   1.00
H304   H     0.11778   0.57521   0.46977   0.00000  Uiso   1.00
H305   H     0.24714   0.94932   0.98284   0.00000  Uiso   1.00
H306   H     0.27927   0.50056   0.11560   0.00000  Uiso   1.00
H307   H     0.98705   0.56299   0.20522   0.00000  Uiso   1.00
H308   H     0.93435   0.51235   0.33863   0.00000  Uiso   1.00
H309   H     0.99570   0.68977   0.10771   0.00000  Uiso   1.00
H310   H     0.01093   0.47696   0.17067   0.00000  Uiso   1.00
H311   H     0.90775   0.47189   0.48433   0.00000  Uiso   1.00
H312   H     0.03711   0.84599   0.99740   0.00000  Uiso   1.00
H313   H     0.06924   0.39724   0.13017   0.00000  Uiso   1.00
O314   O     0.98252   0.49244   0.56450   0.00000  Uiso   1.00
O315   O     0.15224   0.98324   0.92566   0.00000  Uiso   1.00
O316   O     0.19439   0.39448   0.09985   0.00000  Uiso   1.00
N317   N     0.07558   0.55783   0.45489   0.00000  Uiso   1.00
N318   N     0.19652   0.90760   0.99965   0.00000  Uiso   1.00
N319   N     0.22656   0.48807   0.12375   0.00000  Uiso   1.00
N320   N     0.96257   0.50223   0.46273   0.00000  Uiso   1.00
N321   N     0.08351   0.85200   0.00749   0.00000  Uiso   1.00
N322   N     0.11355   0.43247   0.13159   0.00000  Uiso   1.00
C323   C     0.94297   0.70319   0.73274   0.00000  Uiso   1.00
C324   C     0.00436   0.76261   0.66014   0.00000  Uiso   1.00
C325   C     0.99591   0.80446   0.59636   0.00000  Uiso   1.00
C326   C     0.05885   0.85601   0.53576   0.00000  Uiso   1.00
C327   C     0.14370   0.94688   0.42257   0.00000  Uiso   1.00
C328   C     0.96280   0.72853   0.78195   0.00000  Uiso   1.00
C329   C     0.91940   0.74172   0.82058   0.00000  Uiso   1.00
C330   C     0.94736   0.76457   0.86253   0.00000  Uiso   1.00
C331   C     0.96766   0.80248   0.93848   0.00000  Uiso   1.00
C332   C     0.94865   0.63019   0.76011   0.00000  Uiso   1.00
C333   C     0.89335   0.56067   0.78039   0.00000  Uiso   1.00
C334   C     0.90939   0.50073   0.80396   0.00000  Uiso   1.00
C335   C     0.90773   0.38594   0.84600   0.00000  Uiso   1.00
C336   C     0.06978   0.72033   0.73855   0.00000  Uiso   1.00
C337   C     0.07323   0.77192   0.66331   0.00000  Uiso   1.00
C338   C     0.13621   0.82342   0.60279   0.00000  Uiso   1.00
C339   C     0.12785   0.86533   0.53892   0.00000  Uiso   1.00
C340   C     0.03167   0.73784   0.78511   0.00000  Uiso   1.00
C341   C     0.05970   0.76068   0.82701   0.00000  Uiso   1.00
C342   C     0.01636   0.77390   0.86569   0.00000  Uiso   1.00
C343   C     0.01753   0.63950   0.76326   0.00000  Uiso   1.00
C344   C     0.03365   0.57964   0.78682   0.00000  Uiso   1.00
C345   C     0.97839   0.51005   0.80713   0.00000  Uiso   1.00
H346   H     0.88934   0.69595   0.73028   0.00000  Uiso   1.00
H347   H     0.94259   0.79724   0.59394   0.00000  Uiso   1.00
H348   H     0.86610   0.73450   0.81813   0.00000  Uiso   1.00
H349   H     0.84006   0.55349   0.77794   0.00000  Uiso   1.00
H350   H     0.03201   0.91367   0.44417   0.00000  Uiso   1.00
H351   H     0.87070   0.78136   0.91691   0.00000  Uiso   1.00
H352   H     0.81579   0.39966   0.83217   0.00000  Uiso   1.00
H353   H     0.12340   0.72758   0.74101   0.00000  Uiso   1.00
H354   H     0.18950   0.83061   0.60525   0.00000  Uiso   1.00
H355   H     0.11300   0.76787   0.82945   0.00000  Uiso   1.00
H356   H     0.08696   0.58686   0.78925   0.00000  Uiso   1.00
H357   H     0.23241   0.94076   0.45335   0.00000  Uiso   1.00
H358   H     0.07110   0.80844   0.92610   0.00000  Uiso   1.00
H359   H     0.01619   0.42675   0.84135   0.00000  Uiso   1.00
O360   O     0.17147   0.99444   0.35926   0.00000  Uiso   1.00
O361   O     0.95983   0.82083   0.97949   0.00000  Uiso   1.00
O362   O     0.88779   0.32006   0.86830   0.00000  Uiso   1.00
N363   N     0.07010   0.90589   0.46496   0.00000  Uiso   1.00
N364   N     0.91929   0.78220   0.90694   0.00000  Uiso   1.00
N365   N     0.86795   0.42534   0.82772   0.00000  Uiso   1.00
N366   N     0.17794   0.92047   0.46990   0.00000  Uiso   1.00
N367   N     0.02712   0.79678   0.91188   0.00000  Uiso   1.00
N368   N     0.97578   0.43992   0.83266   0.00000  Uiso   1.00
C369   C     0.36590   0.17683   0.39555   0.00000  Uiso   1.00
C370   C     0.32196   0.20600   0.35177   0.00000  Uiso   1.00
C371   C     0.25128   0.19194   0.37916   0.00000  Uiso   1.00
C372   C     0.22062   0.22374   0.33026   0.00000  Uiso   1.00
C373   C     0.14652   0.26234   0.27347   0.00000  Uiso   1.00
C374   C     0.43627   0.24699   0.37187   0.00000  Uiso   1.00
C375   C     0.46170   0.26738   0.41616   0.00000  Uiso   1.00
C376   C     0.52728   0.33368   0.38418   0.00000  Uiso   1.00
C377   C     0.63068   0.43587   0.35861   0.00000  Uiso   1.00
C378   C     0.38829   0.13335   0.37014   0.00000  Uiso   1.00
C379   C     0.37339   0.05821   0.41298   0.00000  Uiso   1.00
C380   C     0.39858   0.02884   0.37955   0.00000  Uiso   1.00
C381   C     0.42748   0.95460   0.35129   0.00000  Uiso   1.00
C382   C     0.43715   0.25831   0.26001   0.00000  Uiso   1.00
C383   C     0.36066   0.25026   0.27815   0.00000  Uiso   1.00
C384   C     0.33010   0.28209   0.22919   0.00000  Uiso   1.00
C385   C     0.25938   0.26808   0.25650   0.00000  Uiso   1.00
C386   C     0.47497   0.29124   0.29825   0.00000  Uiso   1.00
C387   C     0.54053   0.35752   0.26620   0.00000  Uiso   1.00
C388   C     0.56605   0.37801   0.31043   0.00000  Uiso   1.00
C389   C     0.42699   0.17761   0.29652   0.00000  Uiso   1.00
C390   C     0.45221   0.14835   0.26302   0.00000  Uiso   1.00
C391   C     0.43735   0.07317   0.30579   0.00000  Uiso   1.00
H392   H     0.33577   0.14238   0.45287   0.00000  Uiso   1.00
H393   H     0.22135   0.15770   0.43613   0.00000  Uiso   1.00
H394   H     0.43175   0.23312   0.47313   0.00000  Uiso   1.00
H395   H     0.34344   0.02398   0.46995   0.00000  Uiso   1.00
H396   H     0.11156   0.19422   0.38511   0.00000  Uiso   1.00
H397   H     0.55521   0.35323   0.46313   0.00000  Uiso   1.00
H398   H     0.36901   0.91222   0.45642   0.00000  Uiso   1.00
H399   H     0.46728   0.29277   0.20269   0.00000  Uiso   1.00
H400   H     0.36006   0.31633   0.17222   0.00000  Uiso   1.00
H401   H     0.57046   0.39175   0.20923   0.00000  Uiso   1.00
H402   H     0.48216   0.18261   0.20604   0.00000  Uiso   1.00
H403   H     0.22415   0.32297   0.17091   0.00000  Uiso   1.00
H404   H     0.66780   0.48198   0.24893   0.00000  Uiso   1.00
H405   H     0.48160   0.04097   0.24222   0.00000  Uiso   1.00
O406   O     0.09496   0.27140   0.26248   0.00000  Uiso   1.00
O407   O     0.67702   0.48001   0.36484   0.00000  Uiso   1.00
O408   O     0.43272   0.90142   0.35604   0.00000  Uiso   1.00
N409   N     0.15277   0.22127   0.33888   0.00000  Uiso   1.00
N410   N     0.56755   0.36995   0.41182   0.00000  Uiso   1.00
N411   N     0.39348   0.95764   0.40555   0.00000  Uiso   1.00
N412   N     0.21335   0.29055   0.22362   0.00000  Uiso   1.00
N413   N     0.62813   0.43923   0.29656   0.00000  Uiso   1.00
N414   N     0.45406   0.02692   0.29029   0.00000  Uiso   1.00
C415   C     0.70404   0.09032   0.73646   0.00000  Uiso   1.00
C416   C     0.63356   0.06182   0.79352   0.00000  Uiso   1.00
C417   C     0.57302   0.06975   0.78128   0.00000  Uiso   1.00
C418   C     0.51393   0.03979   0.84060   0.00000  Uiso   1.00
C419   C     0.40428   0.00114   0.91869   0.00000  Uiso   1.00
C420   C     0.76540   0.14195   0.74600   0.00000  Uiso   1.00
C421   C     0.81573   0.21724   0.69381   0.00000  Uiso   1.00
C422   C     0.86763   0.25473   0.71313   0.00000  Uiso   1.00
C423   C     0.96271   0.34045   0.71743   0.00000  Uiso   1.00
C424   C     0.71501   0.02108   0.75697   0.00000  Uiso   1.00
C425   C     0.72298   0.99475   0.71400   0.00000  Uiso   1.00
C426   C     0.73247   0.93048   0.74255   0.00000  Uiso   1.00
C427   C     0.74930   0.82853   0.76389   0.00000  Uiso   1.00
C428   C     0.70674   0.02301   0.86357   0.00000  Uiso   1.00
C429   C     0.63503   0.02526   0.86255   0.00000  Uiso   1.00
C430   C     0.57601   0.99528   0.92191   0.00000  Uiso   1.00
C431   C     0.51540   0.00316   0.90976   0.00000  Uiso   1.00
C432   C     0.76687   0.10539   0.81504   0.00000  Uiso   1.00
C433   C     0.81872   0.14277   0.83443   0.00000  Uiso   1.00
C434   C     0.86911   0.21810   0.78229   0.00000  Uiso   1.00
C435   C     0.71648   0.98451   0.82601   0.00000  Uiso   1.00
C436   C     0.72597   0.92027   0.85463   0.00000  Uiso   1.00
C437   C     0.73394   0.89385   0.81171   0.00000  Uiso   1.00
H438   H     0.70290   0.11879   0.68272   0.00000  Uiso   1.00
H439   H     0.57191   0.09806   0.72785   0.00000  Uiso   1.00
H440   H     0.81458   0.24552   0.64039   0.00000  Uiso   1.00
H441   H     0.72184   0.02306   0.66058   0.00000  Uiso   1.00
H442   H     0.42734   0.05897   0.80833   0.00000  Uiso   1.00
H443   H     0.93904   0.36989   0.62391   0.00000  Uiso   1.00
H444   H     0.74348   0.90080   0.66649   0.00000  Uiso   1.00
H445   H     0.70789   0.99454   0.91732   0.00000  Uiso   1.00
H446   H     0.57717   0.96699   0.97532   0.00000  Uiso   1.00
H447   H     0.81984   0.11445   0.88786   0.00000  Uiso   1.00
H448   H     0.72710   0.89199   0.90806   0.00000  Uiso   1.00
H449   H     0.43161   0.95259   0.00919   0.00000  Uiso   1.00
H450   H     0.94332   0.26352   0.82477   0.00000  Uiso   1.00
H451   H     0.74775   0.79442   0.86735   0.00000  Uiso   1.00
O452   O     0.34340   0.98992   0.94268   0.00000  Uiso   1.00
O453   O     0.01475   0.39783   0.70073   0.00000  Uiso   1.00
O454   O     0.75817   0.78239   0.75659   0.00000  Uiso   1.00
N455   N     0.44628   0.03771   0.84764   0.00000  Uiso   1.00
N456   N     0.92468   0.32840   0.67522   0.00000  Uiso   1.00
N457   N     0.74187   0.88985   0.71502   0.00000  Uiso   1.00
N458   N     0.44858   0.98046   0.95572   0.00000  Uiso   1.00
N459   N     0.92698   0.27116   0.78331   0.00000  Uiso   1.00
N460   N     0.74417   0.83260   0.82311   0.00000  Uiso   1.00
C461   C     0.29772   0.16199   0.10969   0.00000  Uiso   1.00
C462   C     0.35079   0.20481   0.03376   0.00000  Uiso   1.00
C463   C     0.42169   0.26302   0.00489   0.00000  Uiso   1.00
C464   C     0.46143   0.29491   0.93440   0.00000  Uiso   1.00
C465   C     0.54841   0.36530   0.82259   0.00000  Uiso   1.00
C466   C     0.22984   0.17094   0.10257   0.00000  Uiso   1.00
C467   C     0.19903   0.20067   0.13155   0.00000  Uiso   1.00
C468   C     0.13695   0.20405   0.11899   0.00000  Uiso   1.00
C469   C     0.03611   0.22180   0.11404   0.00000  Uiso   1.00
C470   C     0.27452   0.07811   0.14216   0.00000  Uiso   1.00
C471   C     0.28126   0.02976   0.20444   0.00000  Uiso   1.00
C472   C     0.25678   0.95497   0.22523   0.00000  Uiso   1.00
C473   C     0.22530   0.82858   0.28175   0.00000  Uiso   1.00
C474   C     0.24224   0.11512   0.03587   0.00000  Uiso   1.00
C475   C     0.32065   0.17935   0.99366   0.00000  Uiso   1.00
C476   C     0.36030   0.21116   0.92321   0.00000  Uiso   1.00
C477   C     0.43124   0.26941   0.89423   0.00000  Uiso   1.00
C478   C     0.19970   0.14549   0.06247   0.00000  Uiso   1.00
C479   C     0.13764   0.14881   0.04987   0.00000  Uiso   1.00
C480   C     0.10676   0.17854   0.07882   0.00000  Uiso   1.00
C481   C     0.24438   0.05265   0.10206   0.00000  Uiso   1.00
C482   C     0.21987   0.97791   0.12276   0.00000  Uiso   1.00
C483   C     0.22658   0.92947   0.18506   0.00000  Uiso   1.00
H484   H     0.32118   0.18181   0.14091   0.00000  Uiso   1.00
H485   H     0.44499   0.28271   0.03593   0.00000  Uiso   1.00
H486   H     0.22237   0.22036   0.16258   0.00000  Uiso   1.00
H487   H     0.30458   0.04949   0.23546   0.00000  Uiso   1.00
H488   H     0.56895   0.38336   0.90185   0.00000  Uiso   1.00
H489   H     0.09952   0.25188   0.16892   0.00000  Uiso   1.00
H490   H     0.27289   0.89155   0.32260   0.00000  Uiso   1.00
H491   H     0.21877   0.09530   0.00465   0.00000  Uiso   1.00
H492   H     0.33696   0.19145   0.89219   0.00000  Uiso   1.00
H493   H     0.11433   0.12910   0.01884   0.00000  Uiso   1.00
H494   H     0.19655   0.95823   0.09171   0.00000  Uiso   1.00
H495   H     0.48127   0.30930   0.78518   0.00000  Uiso   1.00
H496   H     0.01184   0.17781   0.05225   0.00000  Uiso   1.00
H497   H     0.18521   0.81748   0.20593   0.00000  Uiso   1.00
O498   O     0.60470   0.41116   0.77199   0.00000  Uiso   1.00
O499   O     0.98882   0.23864   0.12238   0.00000  Uiso   1.00
O500   O     0.21628   0.76590   0.32400   0.00000  Uiso   1.00
N501   N     0.53210   0.35273   0.88983   0.00000  Uiso   1.00
N502   N     0.09322   0.22980   0.13951   0.00000  Uiso   1.00
N503   N     0.25529   0.89292   0.28320   0.00000  Uiso   1.00
N504   N     0.48492   0.31287   0.82705   0.00000  Uiso   1.00
N505   N     0.04604   0.18995   0.07674   0.00000  Uiso   1.00
N506   N     0.20810   0.85307   0.22042   0.00000  Uiso   1.00
C507   C     0.47056   0.67363   0.62045   0.00000  Uiso   1.00
C508   C     0.49295   0.66815   0.68313   0.00000  Uiso   1.00
C509   C     0.45101   0.65858   0.74239   0.00000  Uiso   1.00
C510   C     0.48126   0.65492   0.79392   0.00000  Uiso   1.00
C511   C     0.50544   0.64558   0.89238   0.00000  Uiso   1.00
C512   C     0.53011   0.74869   0.55386   0.00000  Uiso   1.00
C513   C     0.51941   0.80682   0.50443   0.00000  Uiso   1.00
C514   C     0.58094   0.87095   0.44714   0.00000  Uiso   1.00
C515   C     0.66281   0.98663   0.34487   0.00000  Uiso   1.00
C516   C     0.47655   0.61126   0.61484   0.00000  Uiso   1.00
C517   C     0.42081   0.55385   0.61668   0.00000  Uiso   1.00
C518   C     0.43725   0.50227   0.61071   0.00000  Uiso   1.00
C519   C     0.43595   0.40457   0.60314   0.00000  Uiso   1.00
C520   C     0.59887   0.68414   0.60657   0.00000  Uiso   1.00
C521   C     0.56264   0.67386   0.67559   0.00000  Uiso   1.00
C522   C     0.59296   0.67021   0.72704   0.00000  Uiso   1.00
C523   C     0.55107   0.66063   0.78638   0.00000  Uiso   1.00
C524   C     0.59980   0.75440   0.54632   0.00000  Uiso   1.00
C525   C     0.66136   0.81845   0.48908   0.00000  Uiso   1.00
C526   C     0.65076   0.87667   0.43959   0.00000  Uiso   1.00
C527   C     0.54624   0.61696   0.60731   0.00000  Uiso   1.00
C528   C     0.56277   0.56547   0.60133   0.00000  Uiso   1.00
C529   C     0.50707   0.50799   0.60316   0.00000  Uiso   1.00
H530   H     0.41631   0.66919   0.62631   0.00000  Uiso   1.00
H531   H     0.39708   0.65417   0.74820   0.00000  Uiso   1.00
H532   H     0.46547   0.80239   0.51027   0.00000  Uiso   1.00
H533   H     0.36689   0.54945   0.62251   0.00000  Uiso   1.00
H534   H     0.40651   0.64007   0.88001   0.00000  Uiso   1.00
H535   H     0.55071   0.95258   0.37831   0.00000  Uiso   1.00
H536   H     0.34283   0.41920   0.61498   0.00000  Uiso   1.00
H537   H     0.65313   0.68859   0.60070   0.00000  Uiso   1.00
H538   H     0.64690   0.67463   0.72120   0.00000  Uiso   1.00
H539   H     0.71528   0.82285   0.48327   0.00000  Uiso   1.00
H540   H     0.61670   0.56991   0.59550   0.00000  Uiso   1.00
H541   H     0.60927   0.65668   0.85809   0.00000  Uiso   1.00
H542   H     0.75347   0.96919   0.35639   0.00000  Uiso   1.00
H543   H     0.54559   0.43581   0.59306   0.00000  Uiso   1.00
O544   O     0.49953   0.63887   0.94876   0.00000  Uiso   1.00
O545   O     0.68871   0.04886   0.29055   0.00000  Uiso   1.00
O546   O     0.41597   0.34909   0.60106   0.00000  Uiso   1.00
N547   N     0.45508   0.64588   0.85832   0.00000  Uiso   1.00
N548   N     0.58990   0.93806   0.38927   0.00000  Uiso   1.00
N549   N     0.39555   0.43941   0.61051   0.00000  Uiso   1.00
N550   N     0.56418   0.65481   0.84652   0.00000  Uiso   1.00
N551   N     0.69900   0.94700   0.37748   0.00000  Uiso   1.00
N552   N     0.50466   0.44835   0.59872   0.00000  Uiso   1.00
