data_job_04936
_audit_creation_date              2018-12-19
_audit_creation_method            'Materials Studio'
_symmetry_space_group_name_H-M    'P1'
_symmetry_Int_Tables_number       1
_symmetry_cell_setting            triclinic
loop_
_symmetry_equiv_pos_as_xyz
  x,y,z
_cell_length_a                    27.5642
_cell_length_b                    19.0024
_cell_length_c                    10.2151
_cell_angle_alpha                 90.0000
_cell_angle_beta                  90.0000
_cell_angle_gamma                 90.0000
loop_
_atom_site_label
_atom_site_type_symbol
_atom_site_fract_x
_atom_site_fract_y
_atom_site_fract_z
_atom_site_U_iso_or_equiv
_atom_site_adp_type
_atom_site_occupancy
C1     C     0.64429   0.46635   0.37462   0.00000  Uiso   1.00
C2     C     0.66508   0.40590   0.45522   0.00000  Uiso   1.00
C3     C     0.71012   0.37481   0.43689   0.00000  Uiso   1.00
C4     C     0.72245   0.32021   0.52086   0.00000  Uiso   1.00
C5     C     0.75952   0.22977   0.63095   0.00000  Uiso   1.00
C6     C     0.59591   0.44014   0.32107   0.00000  Uiso   1.00
C7     C     0.58281   0.43784   0.18996   0.00000  Uiso   1.00
C8     C     0.53691   0.41208   0.16102   0.00000  Uiso   1.00
C9     C     0.46660   0.37484   0.06285   0.00000  Uiso   1.00
C10    C     0.63199   0.52444   0.47210   0.00000  Uiso   1.00
C11    C     0.64920   0.59304   0.46796   0.00000  Uiso   1.00
C12    C     0.63366   0.63825   0.56616   0.00000  Uiso   1.00
C13    C     0.61936   0.73191   0.70248   0.00000  Uiso   1.00
C14    C     0.58608   0.42468   0.55634   0.00000  Uiso   1.00
C15    C     0.63345   0.38326   0.55392   0.00000  Uiso   1.00
C16    C     0.64572   0.32870   0.63795   0.00000  Uiso   1.00
C17    C     0.69078   0.29754   0.61975   0.00000  Uiso   1.00
C18    C     0.56429   0.41750   0.41977   0.00000  Uiso   1.00
C19    C     0.51840   0.39174   0.39101   0.00000  Uiso   1.00
C20    C     0.50523   0.38940   0.25990   0.00000  Uiso   1.00
C21    C     0.60037   0.50181   0.57081   0.00000  Uiso   1.00
C22    C     0.58480   0.54693   0.66902   0.00000  Uiso   1.00
C23    C     0.60198   0.61558   0.66504   0.00000  Uiso   1.00
H24    H     0.66890   0.48397   0.29778   0.00000  Uiso   1.00
H25    H     0.73458   0.39233   0.36049   0.00000  Uiso   1.00
H26    H     0.60728   0.45537   0.11360   0.00000  Uiso   1.00
H27    H     0.67367   0.61053   0.39157   0.00000  Uiso   1.00
H28    H     0.79344   0.28074   0.47352   0.00000  Uiso   1.00
H29    H     0.52502   0.41368   0.95295   0.00000  Uiso   1.00
H30    H     0.66501   0.74088   0.53908   0.00000  Uiso   1.00
H31    H     0.56146   0.40705   0.63319   0.00000  Uiso   1.00
H32    H     0.62124   0.31120   0.71432   0.00000  Uiso   1.00
H33    H     0.49394   0.37423   0.46742   0.00000  Uiso   1.00
H34    H     0.56033   0.52940   0.74539   0.00000  Uiso   1.00
H35    H     0.70145   0.21489   0.76069   0.00000  Uiso   1.00
H36    H     0.43303   0.34782   0.24012   0.00000  Uiso   1.00
H37    H     0.57301   0.67502   0.82626   0.00000  Uiso   1.00
O38    O     0.78871   0.18613   0.66439   0.00000  Uiso   1.00
O39    O     0.43655   0.36055   0.98143   0.00000  Uiso   1.00
O40    O     0.62020   0.78982   0.75042   0.00000  Uiso   1.00
N41    N     0.76359   0.27841   0.52999   0.00000  Uiso   1.00
N42    N     0.51264   0.40268   0.04328   0.00000  Uiso   1.00
N43    N     0.64350   0.70859   0.59125   0.00000  Uiso   1.00
N44    N     0.71409   0.24297   0.68451   0.00000  Uiso   1.00
N45    N     0.46314   0.36725   0.19781   0.00000  Uiso   1.00
N46    N     0.59400   0.67316   0.74578   0.00000  Uiso   1.00
C47    C     0.15672   0.47801   0.54867   0.00000  Uiso   1.00
C48    C     0.16818   0.42082   0.64871   0.00000  Uiso   1.00
C49    C     0.21379   0.39315   0.67432   0.00000  Uiso   1.00
C50    C     0.21669   0.34115   0.76949   0.00000  Uiso   1.00
C51    C     0.24076   0.25588   0.91458   0.00000  Uiso   1.00
C52    C     0.11846   0.44696   0.45761   0.00000  Uiso   1.00
C53    C     0.12228   0.44129   0.32255   0.00000  Uiso   1.00
C54    C     0.08332   0.41131   0.25685   0.00000  Uiso   1.00
C55    C     0.03019   0.36668   0.10525   0.00000  Uiso   1.00
C56    C     0.13146   0.53670   0.62429   0.00000  Uiso   1.00
C57    C     0.14619   0.60648   0.62935   0.00000  Uiso   1.00
C58    C     0.11817   0.65207   0.70396   0.00000  Uiso   1.00
C59    C     0.08521   0.74676   0.81115   0.00000  Uiso   1.00
C60    C     0.08075   0.43488   0.67214   0.00000  Uiso   1.00
C61    C     0.12691   0.39739   0.71577   0.00000  Uiso   1.00
C62    C     0.12974   0.34543   0.81093   0.00000  Uiso   1.00
C63    C     0.17536   0.31769   0.83668   0.00000  Uiso   1.00
C64    C     0.07720   0.42353   0.52467   0.00000  Uiso   1.00
C65    C     0.03823   0.39357   0.45916   0.00000  Uiso   1.00
C66    C     0.04198   0.38784   0.32404   0.00000  Uiso   1.00
C67    C     0.09019   0.51327   0.69136   0.00000  Uiso   1.00
C68    C     0.06214   0.55876   0.76597   0.00000  Uiso   1.00
C69    C     0.07683   0.62860   0.77115   0.00000  Uiso   1.00
H70    H     0.18884   0.49625   0.49644   0.00000  Uiso   1.00
H71    H     0.24572   0.41129   0.62239   0.00000  Uiso   1.00
H72    H     0.15421   0.45943   0.27067   0.00000  Uiso   1.00
H73    H     0.17812   0.62459   0.57744   0.00000  Uiso   1.00
H74    H     0.29057   0.30674   0.79156   0.00000  Uiso   1.00
H75    H     0.09762   0.40827   0.04995   0.00000  Uiso   1.00
H76    H     0.14804   0.75655   0.69681   0.00000  Uiso   1.00
H77    H     0.04862   0.41664   0.72435   0.00000  Uiso   1.00
H78    H     0.09780   0.32731   0.86281   0.00000  Uiso   1.00
H79    H     0.00630   0.37545   0.51109   0.00000  Uiso   1.00
H80    H     0.03021   0.54061   0.81785   0.00000  Uiso   1.00
H81    H     0.17052   0.23857   0.98670   0.00000  Uiso   1.00
H82    H     0.97757   0.34011   0.24508   0.00000  Uiso   1.00
H83    H     0.02799   0.68839   0.89194   0.00000  Uiso   1.00
O84    O     0.26543   0.21531   0.97607   0.00000  Uiso   1.00
O85    O     0.01228   0.34853   0.00310   0.00000  Uiso   1.00
O86    O     0.07844   0.80547   0.85177   0.00000  Uiso   1.00
N87    N     0.25557   0.30297   0.81850   0.00000  Uiso   1.00
N88    N     0.07518   0.39788   0.12514   0.00000  Uiso   1.00
N89    N     0.12231   0.72350   0.72987   0.00000  Uiso   1.00
N90    N     0.19097   0.26629   0.92351   0.00000  Uiso   1.00
N91    N     0.01058   0.36120   0.23014   0.00000  Uiso   1.00
N92    N     0.05771   0.68682   0.83487   0.00000  Uiso   1.00
C93    C     0.35571   0.53365   0.37462   0.00000  Uiso   1.00
C94    C     0.33492   0.59410   0.45522   0.00000  Uiso   1.00
C95    C     0.28988   0.62519   0.43689   0.00000  Uiso   1.00
C96    C     0.27755   0.67979   0.52086   0.00000  Uiso   1.00
C97    C     0.24048   0.77023   0.63095   0.00000  Uiso   1.00
C98    C     0.40409   0.55986   0.32107   0.00000  Uiso   1.00
C99    C     0.41719   0.56216   0.18996   0.00000  Uiso   1.00
C100   C     0.46309   0.58792   0.16102   0.00000  Uiso   1.00
C101   C     0.53340   0.62516   0.06285   0.00000  Uiso   1.00
C102   C     0.36801   0.47556   0.47210   0.00000  Uiso   1.00
C103   C     0.35080   0.40696   0.46796   0.00000  Uiso   1.00
C104   C     0.36634   0.36175   0.56616   0.00000  Uiso   1.00
C105   C     0.38064   0.26809   0.70248   0.00000  Uiso   1.00
C106   C     0.41392   0.57532   0.55634   0.00000  Uiso   1.00
C107   C     0.36655   0.61674   0.55392   0.00000  Uiso   1.00
C108   C     0.35428   0.67130   0.63795   0.00000  Uiso   1.00
C109   C     0.30922   0.70246   0.61975   0.00000  Uiso   1.00
C110   C     0.43571   0.58250   0.41977   0.00000  Uiso   1.00
C111   C     0.48160   0.60826   0.39101   0.00000  Uiso   1.00
C112   C     0.49477   0.61060   0.25990   0.00000  Uiso   1.00
C113   C     0.39963   0.49819   0.57081   0.00000  Uiso   1.00
C114   C     0.41520   0.45307   0.66902   0.00000  Uiso   1.00
C115   C     0.39802   0.38442   0.66504   0.00000  Uiso   1.00
H116   H     0.33110   0.51603   0.29778   0.00000  Uiso   1.00
H117   H     0.26542   0.60767   0.36049   0.00000  Uiso   1.00
H118   H     0.39272   0.54463   0.11360   0.00000  Uiso   1.00
H119   H     0.32633   0.38947   0.39157   0.00000  Uiso   1.00
H120   H     0.20656   0.71926   0.47352   0.00000  Uiso   1.00
H121   H     0.47498   0.58632   0.95295   0.00000  Uiso   1.00
H122   H     0.33499   0.25912   0.53908   0.00000  Uiso   1.00
H123   H     0.43854   0.59295   0.63319   0.00000  Uiso   1.00
H124   H     0.37876   0.68880   0.71432   0.00000  Uiso   1.00
H125   H     0.50606   0.62577   0.46742   0.00000  Uiso   1.00
H126   H     0.43967   0.47060   0.74539   0.00000  Uiso   1.00
H127   H     0.29855   0.78511   0.76069   0.00000  Uiso   1.00
H128   H     0.56697   0.65218   0.24012   0.00000  Uiso   1.00
H129   H     0.42699   0.32498   0.82626   0.00000  Uiso   1.00
O130   O     0.21129   0.81387   0.66439   0.00000  Uiso   1.00
O131   O     0.56345   0.63945   0.98143   0.00000  Uiso   1.00
O132   O     0.37980   0.21018   0.75042   0.00000  Uiso   1.00
N133   N     0.23641   0.72159   0.52999   0.00000  Uiso   1.00
N134   N     0.48736   0.59732   0.04328   0.00000  Uiso   1.00
N135   N     0.35650   0.29141   0.59125   0.00000  Uiso   1.00
N136   N     0.28591   0.75703   0.68451   0.00000  Uiso   1.00
N137   N     0.53686   0.63275   0.19781   0.00000  Uiso   1.00
N138   N     0.40600   0.32684   0.74578   0.00000  Uiso   1.00
C139   C     0.84328   0.52199   0.54867   0.00000  Uiso   1.00
C140   C     0.83182   0.57918   0.64871   0.00000  Uiso   1.00
C141   C     0.78621   0.60685   0.67432   0.00000  Uiso   1.00
C142   C     0.78331   0.65885   0.76949   0.00000  Uiso   1.00
C143   C     0.75924   0.74412   0.91458   0.00000  Uiso   1.00
C144   C     0.88154   0.55304   0.45761   0.00000  Uiso   1.00
C145   C     0.87772   0.55871   0.32255   0.00000  Uiso   1.00
C146   C     0.91668   0.58869   0.25685   0.00000  Uiso   1.00
C147   C     0.96981   0.63332   0.10525   0.00000  Uiso   1.00
C148   C     0.86854   0.46330   0.62429   0.00000  Uiso   1.00
C149   C     0.85381   0.39352   0.62935   0.00000  Uiso   1.00
C150   C     0.88183   0.34793   0.70396   0.00000  Uiso   1.00
C151   C     0.91479   0.25324   0.81115   0.00000  Uiso   1.00
C152   C     0.91925   0.56512   0.67214   0.00000  Uiso   1.00
C153   C     0.87309   0.60261   0.71577   0.00000  Uiso   1.00
C154   C     0.87026   0.65457   0.81093   0.00000  Uiso   1.00
C155   C     0.82464   0.68231   0.83668   0.00000  Uiso   1.00
C156   C     0.92280   0.57647   0.52467   0.00000  Uiso   1.00
C157   C     0.96177   0.60643   0.45916   0.00000  Uiso   1.00
C158   C     0.95802   0.61216   0.32404   0.00000  Uiso   1.00
C159   C     0.90981   0.48673   0.69136   0.00000  Uiso   1.00
C160   C     0.93786   0.44124   0.76597   0.00000  Uiso   1.00
C161   C     0.92317   0.37140   0.77115   0.00000  Uiso   1.00
H162   H     0.81116   0.50375   0.49644   0.00000  Uiso   1.00
H163   H     0.75428   0.58871   0.62239   0.00000  Uiso   1.00
H164   H     0.84579   0.54057   0.27067   0.00000  Uiso   1.00
H165   H     0.82188   0.37541   0.57744   0.00000  Uiso   1.00
H166   H     0.70943   0.69326   0.79156   0.00000  Uiso   1.00
H167   H     0.90238   0.59173   0.04995   0.00000  Uiso   1.00
H168   H     0.85196   0.24345   0.69681   0.00000  Uiso   1.00
H169   H     0.95138   0.58336   0.72435   0.00000  Uiso   1.00
H170   H     0.90220   0.67269   0.86281   0.00000  Uiso   1.00
H171   H     0.99370   0.62455   0.51109   0.00000  Uiso   1.00
H172   H     0.96979   0.45939   0.81785   0.00000  Uiso   1.00
H173   H     0.82948   0.76143   0.98670   0.00000  Uiso   1.00
H174   H     0.02243   0.65989   0.24508   0.00000  Uiso   1.00
H175   H     0.97201   0.31161   0.89194   0.00000  Uiso   1.00
O176   O     0.73457   0.78469   0.97607   0.00000  Uiso   1.00
O177   O     0.98772   0.65147   0.00310   0.00000  Uiso   1.00
O178   O     0.92156   0.19453   0.85177   0.00000  Uiso   1.00
N179   N     0.74443   0.69703   0.81850   0.00000  Uiso   1.00
N180   N     0.92482   0.60212   0.12514   0.00000  Uiso   1.00
N181   N     0.87769   0.27650   0.72987   0.00000  Uiso   1.00
N182   N     0.80903   0.73371   0.92351   0.00000  Uiso   1.00
N183   N     0.98942   0.63880   0.23014   0.00000  Uiso   1.00
N184   N     0.94229   0.31318   0.83487   0.00000  Uiso   1.00
C185   C     0.64429   0.03365   0.87462   0.00000  Uiso   1.00
C186   C     0.66508   0.09410   0.95522   0.00000  Uiso   1.00
C187   C     0.71012   0.12519   0.93689   0.00000  Uiso   1.00
C188   C     0.72245   0.17979   0.02086   0.00000  Uiso   1.00
C189   C     0.75952   0.27023   0.13095   0.00000  Uiso   1.00
C190   C     0.59591   0.05986   0.82107   0.00000  Uiso   1.00
C191   C     0.58281   0.06216   0.68996   0.00000  Uiso   1.00
C192   C     0.53691   0.08792   0.66102   0.00000  Uiso   1.00
C193   C     0.46660   0.12516   0.56285   0.00000  Uiso   1.00
C194   C     0.63199   0.97556   0.97210   0.00000  Uiso   1.00
C195   C     0.64920   0.90696   0.96796   0.00000  Uiso   1.00
C196   C     0.63366   0.86175   0.06616   0.00000  Uiso   1.00
C197   C     0.61936   0.76809   0.20248   0.00000  Uiso   1.00
C198   C     0.58608   0.07532   0.05634   0.00000  Uiso   1.00
C199   C     0.63345   0.11674   0.05392   0.00000  Uiso   1.00
C200   C     0.64572   0.17130   0.13795   0.00000  Uiso   1.00
C201   C     0.69078   0.20246   0.11975   0.00000  Uiso   1.00
C202   C     0.56429   0.08250   0.91977   0.00000  Uiso   1.00
C203   C     0.51840   0.10826   0.89101   0.00000  Uiso   1.00
C204   C     0.50523   0.11060   0.75990   0.00000  Uiso   1.00
C205   C     0.60037   0.99819   0.07081   0.00000  Uiso   1.00
C206   C     0.58480   0.95307   0.16902   0.00000  Uiso   1.00
C207   C     0.60198   0.88442   0.16504   0.00000  Uiso   1.00
H208   H     0.66890   0.01603   0.79778   0.00000  Uiso   1.00
H209   H     0.73458   0.10767   0.86049   0.00000  Uiso   1.00
H210   H     0.60728   0.04463   0.61360   0.00000  Uiso   1.00
H211   H     0.67367   0.88947   0.89157   0.00000  Uiso   1.00
H212   H     0.79344   0.21926   0.97352   0.00000  Uiso   1.00
H213   H     0.52502   0.08632   0.45295   0.00000  Uiso   1.00
H214   H     0.66501   0.75912   0.03908   0.00000  Uiso   1.00
H215   H     0.56146   0.09295   0.13319   0.00000  Uiso   1.00
H216   H     0.62124   0.18880   0.21432   0.00000  Uiso   1.00
H217   H     0.49394   0.12577   0.96742   0.00000  Uiso   1.00
H218   H     0.56033   0.97060   0.24539   0.00000  Uiso   1.00
H219   H     0.70145   0.28511   0.26069   0.00000  Uiso   1.00
H220   H     0.43303   0.15218   0.74012   0.00000  Uiso   1.00
H221   H     0.57301   0.82498   0.32626   0.00000  Uiso   1.00
O222   O     0.78871   0.31387   0.16439   0.00000  Uiso   1.00
O223   O     0.43655   0.13945   0.48143   0.00000  Uiso   1.00
O224   O     0.62020   0.71018   0.25042   0.00000  Uiso   1.00
N225   N     0.76359   0.22159   0.02999   0.00000  Uiso   1.00
N226   N     0.51264   0.09732   0.54328   0.00000  Uiso   1.00
N227   N     0.64350   0.79141   0.09125   0.00000  Uiso   1.00
N228   N     0.71409   0.25703   0.18451   0.00000  Uiso   1.00
N229   N     0.46314   0.13275   0.69781   0.00000  Uiso   1.00
N230   N     0.59400   0.82684   0.24578   0.00000  Uiso   1.00
C231   C     0.15672   0.02199   0.04867   0.00000  Uiso   1.00
C232   C     0.16818   0.07918   0.14871   0.00000  Uiso   1.00
C233   C     0.21379   0.10685   0.17432   0.00000  Uiso   1.00
C234   C     0.21669   0.15885   0.26949   0.00000  Uiso   1.00
C235   C     0.24076   0.24412   0.41458   0.00000  Uiso   1.00
C236   C     0.11846   0.05304   0.95761   0.00000  Uiso   1.00
C237   C     0.12228   0.05871   0.82255   0.00000  Uiso   1.00
C238   C     0.08332   0.08869   0.75685   0.00000  Uiso   1.00
C239   C     0.03019   0.13332   0.60525   0.00000  Uiso   1.00
C240   C     0.13146   0.96330   0.12429   0.00000  Uiso   1.00
C241   C     0.14619   0.89352   0.12935   0.00000  Uiso   1.00
C242   C     0.11817   0.84793   0.20396   0.00000  Uiso   1.00
C243   C     0.08521   0.75324   0.31115   0.00000  Uiso   1.00
C244   C     0.08075   0.06512   0.17214   0.00000  Uiso   1.00
C245   C     0.12691   0.10261   0.21577   0.00000  Uiso   1.00
C246   C     0.12974   0.15457   0.31093   0.00000  Uiso   1.00
C247   C     0.17536   0.18231   0.33668   0.00000  Uiso   1.00
C248   C     0.07720   0.07647   0.02467   0.00000  Uiso   1.00
C249   C     0.03823   0.10643   0.95916   0.00000  Uiso   1.00
C250   C     0.04198   0.11216   0.82404   0.00000  Uiso   1.00
C251   C     0.09019   0.98673   0.19136   0.00000  Uiso   1.00
C252   C     0.06214   0.94124   0.26597   0.00000  Uiso   1.00
C253   C     0.07683   0.87140   0.27115   0.00000  Uiso   1.00
H254   H     0.18884   0.00375   0.99644   0.00000  Uiso   1.00
H255   H     0.24572   0.08871   0.12239   0.00000  Uiso   1.00
H256   H     0.15421   0.04057   0.77067   0.00000  Uiso   1.00
H257   H     0.17812   0.87541   0.07744   0.00000  Uiso   1.00
H258   H     0.29057   0.19326   0.29156   0.00000  Uiso   1.00
H259   H     0.09762   0.09173   0.54995   0.00000  Uiso   1.00
H260   H     0.14804   0.74345   0.19681   0.00000  Uiso   1.00
H261   H     0.04862   0.08336   0.22435   0.00000  Uiso   1.00
H262   H     0.09780   0.17269   0.36281   0.00000  Uiso   1.00
H263   H     0.00630   0.12455   0.01109   0.00000  Uiso   1.00
H264   H     0.03021   0.95939   0.31785   0.00000  Uiso   1.00
H265   H     0.17052   0.26143   0.48670   0.00000  Uiso   1.00
H266   H     0.97757   0.15989   0.74508   0.00000  Uiso   1.00
H267   H     0.02799   0.81161   0.39194   0.00000  Uiso   1.00
O268   O     0.26543   0.28469   0.47607   0.00000  Uiso   1.00
O269   O     0.01228   0.15147   0.50310   0.00000  Uiso   1.00
O270   O     0.07844   0.69453   0.35177   0.00000  Uiso   1.00
N271   N     0.25557   0.19703   0.31850   0.00000  Uiso   1.00
N272   N     0.07518   0.10212   0.62514   0.00000  Uiso   1.00
N273   N     0.12231   0.77650   0.22987   0.00000  Uiso   1.00
N274   N     0.19097   0.23371   0.42351   0.00000  Uiso   1.00
N275   N     0.01058   0.13880   0.73014   0.00000  Uiso   1.00
N276   N     0.05771   0.81318   0.33487   0.00000  Uiso   1.00
C277   C     0.35571   0.96635   0.87462   0.00000  Uiso   1.00
C278   C     0.33492   0.90590   0.95522   0.00000  Uiso   1.00
C279   C     0.28988   0.87481   0.93689   0.00000  Uiso   1.00
C280   C     0.27755   0.82021   0.02086   0.00000  Uiso   1.00
C281   C     0.24048   0.72977   0.13095   0.00000  Uiso   1.00
C282   C     0.40409   0.94014   0.82107   0.00000  Uiso   1.00
C283   C     0.41719   0.93784   0.68996   0.00000  Uiso   1.00
C284   C     0.46309   0.91208   0.66102   0.00000  Uiso   1.00
C285   C     0.53340   0.87484   0.56285   0.00000  Uiso   1.00
C286   C     0.36801   0.02444   0.97210   0.00000  Uiso   1.00
C287   C     0.35080   0.09304   0.96796   0.00000  Uiso   1.00
C288   C     0.36634   0.13825   0.06616   0.00000  Uiso   1.00
C289   C     0.38064   0.23191   0.20248   0.00000  Uiso   1.00
C290   C     0.41392   0.92468   0.05634   0.00000  Uiso   1.00
C291   C     0.36655   0.88326   0.05392   0.00000  Uiso   1.00
C292   C     0.35428   0.82870   0.13795   0.00000  Uiso   1.00
C293   C     0.30922   0.79754   0.11975   0.00000  Uiso   1.00
C294   C     0.43571   0.91750   0.91977   0.00000  Uiso   1.00
C295   C     0.48160   0.89174   0.89101   0.00000  Uiso   1.00
C296   C     0.49477   0.88940   0.75990   0.00000  Uiso   1.00
C297   C     0.39963   0.00181   0.07081   0.00000  Uiso   1.00
C298   C     0.41520   0.04693   0.16902   0.00000  Uiso   1.00
C299   C     0.39802   0.11558   0.16504   0.00000  Uiso   1.00
H300   H     0.33110   0.98397   0.79778   0.00000  Uiso   1.00
H301   H     0.26542   0.89233   0.86049   0.00000  Uiso   1.00
H302   H     0.39272   0.95537   0.61360   0.00000  Uiso   1.00
H303   H     0.32633   0.11053   0.89157   0.00000  Uiso   1.00
H304   H     0.20656   0.78074   0.97352   0.00000  Uiso   1.00
H305   H     0.47498   0.91368   0.45295   0.00000  Uiso   1.00
H306   H     0.33499   0.24088   0.03908   0.00000  Uiso   1.00
H307   H     0.43854   0.90705   0.13319   0.00000  Uiso   1.00
H308   H     0.37876   0.81120   0.21432   0.00000  Uiso   1.00
H309   H     0.50606   0.87423   0.96742   0.00000  Uiso   1.00
H310   H     0.43967   0.02940   0.24539   0.00000  Uiso   1.00
H311   H     0.29855   0.71489   0.26069   0.00000  Uiso   1.00
H312   H     0.56697   0.84782   0.74012   0.00000  Uiso   1.00
H313   H     0.42699   0.17502   0.32626   0.00000  Uiso   1.00
O314   O     0.21129   0.68613   0.16439   0.00000  Uiso   1.00
O315   O     0.56345   0.86055   0.48143   0.00000  Uiso   1.00
O316   O     0.37980   0.28982   0.25042   0.00000  Uiso   1.00
N317   N     0.23641   0.77841   0.02999   0.00000  Uiso   1.00
N318   N     0.48736   0.90268   0.54328   0.00000  Uiso   1.00
N319   N     0.35650   0.20859   0.09125   0.00000  Uiso   1.00
N320   N     0.28591   0.74297   0.18451   0.00000  Uiso   1.00
N321   N     0.53686   0.86725   0.69781   0.00000  Uiso   1.00
N322   N     0.40600   0.17316   0.24578   0.00000  Uiso   1.00
C323   C     0.84328   0.97801   0.04867   0.00000  Uiso   1.00
C324   C     0.83182   0.92082   0.14871   0.00000  Uiso   1.00
C325   C     0.78621   0.89315   0.17432   0.00000  Uiso   1.00
C326   C     0.78331   0.84115   0.26949   0.00000  Uiso   1.00
C327   C     0.75924   0.75588   0.41458   0.00000  Uiso   1.00
C328   C     0.88154   0.94696   0.95761   0.00000  Uiso   1.00
C329   C     0.87772   0.94129   0.82255   0.00000  Uiso   1.00
C330   C     0.91668   0.91131   0.75685   0.00000  Uiso   1.00
C331   C     0.96981   0.86668   0.60525   0.00000  Uiso   1.00
C332   C     0.86854   0.03670   0.12429   0.00000  Uiso   1.00
C333   C     0.85381   0.10648   0.12935   0.00000  Uiso   1.00
C334   C     0.88183   0.15207   0.20396   0.00000  Uiso   1.00
C335   C     0.91479   0.24676   0.31115   0.00000  Uiso   1.00
C336   C     0.91925   0.93488   0.17214   0.00000  Uiso   1.00
C337   C     0.87309   0.89739   0.21577   0.00000  Uiso   1.00
C338   C     0.87026   0.84543   0.31093   0.00000  Uiso   1.00
C339   C     0.82464   0.81769   0.33668   0.00000  Uiso   1.00
C340   C     0.92280   0.92353   0.02467   0.00000  Uiso   1.00
C341   C     0.96177   0.89357   0.95916   0.00000  Uiso   1.00
C342   C     0.95802   0.88784   0.82404   0.00000  Uiso   1.00
C343   C     0.90981   0.01327   0.19136   0.00000  Uiso   1.00
C344   C     0.93786   0.05876   0.26597   0.00000  Uiso   1.00
C345   C     0.92317   0.12860   0.27115   0.00000  Uiso   1.00
H346   H     0.81116   0.99625   0.99644   0.00000  Uiso   1.00
H347   H     0.75428   0.91129   0.12239   0.00000  Uiso   1.00
H348   H     0.84579   0.95943   0.77067   0.00000  Uiso   1.00
H349   H     0.82188   0.12459   0.07744   0.00000  Uiso   1.00
H350   H     0.70943   0.80674   0.29156   0.00000  Uiso   1.00
H351   H     0.90238   0.90827   0.54995   0.00000  Uiso   1.00
H352   H     0.85196   0.25655   0.19681   0.00000  Uiso   1.00
H353   H     0.95138   0.91664   0.22435   0.00000  Uiso   1.00
H354   H     0.90220   0.82731   0.36281   0.00000  Uiso   1.00
H355   H     0.99370   0.87545   0.01109   0.00000  Uiso   1.00
H356   H     0.96979   0.04061   0.31785   0.00000  Uiso   1.00
H357   H     0.82948   0.73857   0.48670   0.00000  Uiso   1.00
H358   H     0.02243   0.84011   0.74508   0.00000  Uiso   1.00
H359   H     0.97201   0.18839   0.39194   0.00000  Uiso   1.00
O360   O     0.73457   0.71531   0.47607   0.00000  Uiso   1.00
O361   O     0.98772   0.84853   0.50310   0.00000  Uiso   1.00
O362   O     0.92156   0.30547   0.35177   0.00000  Uiso   1.00
N363   N     0.74443   0.80297   0.31850   0.00000  Uiso   1.00
N364   N     0.92482   0.89788   0.62514   0.00000  Uiso   1.00
N365   N     0.87769   0.22350   0.22987   0.00000  Uiso   1.00
N366   N     0.80903   0.76629   0.42351   0.00000  Uiso   1.00
N367   N     0.98942   0.86120   0.73014   0.00000  Uiso   1.00
N368   N     0.94229   0.18682   0.33487   0.00000  Uiso   1.00
