data_job_05734
_audit_creation_date              2018-12-19
_audit_creation_method            'Materials Studio'
_symmetry_space_group_name_H-M    'P1'
_symmetry_Int_Tables_number       1
_symmetry_cell_setting            triclinic
loop_
_symmetry_equiv_pos_as_xyz
  x,y,z
_cell_length_a                    16.2006
_cell_length_b                    10.6619
_cell_length_c                    28.4539
_cell_angle_alpha                 90.0000
_cell_angle_beta                  108.7650
_cell_angle_gamma                 90.0000
loop_
_atom_site_label
_atom_site_type_symbol
_atom_site_fract_x
_atom_site_fract_y
_atom_site_fract_z
_atom_site_U_iso_or_equiv
_atom_site_adp_type
_atom_site_occupancy
C1     C     0.22488   0.63364   0.16633   0.00000  Uiso   1.00
C2     C     0.15178   0.70104   0.12683   0.00000  Uiso   1.00
C3     C     0.07910   0.75583   0.13406   0.00000  Uiso   1.00
C4     C     0.01965   0.81290   0.09323   0.00000  Uiso   1.00
C5     C     0.90416   0.91718   0.03896   0.00000  Uiso   1.00
C6     C     0.23006   0.50263   0.14595   0.00000  Uiso   1.00
C7     C     0.22321   0.39061   0.16926   0.00000  Uiso   1.00
C8     C     0.22967   0.28066   0.14452   0.00000  Uiso   1.00
C9     C     0.23579   0.07691   0.11995   0.00000  Uiso   1.00
C10    C     0.30903   0.69993   0.16769   0.00000  Uiso   1.00
C11    C     0.36858   0.75377   0.20928   0.00000  Uiso   1.00
C12    C     0.44154   0.80992   0.20285   0.00000  Uiso   1.00
C13    C     0.57025   0.91250   0.21203   0.00000  Uiso   1.00
C14    C     0.24856   0.63758   0.08096   0.00000  Uiso   1.00
C15    C     0.16465   0.70318   0.08047   0.00000  Uiso   1.00
C16    C     0.10530   0.76019   0.03962   0.00000  Uiso   1.00
C17    C     0.03253   0.81506   0.04679   0.00000  Uiso   1.00
C18    C     0.24293   0.50477   0.09959   0.00000  Uiso   1.00
C19    C     0.24941   0.39497   0.07482   0.00000  Uiso   1.00
C20    C     0.24256   0.28281   0.09808   0.00000  Uiso   1.00
C21    C     0.32189   0.70208   0.12133   0.00000  Uiso   1.00
C22    C     0.39477   0.75814   0.11484   0.00000  Uiso   1.00
C23    C     0.45442   0.81206   0.15640   0.00000  Uiso   1.00
H24    H     0.21487   0.63196   0.20242   0.00000  Uiso   1.00
H25    H     0.06916   0.75414   0.16995   0.00000  Uiso   1.00
H26    H     0.21326   0.38898   0.20514   0.00000  Uiso   1.00
H27    H     0.35861   0.75209   0.24515   0.00000  Uiso   1.00
H28    H     0.91327   0.89050   0.11349   0.00000  Uiso   1.00
H29    H     0.21715   0.12054   0.18770   0.00000  Uiso   1.00
H30    H     0.52363   0.88623   0.27208   0.00000  Uiso   1.00
H31    H     0.25858   0.63925   0.04487   0.00000  Uiso   1.00
H32    H     0.11527   0.76183   0.00374   0.00000  Uiso   1.00
H33    H     0.25937   0.39666   0.03894   0.00000  Uiso   1.00
H34    H     0.40471   0.75978   0.07895   0.00000  Uiso   1.00
H35    H     0.95069   0.89674   0.97860   0.00000  Uiso   1.00
H36    H     0.25457   0.12677   0.05281   0.00000  Uiso   1.00
H37    H     0.56105   0.89247   0.13719   0.00000  Uiso   1.00
O38    O     0.83690   0.97409   0.02183   0.00000  Uiso   1.00
O39    O     0.23560   0.96393   0.11920   0.00000  Uiso   1.00
O40    O     0.63769   0.96851   0.22990   0.00000  Uiso   1.00
N41    N     0.94176   0.87517   0.08739   0.00000  Uiso   1.00
N42    N     0.22585   0.15529   0.15677   0.00000  Uiso   1.00
N43    N     0.51240   0.87113   0.23566   0.00000  Uiso   1.00
N44    N     0.96189   0.87853   0.01480   0.00000  Uiso   1.00
N45    N     0.24598   0.15865   0.08418   0.00000  Uiso   1.00
N46    N     0.53253   0.87448   0.16307   0.00000  Uiso   1.00
C47    C     0.72664   0.04428   0.66661   0.00000  Uiso   1.00
C48    C     0.65357   0.10948   0.62633   0.00000  Uiso   1.00
C49    C     0.58096   0.16621   0.63290   0.00000  Uiso   1.00
C50    C     0.52153   0.22071   0.59140   0.00000  Uiso   1.00
C51    C     0.40611   0.32223   0.53590   0.00000  Uiso   1.00
C52    C     0.73166   0.91145   0.64786   0.00000  Uiso   1.00
C53    C     0.72473   0.80168   0.67253   0.00000  Uiso   1.00
C54    C     0.73106   0.68948   0.64916   0.00000  Uiso   1.00
C55    C     0.73694   0.48354   0.62710   0.00000  Uiso   1.00
C56    C     0.81083   0.10912   0.66714   0.00000  Uiso   1.00
C57    C     0.87048   0.16553   0.70803   0.00000  Uiso   1.00
C58    C     0.94346   0.21974   0.70090   0.00000  Uiso   1.00
C59    C     0.07226   0.32072   0.70877   0.00000  Uiso   1.00
C60    C     0.75021   0.04020   0.58122   0.00000  Uiso   1.00
C61    C     0.66637   0.10726   0.57995   0.00000  Uiso   1.00
C62    C     0.60704   0.16170   0.53843   0.00000  Uiso   1.00
C63    C     0.53436   0.21850   0.54494   0.00000  Uiso   1.00
C64    C     0.74446   0.90923   0.60148   0.00000  Uiso   1.00
C65    C     0.75081   0.79716   0.57806   0.00000  Uiso   1.00
C66    C     0.74388   0.68725   0.60270   0.00000  Uiso   1.00
C67    C     0.82363   0.10691   0.62076   0.00000  Uiso   1.00
C68    C     0.89654   0.16102   0.61356   0.00000  Uiso   1.00
C69    C     0.95629   0.21751   0.65443   0.00000  Uiso   1.00
H70    H     0.71667   0.04600   0.70272   0.00000  Uiso   1.00
H71    H     0.57108   0.16789   0.66880   0.00000  Uiso   1.00
H72    H     0.71484   0.80342   0.70843   0.00000  Uiso   1.00
H73    H     0.86055   0.16723   0.74392   0.00000  Uiso   1.00
H74    H     0.41529   0.30202   0.61073   0.00000  Uiso   1.00
H75    H     0.71843   0.53351   0.69430   0.00000  Uiso   1.00
H76    H     0.02570   0.30066   0.76914   0.00000  Uiso   1.00
H77    H     0.76017   0.03848   0.54511   0.00000  Uiso   1.00
H78    H     0.61696   0.15997   0.50254   0.00000  Uiso   1.00
H79    H     0.76072   0.79549   0.54217   0.00000  Uiso   1.00
H80    H     0.90643   0.15929   0.57766   0.00000  Uiso   1.00
H81    H     0.45252   0.29558   0.47579   0.00000  Uiso   1.00
H82    H     0.75568   0.52706   0.55936   0.00000  Uiso   1.00
H83    H     0.06294   0.29422   0.63420   0.00000  Uiso   1.00
O84    O     0.33890   0.37881   0.51809   0.00000  Uiso   1.00
O85    O     0.73663   0.37056   0.62774   0.00000  Uiso   1.00
O86    O     0.13975   0.37705   0.72593   0.00000  Uiso   1.00
N87    N     0.44371   0.28385   0.58482   0.00000  Uiso   1.00
N88    N     0.72712   0.56534   0.66294   0.00000  Uiso   1.00
N89    N     0.01441   0.28253   0.73292   0.00000  Uiso   1.00
N90    N     0.46375   0.28039   0.51221   0.00000  Uiso   1.00
N91    N     0.74716   0.56187   0.59033   0.00000  Uiso   1.00
N92    N     0.03444   0.27907   0.66031   0.00000  Uiso   1.00
C93    C     0.77512   0.13364   0.33367   0.00000  Uiso   1.00
C94    C     0.84822   0.20104   0.37317   0.00000  Uiso   1.00
C95    C     0.92090   0.25583   0.36594   0.00000  Uiso   1.00
C96    C     0.98035   0.31290   0.40677   0.00000  Uiso   1.00
C97    C     0.09584   0.41718   0.46104   0.00000  Uiso   1.00
C98    C     0.76994   0.00263   0.35405   0.00000  Uiso   1.00
C99    C     0.77679   0.89061   0.33074   0.00000  Uiso   1.00
C100   C     0.77033   0.78066   0.35548   0.00000  Uiso   1.00
C101   C     0.76421   0.57691   0.38005   0.00000  Uiso   1.00
C102   C     0.69097   0.19993   0.33231   0.00000  Uiso   1.00
C103   C     0.63142   0.25377   0.29072   0.00000  Uiso   1.00
C104   C     0.55846   0.30992   0.29715   0.00000  Uiso   1.00
C105   C     0.42975   0.41250   0.28797   0.00000  Uiso   1.00
C106   C     0.75144   0.13758   0.41904   0.00000  Uiso   1.00
C107   C     0.83535   0.20318   0.41953   0.00000  Uiso   1.00
C108   C     0.89470   0.26019   0.46038   0.00000  Uiso   1.00
C109   C     0.96747   0.31506   0.45321   0.00000  Uiso   1.00
C110   C     0.75707   0.00477   0.40041   0.00000  Uiso   1.00
C111   C     0.75059   0.89497   0.42518   0.00000  Uiso   1.00
C112   C     0.75744   0.78281   0.40192   0.00000  Uiso   1.00
C113   C     0.67811   0.20208   0.37867   0.00000  Uiso   1.00
C114   C     0.60523   0.25814   0.38516   0.00000  Uiso   1.00
C115   C     0.54558   0.31206   0.34360   0.00000  Uiso   1.00
H116   H     0.78513   0.13196   0.29758   0.00000  Uiso   1.00
H117   H     0.93084   0.25414   0.33005   0.00000  Uiso   1.00
H118   H     0.78674   0.88898   0.29486   0.00000  Uiso   1.00
H119   H     0.64139   0.25209   0.25485   0.00000  Uiso   1.00
H120   H     0.08673   0.39050   0.38651   0.00000  Uiso   1.00
H121   H     0.78285   0.62054   0.31230   0.00000  Uiso   1.00
H122   H     0.47637   0.38623   0.22792   0.00000  Uiso   1.00
H123   H     0.74142   0.13925   0.45513   0.00000  Uiso   1.00
H124   H     0.88473   0.26183   0.49626   0.00000  Uiso   1.00
H125   H     0.74063   0.89666   0.46106   0.00000  Uiso   1.00
H126   H     0.59529   0.25978   0.42105   0.00000  Uiso   1.00
H127   H     0.04931   0.39674   0.52140   0.00000  Uiso   1.00
H128   H     0.74543   0.62677   0.44719   0.00000  Uiso   1.00
H129   H     0.43895   0.39247   0.36281   0.00000  Uiso   1.00
O130   O     0.16310   0.47409   0.47817   0.00000  Uiso   1.00
O131   O     0.76440   0.46393   0.38080   0.00000  Uiso   1.00
O132   O     0.36231   0.46851   0.27010   0.00000  Uiso   1.00
N133   N     0.05824   0.37517   0.41261   0.00000  Uiso   1.00
N134   N     0.77415   0.65529   0.34323   0.00000  Uiso   1.00
N135   N     0.48760   0.37113   0.26434   0.00000  Uiso   1.00
N136   N     0.03811   0.37853   0.48520   0.00000  Uiso   1.00
N137   N     0.75402   0.65865   0.41582   0.00000  Uiso   1.00
N138   N     0.46747   0.37448   0.33693   0.00000  Uiso   1.00
C139   C     0.27336   0.54428   0.83339   0.00000  Uiso   1.00
C140   C     0.34643   0.60948   0.87367   0.00000  Uiso   1.00
C141   C     0.41904   0.66621   0.86710   0.00000  Uiso   1.00
C142   C     0.47847   0.72071   0.90860   0.00000  Uiso   1.00
C143   C     0.59389   0.82223   0.96410   0.00000  Uiso   1.00
C144   C     0.26834   0.41145   0.85214   0.00000  Uiso   1.00
C145   C     0.27527   0.30168   0.82747   0.00000  Uiso   1.00
C146   C     0.26894   0.18948   0.85084   0.00000  Uiso   1.00
C147   C     0.26306   0.98354   0.87290   0.00000  Uiso   1.00
C148   C     0.18917   0.60912   0.83286   0.00000  Uiso   1.00
C149   C     0.12952   0.66553   0.79197   0.00000  Uiso   1.00
C150   C     0.05654   0.71974   0.79910   0.00000  Uiso   1.00
C151   C     0.92774   0.82072   0.79123   0.00000  Uiso   1.00
C152   C     0.24979   0.54020   0.91878   0.00000  Uiso   1.00
C153   C     0.33363   0.60726   0.92005   0.00000  Uiso   1.00
C154   C     0.39296   0.66170   0.96157   0.00000  Uiso   1.00
C155   C     0.46564   0.71850   0.95506   0.00000  Uiso   1.00
C156   C     0.25554   0.40923   0.89852   0.00000  Uiso   1.00
C157   C     0.24919   0.29716   0.92194   0.00000  Uiso   1.00
C158   C     0.25612   0.18725   0.89730   0.00000  Uiso   1.00
C159   C     0.17637   0.60691   0.87924   0.00000  Uiso   1.00
C160   C     0.10346   0.66102   0.88644   0.00000  Uiso   1.00
C161   C     0.04371   0.71751   0.84557   0.00000  Uiso   1.00
H162   H     0.28333   0.54600   0.79728   0.00000  Uiso   1.00
H163   H     0.42892   0.66789   0.83120   0.00000  Uiso   1.00
H164   H     0.28516   0.30342   0.79157   0.00000  Uiso   1.00
H165   H     0.13945   0.66723   0.75608   0.00000  Uiso   1.00
H166   H     0.58471   0.80202   0.88927   0.00000  Uiso   1.00
H167   H     0.28157   0.03351   0.80570   0.00000  Uiso   1.00
H168   H     0.97430   0.80066   0.73086   0.00000  Uiso   1.00
H169   H     0.23983   0.53848   0.95489   0.00000  Uiso   1.00
H170   H     0.38304   0.65997   0.99746   0.00000  Uiso   1.00
H171   H     0.23928   0.29549   0.95783   0.00000  Uiso   1.00
H172   H     0.09357   0.65929   0.92234   0.00000  Uiso   1.00
H173   H     0.54748   0.79558   0.02421   0.00000  Uiso   1.00
H174   H     0.24432   0.02706   0.94064   0.00000  Uiso   1.00
H175   H     0.93706   0.79422   0.86580   0.00000  Uiso   1.00
O176   O     0.66110   0.87881   0.98191   0.00000  Uiso   1.00
O177   O     0.26337   0.87056   0.87226   0.00000  Uiso   1.00
O178   O     0.86025   0.87705   0.77407   0.00000  Uiso   1.00
N179   N     0.55629   0.78385   0.91518   0.00000  Uiso   1.00
N180   N     0.27288   0.06534   0.83706   0.00000  Uiso   1.00
N181   N     0.98559   0.78253   0.76708   0.00000  Uiso   1.00
N182   N     0.53625   0.78039   0.98779   0.00000  Uiso   1.00
N183   N     0.25284   0.06187   0.90967   0.00000  Uiso   1.00
N184   N     0.96556   0.77907   0.83969   0.00000  Uiso   1.00
C185   C     0.77512   0.36636   0.83367   0.00000  Uiso   1.00
C186   C     0.84822   0.29896   0.87317   0.00000  Uiso   1.00
C187   C     0.92090   0.24417   0.86594   0.00000  Uiso   1.00
C188   C     0.98035   0.18710   0.90677   0.00000  Uiso   1.00
C189   C     0.09584   0.08282   0.96104   0.00000  Uiso   1.00
C190   C     0.76994   0.49737   0.85405   0.00000  Uiso   1.00
C191   C     0.77679   0.60939   0.83074   0.00000  Uiso   1.00
C192   C     0.77033   0.71934   0.85548   0.00000  Uiso   1.00
C193   C     0.76421   0.92309   0.88005   0.00000  Uiso   1.00
C194   C     0.69097   0.30007   0.83231   0.00000  Uiso   1.00
C195   C     0.63142   0.24623   0.79072   0.00000  Uiso   1.00
C196   C     0.55846   0.19008   0.79715   0.00000  Uiso   1.00
C197   C     0.42975   0.08750   0.78797   0.00000  Uiso   1.00
C198   C     0.75144   0.36242   0.91904   0.00000  Uiso   1.00
C199   C     0.83535   0.29682   0.91953   0.00000  Uiso   1.00
C200   C     0.89470   0.23981   0.96038   0.00000  Uiso   1.00
C201   C     0.96747   0.18494   0.95321   0.00000  Uiso   1.00
C202   C     0.75707   0.49523   0.90041   0.00000  Uiso   1.00
C203   C     0.75059   0.60503   0.92518   0.00000  Uiso   1.00
C204   C     0.75744   0.71719   0.90192   0.00000  Uiso   1.00
C205   C     0.67811   0.29792   0.87867   0.00000  Uiso   1.00
C206   C     0.60523   0.24186   0.88516   0.00000  Uiso   1.00
C207   C     0.54558   0.18794   0.84360   0.00000  Uiso   1.00
H208   H     0.78513   0.36804   0.79758   0.00000  Uiso   1.00
H209   H     0.93084   0.24586   0.83005   0.00000  Uiso   1.00
H210   H     0.78674   0.61102   0.79486   0.00000  Uiso   1.00
H211   H     0.64139   0.24791   0.75485   0.00000  Uiso   1.00
H212   H     0.08673   0.10950   0.88651   0.00000  Uiso   1.00
H213   H     0.78285   0.87946   0.81230   0.00000  Uiso   1.00
H214   H     0.47637   0.11377   0.72792   0.00000  Uiso   1.00
H215   H     0.74142   0.36075   0.95513   0.00000  Uiso   1.00
H216   H     0.88473   0.23817   0.99626   0.00000  Uiso   1.00
H217   H     0.74063   0.60334   0.96106   0.00000  Uiso   1.00
H218   H     0.59529   0.24022   0.92105   0.00000  Uiso   1.00
H219   H     0.04931   0.10326   0.02140   0.00000  Uiso   1.00
H220   H     0.74543   0.87323   0.94719   0.00000  Uiso   1.00
H221   H     0.43895   0.10753   0.86281   0.00000  Uiso   1.00
O222   O     0.16310   0.02591   0.97817   0.00000  Uiso   1.00
O223   O     0.76440   0.03607   0.88080   0.00000  Uiso   1.00
O224   O     0.36231   0.03149   0.77010   0.00000  Uiso   1.00
N225   N     0.05824   0.12483   0.91261   0.00000  Uiso   1.00
N226   N     0.77415   0.84471   0.84323   0.00000  Uiso   1.00
N227   N     0.48760   0.12887   0.76434   0.00000  Uiso   1.00
N228   N     0.03811   0.12147   0.98520   0.00000  Uiso   1.00
N229   N     0.75402   0.84135   0.91582   0.00000  Uiso   1.00
N230   N     0.46747   0.12552   0.83693   0.00000  Uiso   1.00
C231   C     0.27336   0.95572   0.33339   0.00000  Uiso   1.00
C232   C     0.34643   0.89052   0.37367   0.00000  Uiso   1.00
C233   C     0.41904   0.83379   0.36710   0.00000  Uiso   1.00
C234   C     0.47847   0.77929   0.40860   0.00000  Uiso   1.00
C235   C     0.59389   0.67777   0.46410   0.00000  Uiso   1.00
C236   C     0.26834   0.08855   0.35214   0.00000  Uiso   1.00
C237   C     0.27527   0.19832   0.32747   0.00000  Uiso   1.00
C238   C     0.26894   0.31052   0.35084   0.00000  Uiso   1.00
C239   C     0.26306   0.51646   0.37290   0.00000  Uiso   1.00
C240   C     0.18917   0.89088   0.33286   0.00000  Uiso   1.00
C241   C     0.12952   0.83447   0.29197   0.00000  Uiso   1.00
C242   C     0.05654   0.78026   0.29910   0.00000  Uiso   1.00
C243   C     0.92774   0.67928   0.29123   0.00000  Uiso   1.00
C244   C     0.24979   0.95980   0.41878   0.00000  Uiso   1.00
C245   C     0.33363   0.89274   0.42005   0.00000  Uiso   1.00
C246   C     0.39296   0.83830   0.46157   0.00000  Uiso   1.00
C247   C     0.46564   0.78150   0.45506   0.00000  Uiso   1.00
C248   C     0.25554   0.09077   0.39852   0.00000  Uiso   1.00
C249   C     0.24919   0.20284   0.42194   0.00000  Uiso   1.00
C250   C     0.25612   0.31275   0.39730   0.00000  Uiso   1.00
C251   C     0.17637   0.89309   0.37924   0.00000  Uiso   1.00
C252   C     0.10346   0.83898   0.38644   0.00000  Uiso   1.00
C253   C     0.04371   0.78249   0.34557   0.00000  Uiso   1.00
H254   H     0.28333   0.95400   0.29728   0.00000  Uiso   1.00
H255   H     0.42892   0.83211   0.33120   0.00000  Uiso   1.00
H256   H     0.28516   0.19658   0.29157   0.00000  Uiso   1.00
H257   H     0.13945   0.83277   0.25608   0.00000  Uiso   1.00
H258   H     0.58471   0.69798   0.38927   0.00000  Uiso   1.00
H259   H     0.28157   0.46649   0.30570   0.00000  Uiso   1.00
H260   H     0.97430   0.69934   0.23086   0.00000  Uiso   1.00
H261   H     0.23983   0.96152   0.45489   0.00000  Uiso   1.00
H262   H     0.38304   0.84003   0.49746   0.00000  Uiso   1.00
H263   H     0.23928   0.20451   0.45783   0.00000  Uiso   1.00
H264   H     0.09357   0.84071   0.42234   0.00000  Uiso   1.00
H265   H     0.54748   0.70442   0.52421   0.00000  Uiso   1.00
H266   H     0.24432   0.47294   0.44064   0.00000  Uiso   1.00
H267   H     0.93706   0.70578   0.36580   0.00000  Uiso   1.00
O268   O     0.66110   0.62119   0.48191   0.00000  Uiso   1.00
O269   O     0.26337   0.62944   0.37226   0.00000  Uiso   1.00
O270   O     0.86025   0.62295   0.27407   0.00000  Uiso   1.00
N271   N     0.55629   0.71615   0.41518   0.00000  Uiso   1.00
N272   N     0.27288   0.43466   0.33706   0.00000  Uiso   1.00
N273   N     0.98559   0.71747   0.26708   0.00000  Uiso   1.00
N274   N     0.53625   0.71961   0.48779   0.00000  Uiso   1.00
N275   N     0.25284   0.43813   0.40967   0.00000  Uiso   1.00
N276   N     0.96556   0.72093   0.33969   0.00000  Uiso   1.00
C277   C     0.22488   0.86636   0.66633   0.00000  Uiso   1.00
C278   C     0.15178   0.79896   0.62683   0.00000  Uiso   1.00
C279   C     0.07910   0.74417   0.63406   0.00000  Uiso   1.00
C280   C     0.01965   0.68710   0.59323   0.00000  Uiso   1.00
C281   C     0.90416   0.58282   0.53896   0.00000  Uiso   1.00
C282   C     0.23006   0.99737   0.64595   0.00000  Uiso   1.00
C283   C     0.22321   0.10939   0.66926   0.00000  Uiso   1.00
C284   C     0.22967   0.21934   0.64452   0.00000  Uiso   1.00
C285   C     0.23579   0.42309   0.61995   0.00000  Uiso   1.00
C286   C     0.30903   0.80007   0.66769   0.00000  Uiso   1.00
C287   C     0.36858   0.74623   0.70928   0.00000  Uiso   1.00
C288   C     0.44154   0.69008   0.70285   0.00000  Uiso   1.00
C289   C     0.57025   0.58750   0.71203   0.00000  Uiso   1.00
C290   C     0.24856   0.86242   0.58096   0.00000  Uiso   1.00
C291   C     0.16465   0.79682   0.58047   0.00000  Uiso   1.00
C292   C     0.10530   0.73981   0.53962   0.00000  Uiso   1.00
C293   C     0.03253   0.68494   0.54679   0.00000  Uiso   1.00
C294   C     0.24293   0.99523   0.59959   0.00000  Uiso   1.00
C295   C     0.24941   0.10503   0.57482   0.00000  Uiso   1.00
C296   C     0.24256   0.21719   0.59808   0.00000  Uiso   1.00
C297   C     0.32189   0.79792   0.62133   0.00000  Uiso   1.00
C298   C     0.39477   0.74186   0.61484   0.00000  Uiso   1.00
C299   C     0.45442   0.68794   0.65640   0.00000  Uiso   1.00
H300   H     0.21487   0.86804   0.70242   0.00000  Uiso   1.00
H301   H     0.06916   0.74586   0.66995   0.00000  Uiso   1.00
H302   H     0.21326   0.11102   0.70514   0.00000  Uiso   1.00
H303   H     0.35861   0.74791   0.74515   0.00000  Uiso   1.00
H304   H     0.91327   0.60950   0.61349   0.00000  Uiso   1.00
H305   H     0.21715   0.37946   0.68770   0.00000  Uiso   1.00
H306   H     0.52363   0.61377   0.77208   0.00000  Uiso   1.00
H307   H     0.25858   0.86075   0.54487   0.00000  Uiso   1.00
H308   H     0.11527   0.73817   0.50374   0.00000  Uiso   1.00
H309   H     0.25937   0.10334   0.53894   0.00000  Uiso   1.00
H310   H     0.40471   0.74022   0.57895   0.00000  Uiso   1.00
H311   H     0.95069   0.60326   0.47860   0.00000  Uiso   1.00
H312   H     0.25457   0.37323   0.55281   0.00000  Uiso   1.00
H313   H     0.56105   0.60753   0.63719   0.00000  Uiso   1.00
O314   O     0.83690   0.52591   0.52183   0.00000  Uiso   1.00
O315   O     0.23560   0.53607   0.61920   0.00000  Uiso   1.00
O316   O     0.63769   0.53149   0.72990   0.00000  Uiso   1.00
N317   N     0.94176   0.62483   0.58739   0.00000  Uiso   1.00
N318   N     0.22585   0.34471   0.65677   0.00000  Uiso   1.00
N319   N     0.51240   0.62887   0.73566   0.00000  Uiso   1.00
N320   N     0.96189   0.62147   0.51480   0.00000  Uiso   1.00
N321   N     0.24598   0.34135   0.58418   0.00000  Uiso   1.00
N322   N     0.53253   0.62552   0.66307   0.00000  Uiso   1.00
C323   C     0.72664   0.45572   0.16661   0.00000  Uiso   1.00
C324   C     0.65357   0.39052   0.12633   0.00000  Uiso   1.00
C325   C     0.58096   0.33379   0.13290   0.00000  Uiso   1.00
C326   C     0.52153   0.27929   0.09140   0.00000  Uiso   1.00
C327   C     0.40611   0.17777   0.03590   0.00000  Uiso   1.00
C328   C     0.73166   0.58855   0.14786   0.00000  Uiso   1.00
C329   C     0.72473   0.69832   0.17253   0.00000  Uiso   1.00
C330   C     0.73106   0.81052   0.14916   0.00000  Uiso   1.00
C331   C     0.73694   0.01646   0.12710   0.00000  Uiso   1.00
C332   C     0.81083   0.39088   0.16714   0.00000  Uiso   1.00
C333   C     0.87048   0.33447   0.20803   0.00000  Uiso   1.00
C334   C     0.94346   0.28026   0.20090   0.00000  Uiso   1.00
C335   C     0.07226   0.17928   0.20877   0.00000  Uiso   1.00
C336   C     0.75021   0.45980   0.08122   0.00000  Uiso   1.00
C337   C     0.66637   0.39274   0.07995   0.00000  Uiso   1.00
C338   C     0.60704   0.33830   0.03843   0.00000  Uiso   1.00
C339   C     0.53436   0.28150   0.04494   0.00000  Uiso   1.00
C340   C     0.74446   0.59077   0.10148   0.00000  Uiso   1.00
C341   C     0.75081   0.70284   0.07806   0.00000  Uiso   1.00
C342   C     0.74388   0.81275   0.10270   0.00000  Uiso   1.00
C343   C     0.82363   0.39309   0.12076   0.00000  Uiso   1.00
C344   C     0.89654   0.33898   0.11356   0.00000  Uiso   1.00
C345   C     0.95629   0.28249   0.15443   0.00000  Uiso   1.00
H346   H     0.71667   0.45400   0.20272   0.00000  Uiso   1.00
H347   H     0.57108   0.33211   0.16880   0.00000  Uiso   1.00
H348   H     0.71484   0.69658   0.20843   0.00000  Uiso   1.00
H349   H     0.86055   0.33277   0.24392   0.00000  Uiso   1.00
H350   H     0.41529   0.19798   0.11073   0.00000  Uiso   1.00
H351   H     0.71843   0.96649   0.19430   0.00000  Uiso   1.00
H352   H     0.02570   0.19934   0.26914   0.00000  Uiso   1.00
H353   H     0.76017   0.46152   0.04511   0.00000  Uiso   1.00
H354   H     0.61696   0.34003   0.00254   0.00000  Uiso   1.00
H355   H     0.76072   0.70451   0.04217   0.00000  Uiso   1.00
H356   H     0.90643   0.34071   0.07766   0.00000  Uiso   1.00
H357   H     0.45252   0.20442   0.97579   0.00000  Uiso   1.00
H358   H     0.75568   0.97294   0.05936   0.00000  Uiso   1.00
H359   H     0.06294   0.20578   0.13420   0.00000  Uiso   1.00
O360   O     0.33890   0.12119   0.01809   0.00000  Uiso   1.00
O361   O     0.73663   0.12944   0.12774   0.00000  Uiso   1.00
O362   O     0.13975   0.12295   0.22593   0.00000  Uiso   1.00
N363   N     0.44371   0.21615   0.08482   0.00000  Uiso   1.00
N364   N     0.72712   0.93466   0.16294   0.00000  Uiso   1.00
N365   N     0.01441   0.21747   0.23292   0.00000  Uiso   1.00
N366   N     0.46375   0.21961   0.01221   0.00000  Uiso   1.00
N367   N     0.74716   0.93813   0.09033   0.00000  Uiso   1.00
N368   N     0.03444   0.22093   0.16031   0.00000  Uiso   1.00
