data_job_00145
_audit_creation_date              2018-12-19
_audit_creation_method            'Materials Studio'
_symmetry_space_group_name_H-M    'P1'
_symmetry_Int_Tables_number       1
_symmetry_cell_setting            triclinic
loop_
_symmetry_equiv_pos_as_xyz
  x,y,z
_cell_length_a                    12.3631
_cell_length_b                    16.2703
_cell_length_c                    11.7354
_cell_angle_alpha                 90.0000
_cell_angle_beta                  76.1658
_cell_angle_gamma                 90.0000
loop_
_atom_site_label
_atom_site_type_symbol
_atom_site_fract_x
_atom_site_fract_y
_atom_site_fract_z
_atom_site_U_iso_or_equiv
_atom_site_adp_type
_atom_site_occupancy
C1     C     0.24714   0.76370   0.04492   0.00000  Uiso   1.00
C2     C     0.34899   0.74847   0.09400   0.00000  Uiso   1.00
C3     C     0.42247   0.68305   0.06515   0.00000  Uiso   1.00
C4     C     0.51048   0.68008   0.11963   0.00000  Uiso   1.00
C5     C     0.66647   0.64722   0.18365   0.00000  Uiso   1.00
C6     C     0.14809   0.76919   0.15087   0.00000  Uiso   1.00
C7     C     0.05265   0.72119   0.16983   0.00000  Uiso   1.00
C8     C     0.97153   0.73567   0.27218   0.00000  Uiso   1.00
C9     C     0.81558   0.73502   0.42444   0.00000  Uiso   1.00
C10    C     0.26191   0.84956   0.99135   0.00000  Uiso   1.00
C11    C     0.26214   0.86916   0.87619   0.00000  Uiso   1.00
C12    C     0.27683   0.95131   0.84424   0.00000  Uiso   1.00
C13    C     0.29761   0.07546   0.74883   0.00000  Uiso   1.00
C14    C     0.27278   0.87477   0.19295   0.00000  Uiso   1.00
C15    C     0.36291   0.80880   0.17441   0.00000  Uiso   1.00
C16    C     0.45084   0.80593   0.22894   0.00000  Uiso   1.00
C17    C     0.52444   0.74051   0.20018   0.00000  Uiso   1.00
C18    C     0.16201   0.82951   0.23127   0.00000  Uiso   1.00
C19    C     0.08101   0.84407   0.33361   0.00000  Uiso   1.00
C20    C     0.98548   0.79610   0.35273   0.00000  Uiso   1.00
C21    C     0.27584   0.90990   0.07175   0.00000  Uiso   1.00
C22    C     0.29052   0.99204   0.03998   0.00000  Uiso   1.00
C23    C     0.29078   0.01175   0.92479   0.00000  Uiso   1.00
H24    H     0.23630   0.71674   0.98232   0.00000  Uiso   1.00
H25    H     0.41166   0.63637   0.00293   0.00000  Uiso   1.00
H26    H     0.04189   0.67451   0.10758   0.00000  Uiso   1.00
H27    H     0.25137   0.82245   0.81399   0.00000  Uiso   1.00
H28    H     0.61220   0.57385   0.06127   0.00000  Uiso   1.00
H29    H     0.83251   0.65430   0.28192   0.00000  Uiso   1.00
H30    H     0.27422   0.96627   0.66282   0.00000  Uiso   1.00
H31    H     0.28362   0.92174   0.25556   0.00000  Uiso   1.00
H32    H     0.46159   0.85263   0.29116   0.00000  Uiso   1.00
H33    H     0.09182   0.89077   0.39581   0.00000  Uiso   1.00
H34    H     0.30129   0.03871   0.10222   0.00000  Uiso   1.00
H35    H     0.65272   0.74937   0.29521   0.00000  Uiso   1.00
H36    H     0.87302   0.82982   0.51586   0.00000  Uiso   1.00
H37    H     0.31474   0.14179   0.89677   0.00000  Uiso   1.00
O38    O     0.74866   0.61243   0.19676   0.00000  Uiso   1.00
O39    O     0.72572   0.71798   0.48622   0.00000  Uiso   1.00
O40    O     0.30524   0.12727   0.67399   0.00000  Uiso   1.00
N41    N     0.59733   0.62465   0.11143   0.00000  Uiso   1.00
N42    N     0.86837   0.69986   0.31773   0.00000  Uiso   1.00
N43    N     0.28130   0.99152   0.73893   0.00000  Uiso   1.00
N44    N     0.61913   0.71910   0.23731   0.00000  Uiso   1.00
N45    N     0.89017   0.79431   0.44361   0.00000  Uiso   1.00
N46    N     0.30310   0.08597   0.86481   0.00000  Uiso   1.00
C47    C     0.75286   0.26370   0.45508   0.00000  Uiso   1.00
C48    C     0.65101   0.24847   0.40600   0.00000  Uiso   1.00
C49    C     0.57753   0.18305   0.43485   0.00000  Uiso   1.00
C50    C     0.48952   0.18008   0.38037   0.00000  Uiso   1.00
C51    C     0.33353   0.14722   0.31635   0.00000  Uiso   1.00
C52    C     0.85191   0.26919   0.34913   0.00000  Uiso   1.00
C53    C     0.94735   0.22119   0.33017   0.00000  Uiso   1.00
C54    C     0.02847   0.23567   0.22782   0.00000  Uiso   1.00
C55    C     0.18442   0.23502   0.07556   0.00000  Uiso   1.00
C56    C     0.73809   0.34956   0.50865   0.00000  Uiso   1.00
C57    C     0.73786   0.36916   0.62381   0.00000  Uiso   1.00
C58    C     0.72317   0.45131   0.65576   0.00000  Uiso   1.00
C59    C     0.70239   0.57546   0.75117   0.00000  Uiso   1.00
C60    C     0.72722   0.37477   0.30705   0.00000  Uiso   1.00
C61    C     0.63709   0.30880   0.32559   0.00000  Uiso   1.00
C62    C     0.54916   0.30593   0.27106   0.00000  Uiso   1.00
C63    C     0.47556   0.24051   0.29982   0.00000  Uiso   1.00
C64    C     0.83799   0.32951   0.26873   0.00000  Uiso   1.00
C65    C     0.91899   0.34407   0.16639   0.00000  Uiso   1.00
C66    C     0.01452   0.29610   0.14727   0.00000  Uiso   1.00
C67    C     0.72416   0.40990   0.42825   0.00000  Uiso   1.00
C68    C     0.70948   0.49204   0.46002   0.00000  Uiso   1.00
C69    C     0.70922   0.51175   0.57521   0.00000  Uiso   1.00
H70    H     0.76370   0.21674   0.51768   0.00000  Uiso   1.00
H71    H     0.58834   0.13637   0.49707   0.00000  Uiso   1.00
H72    H     0.95811   0.17451   0.39242   0.00000  Uiso   1.00
H73    H     0.74863   0.32245   0.68601   0.00000  Uiso   1.00
H74    H     0.38780   0.07385   0.43873   0.00000  Uiso   1.00
H75    H     0.16749   0.15430   0.21808   0.00000  Uiso   1.00
H76    H     0.72578   0.46627   0.83718   0.00000  Uiso   1.00
H77    H     0.71638   0.42174   0.24444   0.00000  Uiso   1.00
H78    H     0.53841   0.35263   0.20884   0.00000  Uiso   1.00
H79    H     0.90818   0.39077   0.10419   0.00000  Uiso   1.00
H80    H     0.69871   0.53871   0.39778   0.00000  Uiso   1.00
H81    H     0.34728   0.24937   0.20479   0.00000  Uiso   1.00
H82    H     0.12698   0.32982   0.98414   0.00000  Uiso   1.00
H83    H     0.68526   0.64179   0.60323   0.00000  Uiso   1.00
O84    O     0.25134   0.11243   0.30324   0.00000  Uiso   1.00
O85    O     0.27428   0.21798   0.01378   0.00000  Uiso   1.00
O86    O     0.69476   0.62727   0.82601   0.00000  Uiso   1.00
N87    N     0.40267   0.12465   0.38857   0.00000  Uiso   1.00
N88    N     0.13163   0.19986   0.18227   0.00000  Uiso   1.00
N89    N     0.71870   0.49152   0.76107   0.00000  Uiso   1.00
N90    N     0.38087   0.21910   0.26269   0.00000  Uiso   1.00
N91    N     0.10983   0.29431   0.05639   0.00000  Uiso   1.00
N92    N     0.69690   0.58597   0.63519   0.00000  Uiso   1.00
C93    C     0.75286   0.23630   0.95508   0.00000  Uiso   1.00
C94    C     0.65101   0.25153   0.90600   0.00000  Uiso   1.00
C95    C     0.57753   0.31695   0.93485   0.00000  Uiso   1.00
C96    C     0.48952   0.31992   0.88037   0.00000  Uiso   1.00
C97    C     0.33353   0.35278   0.81635   0.00000  Uiso   1.00
C98    C     0.85191   0.23081   0.84913   0.00000  Uiso   1.00
C99    C     0.94735   0.27881   0.83017   0.00000  Uiso   1.00
C100   C     0.02847   0.26433   0.72782   0.00000  Uiso   1.00
C101   C     0.18442   0.26498   0.57556   0.00000  Uiso   1.00
C102   C     0.73809   0.15044   0.00865   0.00000  Uiso   1.00
C103   C     0.73786   0.13084   0.12381   0.00000  Uiso   1.00
C104   C     0.72317   0.04869   0.15576   0.00000  Uiso   1.00
C105   C     0.70239   0.92454   0.25117   0.00000  Uiso   1.00
C106   C     0.72722   0.12523   0.80705   0.00000  Uiso   1.00
C107   C     0.63709   0.19120   0.82559   0.00000  Uiso   1.00
C108   C     0.54916   0.19407   0.77106   0.00000  Uiso   1.00
C109   C     0.47556   0.25949   0.79982   0.00000  Uiso   1.00
C110   C     0.83799   0.17049   0.76873   0.00000  Uiso   1.00
C111   C     0.91899   0.15593   0.66639   0.00000  Uiso   1.00
C112   C     0.01452   0.20390   0.64727   0.00000  Uiso   1.00
C113   C     0.72416   0.09010   0.92825   0.00000  Uiso   1.00
C114   C     0.70948   0.00796   0.96002   0.00000  Uiso   1.00
C115   C     0.70922   0.98825   0.07521   0.00000  Uiso   1.00
H116   H     0.76370   0.28326   0.01768   0.00000  Uiso   1.00
H117   H     0.58834   0.36363   0.99707   0.00000  Uiso   1.00
H118   H     0.95811   0.32549   0.89242   0.00000  Uiso   1.00
H119   H     0.74863   0.17755   0.18601   0.00000  Uiso   1.00
H120   H     0.38780   0.42615   0.93873   0.00000  Uiso   1.00
H121   H     0.16749   0.34570   0.71808   0.00000  Uiso   1.00
H122   H     0.72578   0.03373   0.33718   0.00000  Uiso   1.00
H123   H     0.71638   0.07826   0.74444   0.00000  Uiso   1.00
H124   H     0.53841   0.14737   0.70884   0.00000  Uiso   1.00
H125   H     0.90818   0.10923   0.60419   0.00000  Uiso   1.00
H126   H     0.69871   0.96129   0.89778   0.00000  Uiso   1.00
H127   H     0.34728   0.25063   0.70479   0.00000  Uiso   1.00
H128   H     0.12698   0.17018   0.48414   0.00000  Uiso   1.00
H129   H     0.68526   0.85821   0.10323   0.00000  Uiso   1.00
O130   O     0.25134   0.38757   0.80324   0.00000  Uiso   1.00
O131   O     0.27428   0.28202   0.51378   0.00000  Uiso   1.00
O132   O     0.69476   0.87273   0.32601   0.00000  Uiso   1.00
N133   N     0.40267   0.37535   0.88857   0.00000  Uiso   1.00
N134   N     0.13163   0.30014   0.68227   0.00000  Uiso   1.00
N135   N     0.71870   0.00848   0.26107   0.00000  Uiso   1.00
N136   N     0.38087   0.28090   0.76269   0.00000  Uiso   1.00
N137   N     0.10983   0.20569   0.55639   0.00000  Uiso   1.00
N138   N     0.69690   0.91403   0.13519   0.00000  Uiso   1.00
C139   C     0.24714   0.73630   0.54492   0.00000  Uiso   1.00
C140   C     0.34899   0.75153   0.59400   0.00000  Uiso   1.00
C141   C     0.42247   0.81695   0.56515   0.00000  Uiso   1.00
C142   C     0.51048   0.81992   0.61963   0.00000  Uiso   1.00
C143   C     0.66647   0.85278   0.68365   0.00000  Uiso   1.00
C144   C     0.14809   0.73081   0.65087   0.00000  Uiso   1.00
C145   C     0.05265   0.77881   0.66983   0.00000  Uiso   1.00
C146   C     0.97153   0.76433   0.77218   0.00000  Uiso   1.00
C147   C     0.81558   0.76498   0.92444   0.00000  Uiso   1.00
C148   C     0.26191   0.65044   0.49135   0.00000  Uiso   1.00
C149   C     0.26214   0.63084   0.37619   0.00000  Uiso   1.00
C150   C     0.27683   0.54869   0.34424   0.00000  Uiso   1.00
C151   C     0.29761   0.42454   0.24883   0.00000  Uiso   1.00
C152   C     0.27278   0.62523   0.69295   0.00000  Uiso   1.00
C153   C     0.36291   0.69120   0.67441   0.00000  Uiso   1.00
C154   C     0.45084   0.69407   0.72894   0.00000  Uiso   1.00
C155   C     0.52444   0.75949   0.70018   0.00000  Uiso   1.00
C156   C     0.16201   0.67049   0.73127   0.00000  Uiso   1.00
C157   C     0.08101   0.65593   0.83361   0.00000  Uiso   1.00
C158   C     0.98548   0.70390   0.85273   0.00000  Uiso   1.00
C159   C     0.27584   0.59010   0.57175   0.00000  Uiso   1.00
C160   C     0.29052   0.50796   0.53998   0.00000  Uiso   1.00
C161   C     0.29078   0.48825   0.42479   0.00000  Uiso   1.00
H162   H     0.23630   0.78326   0.48232   0.00000  Uiso   1.00
H163   H     0.41166   0.86363   0.50293   0.00000  Uiso   1.00
H164   H     0.04189   0.82549   0.60758   0.00000  Uiso   1.00
H165   H     0.25137   0.67755   0.31399   0.00000  Uiso   1.00
H166   H     0.61220   0.92615   0.56127   0.00000  Uiso   1.00
H167   H     0.83251   0.84570   0.78192   0.00000  Uiso   1.00
H168   H     0.27422   0.53373   0.16282   0.00000  Uiso   1.00
H169   H     0.28362   0.57826   0.75556   0.00000  Uiso   1.00
H170   H     0.46159   0.64737   0.79116   0.00000  Uiso   1.00
H171   H     0.09182   0.60923   0.89581   0.00000  Uiso   1.00
H172   H     0.30129   0.46129   0.60222   0.00000  Uiso   1.00
H173   H     0.65272   0.75063   0.79521   0.00000  Uiso   1.00
H174   H     0.87302   0.67018   0.01586   0.00000  Uiso   1.00
H175   H     0.31474   0.35821   0.39677   0.00000  Uiso   1.00
O176   O     0.74866   0.88757   0.69676   0.00000  Uiso   1.00
O177   O     0.72572   0.78202   0.98622   0.00000  Uiso   1.00
O178   O     0.30524   0.37273   0.17399   0.00000  Uiso   1.00
N179   N     0.59733   0.87535   0.61143   0.00000  Uiso   1.00
N180   N     0.86837   0.80014   0.81773   0.00000  Uiso   1.00
N181   N     0.28130   0.50848   0.23893   0.00000  Uiso   1.00
N182   N     0.61913   0.78090   0.73731   0.00000  Uiso   1.00
N183   N     0.89017   0.70569   0.94361   0.00000  Uiso   1.00
N184   N     0.30310   0.41403   0.36481   0.00000  Uiso   1.00
