data_job_02242
_audit_creation_date              2018-12-19
_audit_creation_method            'Materials Studio'
_symmetry_space_group_name_H-M    'P1'
_symmetry_Int_Tables_number       1
_symmetry_cell_setting            triclinic
loop_
_symmetry_equiv_pos_as_xyz
  x,y,z
_cell_length_a                    14.2778
_cell_length_b                    12.8910
_cell_length_c                    19.7502
_cell_angle_alpha                 90.0000
_cell_angle_beta                  59.9181
_cell_angle_gamma                 90.0000
loop_
_atom_site_label
_atom_site_type_symbol
_atom_site_fract_x
_atom_site_fract_y
_atom_site_fract_z
_atom_site_U_iso_or_equiv
_atom_site_adp_type
_atom_site_occupancy
C1     C     0.78112   0.79834   0.78805   0.00000  Uiso   1.00
C2     C     0.89749   0.82612   0.76413   0.00000  Uiso   1.00
C3     C     0.98937   0.79294   0.69671   0.00000  Uiso   1.00
C4     C     0.08847   0.82691   0.68545   0.00000  Uiso   1.00
C5     C     0.26813   0.86013   0.64007   0.00000  Uiso   1.00
C6     C     0.73227   0.74950   0.86909   0.00000  Uiso   1.00
C7     C     0.68521   0.65191   0.88991   0.00000  Uiso   1.00
C8     C     0.64521   0.62138   0.96700   0.00000  Uiso   1.00
C9     C     0.56829   0.53569   0.08459   0.00000  Uiso   1.00
C10    C     0.72223   0.90117   0.79940   0.00000  Uiso   1.00
C11    C     0.66670   0.93109   0.76165   0.00000  Uiso   1.00
C12    C     0.61822   0.02826   0.78009   0.00000  Uiso   1.00
C13    C     0.52571   0.17805   0.78947   0.00000  Uiso   1.00
C14    C     0.79372   0.91766   0.88796   0.00000  Uiso   1.00
C15    C     0.90434   0.89092   0.81840   0.00000  Uiso   1.00
C16    C     0.00332   0.92495   0.80724   0.00000  Uiso   1.00
C17    C     0.09533   0.89183   0.73980   0.00000  Uiso   1.00
C18    C     0.73911   0.81430   0.92335   0.00000  Uiso   1.00
C19    C     0.69916   0.78392   0.00044   0.00000  Uiso   1.00
C20    C     0.65207   0.68631   0.02137   0.00000  Uiso   1.00
C21    C     0.72908   0.96598   0.85367   0.00000  Uiso   1.00
C22    C     0.68066   0.06311   0.87218   0.00000  Uiso   1.00
C23    C     0.62508   0.09318   0.83445   0.00000  Uiso   1.00
H24    H     0.77578   0.74788   0.74581   0.00000  Uiso   1.00
H25    H     0.98404   0.74278   0.65473   0.00000  Uiso   1.00
H26    H     0.67992   0.60178   0.84790   0.00000  Uiso   1.00
H27    H     0.66142   0.88092   0.71966   0.00000  Uiso   1.00
H28    H     0.21795   0.76567   0.57769   0.00000  Uiso   1.00
H29    H     0.57666   0.46838   0.98502   0.00000  Uiso   1.00
H30    H     0.53765   0.05700   0.71459   0.00000  Uiso   1.00
H31    H     0.79905   0.96812   0.93021   0.00000  Uiso   1.00
H32    H     0.00859   0.97510   0.84924   0.00000  Uiso   1.00
H33    H     0.70447   0.83409   0.04242   0.00000  Uiso   1.00
H34    H     0.68598   0.11324   0.91417   0.00000  Uiso   1.00
H35    H     0.23788   0.95423   0.73557   0.00000  Uiso   1.00
H36    H     0.59659   0.65693   0.14289   0.00000  Uiso   1.00
H37    H     0.55759   0.24556   0.87247   0.00000  Uiso   1.00
O38    O     0.36534   0.86055   0.60006   0.00000  Uiso   1.00
O39    O     0.52398   0.47051   0.13445   0.00000  Uiso   1.00
O40    O     0.47281   0.24278   0.77965   0.00000  Uiso   1.00
N41    N     0.19388   0.80911   0.62595   0.00000  Uiso   1.00
N42    N     0.59433   0.53114   0.00677   0.00000  Uiso   1.00
N43    N     0.55784   0.08145   0.75396   0.00000  Uiso   1.00
N44    N     0.20461   0.91057   0.71090   0.00000  Uiso   1.00
N45    N     0.60506   0.63261   0.09172   0.00000  Uiso   1.00
N46    N     0.56856   0.18291   0.83891   0.00000  Uiso   1.00
C47    C     0.21888   0.29834   0.71195   0.00000  Uiso   1.00
C48    C     0.10251   0.32612   0.73587   0.00000  Uiso   1.00
C49    C     0.01063   0.29294   0.80329   0.00000  Uiso   1.00
C50    C     0.91153   0.32691   0.81455   0.00000  Uiso   1.00
C51    C     0.73187   0.36013   0.85993   0.00000  Uiso   1.00
C52    C     0.26773   0.24950   0.63091   0.00000  Uiso   1.00
C53    C     0.31479   0.15191   0.61009   0.00000  Uiso   1.00
C54    C     0.35479   0.12138   0.53300   0.00000  Uiso   1.00
C55    C     0.43171   0.03569   0.41541   0.00000  Uiso   1.00
C56    C     0.27777   0.40117   0.70060   0.00000  Uiso   1.00
C57    C     0.33330   0.43109   0.73835   0.00000  Uiso   1.00
C58    C     0.38178   0.52826   0.71991   0.00000  Uiso   1.00
C59    C     0.47429   0.67805   0.71053   0.00000  Uiso   1.00
C60    C     0.20628   0.41766   0.61204   0.00000  Uiso   1.00
C61    C     0.09566   0.39092   0.68160   0.00000  Uiso   1.00
C62    C     0.99668   0.42495   0.69276   0.00000  Uiso   1.00
C63    C     0.90467   0.39183   0.76020   0.00000  Uiso   1.00
C64    C     0.26089   0.31430   0.57665   0.00000  Uiso   1.00
C65    C     0.30084   0.28392   0.49956   0.00000  Uiso   1.00
C66    C     0.34793   0.18631   0.47863   0.00000  Uiso   1.00
C67    C     0.27092   0.46598   0.64633   0.00000  Uiso   1.00
C68    C     0.31934   0.56311   0.62782   0.00000  Uiso   1.00
C69    C     0.37492   0.59318   0.66555   0.00000  Uiso   1.00
H70    H     0.22422   0.24788   0.75419   0.00000  Uiso   1.00
H71    H     0.01596   0.24278   0.84527   0.00000  Uiso   1.00
H72    H     0.32008   0.10178   0.65210   0.00000  Uiso   1.00
H73    H     0.33858   0.38092   0.78034   0.00000  Uiso   1.00
H74    H     0.78205   0.26567   0.92231   0.00000  Uiso   1.00
H75    H     0.42334   0.96838   0.51498   0.00000  Uiso   1.00
H76    H     0.46235   0.55700   0.78541   0.00000  Uiso   1.00
H77    H     0.20095   0.46812   0.56979   0.00000  Uiso   1.00
H78    H     0.99141   0.47510   0.65076   0.00000  Uiso   1.00
H79    H     0.29553   0.33409   0.45758   0.00000  Uiso   1.00
H80    H     0.31402   0.61324   0.58583   0.00000  Uiso   1.00
H81    H     0.76212   0.45423   0.76443   0.00000  Uiso   1.00
H82    H     0.40341   0.15693   0.35711   0.00000  Uiso   1.00
H83    H     0.44241   0.74556   0.62753   0.00000  Uiso   1.00
O84    O     0.63466   0.36055   0.89994   0.00000  Uiso   1.00
O85    O     0.47602   0.97051   0.36555   0.00000  Uiso   1.00
O86    O     0.52719   0.74278   0.72035   0.00000  Uiso   1.00
N87    N     0.80612   0.30911   0.87405   0.00000  Uiso   1.00
N88    N     0.40567   0.03114   0.49323   0.00000  Uiso   1.00
N89    N     0.44216   0.58145   0.74604   0.00000  Uiso   1.00
N90    N     0.79539   0.41057   0.78910   0.00000  Uiso   1.00
N91    N     0.39494   0.13261   0.40828   0.00000  Uiso   1.00
N92    N     0.43144   0.68291   0.66109   0.00000  Uiso   1.00
C93    C     0.21888   0.20166   0.21195   0.00000  Uiso   1.00
C94    C     0.10251   0.17388   0.23587   0.00000  Uiso   1.00
C95    C     0.01063   0.20706   0.30329   0.00000  Uiso   1.00
C96    C     0.91153   0.17309   0.31455   0.00000  Uiso   1.00
C97    C     0.73187   0.13987   0.35993   0.00000  Uiso   1.00
C98    C     0.26773   0.25050   0.13091   0.00000  Uiso   1.00
C99    C     0.31479   0.34809   0.11009   0.00000  Uiso   1.00
C100   C     0.35479   0.37862   0.03300   0.00000  Uiso   1.00
C101   C     0.43171   0.46431   0.91541   0.00000  Uiso   1.00
C102   C     0.27777   0.09883   0.20060   0.00000  Uiso   1.00
C103   C     0.33330   0.06891   0.23835   0.00000  Uiso   1.00
C104   C     0.38178   0.97174   0.21991   0.00000  Uiso   1.00
C105   C     0.47429   0.82195   0.21053   0.00000  Uiso   1.00
C106   C     0.20628   0.08234   0.11204   0.00000  Uiso   1.00
C107   C     0.09566   0.10908   0.18160   0.00000  Uiso   1.00
C108   C     0.99668   0.07505   0.19276   0.00000  Uiso   1.00
C109   C     0.90467   0.10817   0.26020   0.00000  Uiso   1.00
C110   C     0.26089   0.18570   0.07665   0.00000  Uiso   1.00
C111   C     0.30084   0.21608   0.99956   0.00000  Uiso   1.00
C112   C     0.34793   0.31369   0.97863   0.00000  Uiso   1.00
C113   C     0.27092   0.03402   0.14633   0.00000  Uiso   1.00
C114   C     0.31934   0.93689   0.12782   0.00000  Uiso   1.00
C115   C     0.37492   0.90682   0.16555   0.00000  Uiso   1.00
H116   H     0.22422   0.25212   0.25419   0.00000  Uiso   1.00
H117   H     0.01596   0.25722   0.34527   0.00000  Uiso   1.00
H118   H     0.32008   0.39822   0.15210   0.00000  Uiso   1.00
H119   H     0.33858   0.11908   0.28034   0.00000  Uiso   1.00
H120   H     0.78205   0.23433   0.42231   0.00000  Uiso   1.00
H121   H     0.42334   0.53162   0.01498   0.00000  Uiso   1.00
H122   H     0.46235   0.94300   0.28541   0.00000  Uiso   1.00
H123   H     0.20095   0.03188   0.06979   0.00000  Uiso   1.00
H124   H     0.99141   0.02490   0.15076   0.00000  Uiso   1.00
H125   H     0.29553   0.16591   0.95758   0.00000  Uiso   1.00
H126   H     0.31402   0.88676   0.08583   0.00000  Uiso   1.00
H127   H     0.76212   0.04577   0.26443   0.00000  Uiso   1.00
H128   H     0.40341   0.34307   0.85711   0.00000  Uiso   1.00
H129   H     0.44241   0.75444   0.12753   0.00000  Uiso   1.00
O130   O     0.63466   0.13945   0.39994   0.00000  Uiso   1.00
O131   O     0.47602   0.52949   0.86555   0.00000  Uiso   1.00
O132   O     0.52719   0.75722   0.22035   0.00000  Uiso   1.00
N133   N     0.80612   0.19089   0.37405   0.00000  Uiso   1.00
N134   N     0.40567   0.46886   0.99323   0.00000  Uiso   1.00
N135   N     0.44216   0.91855   0.24604   0.00000  Uiso   1.00
N136   N     0.79539   0.08943   0.28910   0.00000  Uiso   1.00
N137   N     0.39494   0.36739   0.90828   0.00000  Uiso   1.00
N138   N     0.43144   0.81709   0.16109   0.00000  Uiso   1.00
C139   C     0.78112   0.70166   0.28805   0.00000  Uiso   1.00
C140   C     0.89749   0.67388   0.26413   0.00000  Uiso   1.00
C141   C     0.98937   0.70706   0.19671   0.00000  Uiso   1.00
C142   C     0.08847   0.67309   0.18545   0.00000  Uiso   1.00
C143   C     0.26813   0.63987   0.14007   0.00000  Uiso   1.00
C144   C     0.73227   0.75050   0.36909   0.00000  Uiso   1.00
C145   C     0.68521   0.84809   0.38991   0.00000  Uiso   1.00
C146   C     0.64521   0.87862   0.46700   0.00000  Uiso   1.00
C147   C     0.56829   0.96431   0.58459   0.00000  Uiso   1.00
C148   C     0.72223   0.59883   0.29940   0.00000  Uiso   1.00
C149   C     0.66670   0.56891   0.26165   0.00000  Uiso   1.00
C150   C     0.61822   0.47174   0.28009   0.00000  Uiso   1.00
C151   C     0.52571   0.32195   0.28947   0.00000  Uiso   1.00
C152   C     0.79372   0.58234   0.38796   0.00000  Uiso   1.00
C153   C     0.90434   0.60908   0.31840   0.00000  Uiso   1.00
C154   C     0.00332   0.57505   0.30724   0.00000  Uiso   1.00
C155   C     0.09533   0.60817   0.23980   0.00000  Uiso   1.00
C156   C     0.73911   0.68570   0.42335   0.00000  Uiso   1.00
C157   C     0.69916   0.71608   0.50044   0.00000  Uiso   1.00
C158   C     0.65207   0.81369   0.52137   0.00000  Uiso   1.00
C159   C     0.72908   0.53402   0.35367   0.00000  Uiso   1.00
C160   C     0.68066   0.43689   0.37218   0.00000  Uiso   1.00
C161   C     0.62508   0.40682   0.33445   0.00000  Uiso   1.00
H162   H     0.77578   0.75212   0.24581   0.00000  Uiso   1.00
H163   H     0.98404   0.75722   0.15473   0.00000  Uiso   1.00
H164   H     0.67992   0.89822   0.34790   0.00000  Uiso   1.00
H165   H     0.66142   0.61908   0.21966   0.00000  Uiso   1.00
H166   H     0.21795   0.73433   0.07769   0.00000  Uiso   1.00
H167   H     0.57666   0.03162   0.48502   0.00000  Uiso   1.00
H168   H     0.53765   0.44300   0.21459   0.00000  Uiso   1.00
H169   H     0.79905   0.53188   0.43021   0.00000  Uiso   1.00
H170   H     0.00859   0.52490   0.34924   0.00000  Uiso   1.00
H171   H     0.70447   0.66591   0.54242   0.00000  Uiso   1.00
H172   H     0.68598   0.38676   0.41417   0.00000  Uiso   1.00
H173   H     0.23788   0.54577   0.23557   0.00000  Uiso   1.00
H174   H     0.59659   0.84307   0.64289   0.00000  Uiso   1.00
H175   H     0.55759   0.25444   0.37247   0.00000  Uiso   1.00
O176   O     0.36534   0.63945   0.10006   0.00000  Uiso   1.00
O177   O     0.52398   0.02949   0.63445   0.00000  Uiso   1.00
O178   O     0.47281   0.25722   0.27965   0.00000  Uiso   1.00
N179   N     0.19388   0.69089   0.12595   0.00000  Uiso   1.00
N180   N     0.59433   0.96886   0.50677   0.00000  Uiso   1.00
N181   N     0.55784   0.41855   0.25396   0.00000  Uiso   1.00
N182   N     0.20461   0.58943   0.21090   0.00000  Uiso   1.00
N183   N     0.60506   0.86739   0.59172   0.00000  Uiso   1.00
N184   N     0.56856   0.31709   0.33891   0.00000  Uiso   1.00
