data_job_03824
_audit_creation_date              2018-12-19
_audit_creation_method            'Materials Studio'
_symmetry_space_group_name_H-M    'P1'
_symmetry_Int_Tables_number       1
_symmetry_cell_setting            triclinic
loop_
_symmetry_equiv_pos_as_xyz
  x,y,z
_cell_length_a                    17.1935
_cell_length_b                    18.6830
_cell_length_c                    8.7188
_cell_angle_alpha                 90.0000
_cell_angle_beta                  90.0000
_cell_angle_gamma                 90.0000
loop_
_atom_site_label
_atom_site_type_symbol
_atom_site_fract_x
_atom_site_fract_y
_atom_site_fract_z
_atom_site_U_iso_or_equiv
_atom_site_adp_type
_atom_site_occupancy
C1     C     0.06025   0.71744   0.43085   0.00000  Uiso   1.00
C2     C     0.00746   0.65409   0.39446   0.00000  Uiso   1.00
C3     C     0.94274   0.63336   0.47856   0.00000  Uiso   1.00
C4     C     0.90211   0.57392   0.42645   0.00000  Uiso   1.00
C5     C     0.81660   0.48121   0.39000   0.00000  Uiso   1.00
C6     C     0.14221   0.68692   0.44462   0.00000  Uiso   1.00
C7     C     0.19079   0.69379   0.57088   0.00000  Uiso   1.00
C8     C     0.26361   0.66199   0.56097   0.00000  Uiso   1.00
C9     C     0.38734   0.62028   0.60235   0.00000  Uiso   1.00
C10    C     0.06052   0.76424   0.28756   0.00000  Uiso   1.00
C11    C     0.04043   0.83613   0.28176   0.00000  Uiso   1.00
C12    C     0.04448   0.86944   0.13962   0.00000  Uiso   1.00
C13    C     0.04136   0.94778   0.93714   0.00000  Uiso   1.00
C14    C     0.10319   0.64875   0.18874   0.00000  Uiso   1.00
C15    C     0.03078   0.61678   0.26296   0.00000  Uiso   1.00
C16    C     0.99023   0.55736   0.21070   0.00000  Uiso   1.00
C17    C     0.92546   0.53655   0.29471   0.00000  Uiso   1.00
C18    C     0.16553   0.64961   0.31313   0.00000  Uiso   1.00
C19    C     0.23829   0.61779   0.30302   0.00000  Uiso   1.00
C20    C     0.28697   0.62461   0.42924   0.00000  Uiso   1.00
C21    C     0.08383   0.72693   0.15605   0.00000  Uiso   1.00
C22    C     0.08792   0.76013   0.01390   0.00000  Uiso   1.00
C23    C     0.06784   0.83206   0.00789   0.00000  Uiso   1.00
H24    H     0.04210   0.74649   0.53323   0.00000  Uiso   1.00
H25    H     0.92471   0.66224   0.58033   0.00000  Uiso   1.00
H26    H     0.17274   0.72267   0.67262   0.00000  Uiso   1.00
H27    H     0.02239   0.86499   0.38355   0.00000  Uiso   1.00
H28    H     0.80486   0.55238   0.57459   0.00000  Uiso   1.00
H29    H     0.32784   0.67981   0.76918   0.00000  Uiso   1.00
H30    H     0.01081   0.97991   0.15961   0.00000  Uiso   1.00
H31    H     0.12134   0.61970   0.08636   0.00000  Uiso   1.00
H32    H     0.00829   0.52850   0.10894   0.00000  Uiso   1.00
H33    H     0.25632   0.58893   0.20124   0.00000  Uiso   1.00
H34    H     0.10597   0.73124   0.91216   0.00000  Uiso   1.00
H35    H     0.87270   0.44382   0.19200   0.00000  Uiso   1.00
H36    H     0.39569   0.57126   0.38658   0.00000  Uiso   1.00
H37    H     0.07865   0.87136   0.77701   0.00000  Uiso   1.00
O38    O     0.76300   0.44038   0.40624   0.00000  Uiso   1.00
O39    O     0.44914   0.60758   0.66152   0.00000  Uiso   1.00
O40    O     0.03319   0.00130   0.86178   0.00000  Uiso   1.00
N41    N     0.83634   0.53935   0.48143   0.00000  Uiso   1.00
N42    N     0.32529   0.65849   0.66337   0.00000  Uiso   1.00
N43    N     0.02891   0.93906   0.09348   0.00000  Uiso   1.00
N44    N     0.87284   0.48094   0.27556   0.00000  Uiso   1.00
N45    N     0.36179   0.60008   0.45750   0.00000  Uiso   1.00
N46    N     0.06541   0.88065   0.88761   0.00000  Uiso   1.00
C47    C     0.93975   0.28256   0.93085   0.00000  Uiso   1.00
C48    C     0.99254   0.34591   0.89446   0.00000  Uiso   1.00
C49    C     0.05726   0.36664   0.97856   0.00000  Uiso   1.00
C50    C     0.09789   0.42608   0.92645   0.00000  Uiso   1.00
C51    C     0.18340   0.51879   0.89000   0.00000  Uiso   1.00
C52    C     0.85779   0.31308   0.94462   0.00000  Uiso   1.00
C53    C     0.80921   0.30621   0.07088   0.00000  Uiso   1.00
C54    C     0.73639   0.33801   0.06097   0.00000  Uiso   1.00
C55    C     0.61266   0.37972   0.10235   0.00000  Uiso   1.00
C56    C     0.93948   0.23576   0.78756   0.00000  Uiso   1.00
C57    C     0.95957   0.16387   0.78176   0.00000  Uiso   1.00
C58    C     0.95552   0.13056   0.63962   0.00000  Uiso   1.00
C59    C     0.95864   0.05222   0.43714   0.00000  Uiso   1.00
C60    C     0.89681   0.35125   0.68874   0.00000  Uiso   1.00
C61    C     0.96922   0.38322   0.76296   0.00000  Uiso   1.00
C62    C     0.00977   0.44264   0.71070   0.00000  Uiso   1.00
C63    C     0.07454   0.46345   0.79471   0.00000  Uiso   1.00
C64    C     0.83447   0.35039   0.81313   0.00000  Uiso   1.00
C65    C     0.76171   0.38221   0.80302   0.00000  Uiso   1.00
C66    C     0.71303   0.37539   0.92924   0.00000  Uiso   1.00
C67    C     0.91617   0.27307   0.65605   0.00000  Uiso   1.00
C68    C     0.91208   0.23987   0.51390   0.00000  Uiso   1.00
C69    C     0.93216   0.16794   0.50789   0.00000  Uiso   1.00
H70    H     0.95790   0.25351   0.03323   0.00000  Uiso   1.00
H71    H     0.07529   0.33776   0.08033   0.00000  Uiso   1.00
H72    H     0.82726   0.27733   0.17262   0.00000  Uiso   1.00
H73    H     0.97761   0.13501   0.88355   0.00000  Uiso   1.00
H74    H     0.19514   0.44762   0.07459   0.00000  Uiso   1.00
H75    H     0.67216   0.32019   0.26918   0.00000  Uiso   1.00
H76    H     0.98919   0.02009   0.65961   0.00000  Uiso   1.00
H77    H     0.87866   0.38030   0.58636   0.00000  Uiso   1.00
H78    H     0.99171   0.47150   0.60894   0.00000  Uiso   1.00
H79    H     0.74368   0.41107   0.70124   0.00000  Uiso   1.00
H80    H     0.89403   0.26876   0.41216   0.00000  Uiso   1.00
H81    H     0.12730   0.55618   0.69200   0.00000  Uiso   1.00
H82    H     0.60431   0.42874   0.88658   0.00000  Uiso   1.00
H83    H     0.92135   0.12864   0.27701   0.00000  Uiso   1.00
O84    O     0.23700   0.55962   0.90624   0.00000  Uiso   1.00
O85    O     0.55086   0.39242   0.16152   0.00000  Uiso   1.00
O86    O     0.96681   0.99870   0.36178   0.00000  Uiso   1.00
N87    N     0.16366   0.46065   0.98143   0.00000  Uiso   1.00
N88    N     0.67471   0.34151   0.16337   0.00000  Uiso   1.00
N89    N     0.97109   0.06094   0.59348   0.00000  Uiso   1.00
N90    N     0.12716   0.51906   0.77556   0.00000  Uiso   1.00
N91    N     0.63821   0.39992   0.95750   0.00000  Uiso   1.00
N92    N     0.93459   0.11935   0.38761   0.00000  Uiso   1.00
C93    C     0.56025   0.78256   0.43085   0.00000  Uiso   1.00
C94    C     0.50746   0.84591   0.39446   0.00000  Uiso   1.00
C95    C     0.44274   0.86664   0.47856   0.00000  Uiso   1.00
C96    C     0.40211   0.92608   0.42645   0.00000  Uiso   1.00
C97    C     0.31660   0.01879   0.39000   0.00000  Uiso   1.00
C98    C     0.64221   0.81308   0.44462   0.00000  Uiso   1.00
C99    C     0.69079   0.80621   0.57088   0.00000  Uiso   1.00
C100   C     0.76361   0.83801   0.56097   0.00000  Uiso   1.00
C101   C     0.88734   0.87972   0.60235   0.00000  Uiso   1.00
C102   C     0.56052   0.73576   0.28756   0.00000  Uiso   1.00
C103   C     0.54043   0.66387   0.28176   0.00000  Uiso   1.00
C104   C     0.54448   0.63056   0.13962   0.00000  Uiso   1.00
C105   C     0.54136   0.55222   0.93714   0.00000  Uiso   1.00
C106   C     0.60319   0.85125   0.18874   0.00000  Uiso   1.00
C107   C     0.53078   0.88322   0.26296   0.00000  Uiso   1.00
C108   C     0.49023   0.94264   0.21070   0.00000  Uiso   1.00
C109   C     0.42546   0.96345   0.29471   0.00000  Uiso   1.00
C110   C     0.66553   0.85039   0.31313   0.00000  Uiso   1.00
C111   C     0.73829   0.88221   0.30302   0.00000  Uiso   1.00
C112   C     0.78697   0.87539   0.42924   0.00000  Uiso   1.00
C113   C     0.58383   0.77307   0.15605   0.00000  Uiso   1.00
C114   C     0.58792   0.73987   0.01390   0.00000  Uiso   1.00
C115   C     0.56784   0.66794   0.00789   0.00000  Uiso   1.00
H116   H     0.54210   0.75351   0.53323   0.00000  Uiso   1.00
H117   H     0.42471   0.83776   0.58033   0.00000  Uiso   1.00
H118   H     0.67274   0.77733   0.67262   0.00000  Uiso   1.00
H119   H     0.52239   0.63501   0.38355   0.00000  Uiso   1.00
H120   H     0.30486   0.94762   0.57459   0.00000  Uiso   1.00
H121   H     0.82784   0.82019   0.76918   0.00000  Uiso   1.00
H122   H     0.51081   0.52009   0.15961   0.00000  Uiso   1.00
H123   H     0.62134   0.88030   0.08636   0.00000  Uiso   1.00
H124   H     0.50829   0.97150   0.10894   0.00000  Uiso   1.00
H125   H     0.75632   0.91107   0.20124   0.00000  Uiso   1.00
H126   H     0.60597   0.76876   0.91216   0.00000  Uiso   1.00
H127   H     0.37270   0.05618   0.19200   0.00000  Uiso   1.00
H128   H     0.89569   0.92874   0.38658   0.00000  Uiso   1.00
H129   H     0.57865   0.62864   0.77701   0.00000  Uiso   1.00
O130   O     0.26300   0.05962   0.40624   0.00000  Uiso   1.00
O131   O     0.94914   0.89242   0.66152   0.00000  Uiso   1.00
O132   O     0.53319   0.49870   0.86178   0.00000  Uiso   1.00
N133   N     0.33634   0.96065   0.48143   0.00000  Uiso   1.00
N134   N     0.82529   0.84151   0.66337   0.00000  Uiso   1.00
N135   N     0.52891   0.56094   0.09348   0.00000  Uiso   1.00
N136   N     0.37284   0.01906   0.27556   0.00000  Uiso   1.00
N137   N     0.86179   0.89992   0.45750   0.00000  Uiso   1.00
N138   N     0.56541   0.61935   0.88761   0.00000  Uiso   1.00
C139   C     0.43975   0.21744   0.93085   0.00000  Uiso   1.00
C140   C     0.49254   0.15409   0.89446   0.00000  Uiso   1.00
C141   C     0.55726   0.13336   0.97856   0.00000  Uiso   1.00
C142   C     0.59789   0.07392   0.92645   0.00000  Uiso   1.00
C143   C     0.68340   0.98121   0.89000   0.00000  Uiso   1.00
C144   C     0.35779   0.18692   0.94462   0.00000  Uiso   1.00
C145   C     0.30921   0.19379   0.07088   0.00000  Uiso   1.00
C146   C     0.23639   0.16199   0.06097   0.00000  Uiso   1.00
C147   C     0.11266   0.12028   0.10235   0.00000  Uiso   1.00
C148   C     0.43948   0.26424   0.78756   0.00000  Uiso   1.00
C149   C     0.45957   0.33613   0.78176   0.00000  Uiso   1.00
C150   C     0.45552   0.36944   0.63962   0.00000  Uiso   1.00
C151   C     0.45864   0.44778   0.43714   0.00000  Uiso   1.00
C152   C     0.39681   0.14875   0.68874   0.00000  Uiso   1.00
C153   C     0.46922   0.11678   0.76296   0.00000  Uiso   1.00
C154   C     0.50977   0.05736   0.71070   0.00000  Uiso   1.00
C155   C     0.57454   0.03655   0.79471   0.00000  Uiso   1.00
C156   C     0.33447   0.14961   0.81313   0.00000  Uiso   1.00
C157   C     0.26171   0.11779   0.80302   0.00000  Uiso   1.00
C158   C     0.21303   0.12461   0.92924   0.00000  Uiso   1.00
C159   C     0.41617   0.22693   0.65605   0.00000  Uiso   1.00
C160   C     0.41208   0.26013   0.51390   0.00000  Uiso   1.00
C161   C     0.43216   0.33206   0.50789   0.00000  Uiso   1.00
H162   H     0.45790   0.24649   0.03323   0.00000  Uiso   1.00
H163   H     0.57529   0.16224   0.08033   0.00000  Uiso   1.00
H164   H     0.32726   0.22267   0.17262   0.00000  Uiso   1.00
H165   H     0.47761   0.36499   0.88355   0.00000  Uiso   1.00
H166   H     0.69514   0.05238   0.07459   0.00000  Uiso   1.00
H167   H     0.17216   0.17981   0.26918   0.00000  Uiso   1.00
H168   H     0.48919   0.47991   0.65961   0.00000  Uiso   1.00
H169   H     0.37866   0.11970   0.58636   0.00000  Uiso   1.00
H170   H     0.49171   0.02850   0.60894   0.00000  Uiso   1.00
H171   H     0.24368   0.08893   0.70124   0.00000  Uiso   1.00
H172   H     0.39403   0.23124   0.41216   0.00000  Uiso   1.00
H173   H     0.62730   0.94382   0.69200   0.00000  Uiso   1.00
H174   H     0.10431   0.07126   0.88658   0.00000  Uiso   1.00
H175   H     0.42135   0.37136   0.27701   0.00000  Uiso   1.00
O176   O     0.73700   0.94038   0.90624   0.00000  Uiso   1.00
O177   O     0.05086   0.10758   0.16152   0.00000  Uiso   1.00
O178   O     0.46681   0.50130   0.36178   0.00000  Uiso   1.00
N179   N     0.66366   0.03935   0.98143   0.00000  Uiso   1.00
N180   N     0.17471   0.15849   0.16337   0.00000  Uiso   1.00
N181   N     0.47109   0.43906   0.59348   0.00000  Uiso   1.00
N182   N     0.62716   0.98094   0.77556   0.00000  Uiso   1.00
N183   N     0.13821   0.10008   0.95750   0.00000  Uiso   1.00
N184   N     0.43459   0.38065   0.38761   0.00000  Uiso   1.00
