data_job_04872
_audit_creation_date              2018-12-19
_audit_creation_method            'Materials Studio'
_symmetry_space_group_name_H-M    'P1'
_symmetry_Int_Tables_number       1
_symmetry_cell_setting            triclinic
loop_
_symmetry_equiv_pos_as_xyz
  x,y,z
_cell_length_a                    21.3613
_cell_length_b                    14.4738
_cell_length_c                    20.7671
_cell_angle_alpha                 90.0000
_cell_angle_beta                  45.7411
_cell_angle_gamma                 90.0000
loop_
_atom_site_label
_atom_site_type_symbol
_atom_site_fract_x
_atom_site_fract_y
_atom_site_fract_z
_atom_site_U_iso_or_equiv
_atom_site_adp_type
_atom_site_occupancy
C1     C     0.07543   0.31661   0.32618   0.00000  Uiso   1.00
C2     C     0.12822   0.37791   0.33361   0.00000  Uiso   1.00
C3     C     0.12656   0.47376   0.33612   0.00000  Uiso   1.00
C4     C     0.17965   0.51707   0.34305   0.00000  Uiso   1.00
C5     C     0.25361   0.61999   0.35388   0.00000  Uiso   1.00
C6     C     0.14176   0.25618   0.24349   0.00000  Uiso   1.00
C7     C     0.15146   0.24966   0.17024   0.00000  Uiso   1.00
C8     C     0.21593   0.19048   0.10131   0.00000  Uiso   1.00
C9     C     0.31087   0.10435   0.97226   0.00000  Uiso   1.00
C10    C     0.02297   0.25163   0.40683   0.00000  Uiso   1.00
C11    C     0.93279   0.24128   0.47090   0.00000  Uiso   1.00
C12    C     0.89726   0.17826   0.53949   0.00000  Uiso   1.00
C13    C     0.80776   0.08508   0.66404   0.00000  Uiso   1.00
C14    C     0.17269   0.22308   0.33403   0.00000  Uiso   1.00
C15    C     0.18105   0.32711   0.33787   0.00000  Uiso   1.00
C16    C     0.23415   0.37028   0.34480   0.00000  Uiso   1.00
C17    C     0.23256   0.46618   0.34732   0.00000  Uiso   1.00
C18    C     0.19458   0.20538   0.24775   0.00000  Uiso   1.00
C19    C     0.25905   0.14618   0.17892   0.00000  Uiso   1.00
C20    C     0.26885   0.13959   0.10558   0.00000  Uiso   1.00
C21    C     0.07579   0.20083   0.41109   0.00000  Uiso   1.00
C22    C     0.04039   0.13781   0.47959   0.00000  Uiso   1.00
C23    C     0.95018   0.12736   0.54376   0.00000  Uiso   1.00
H24    H     0.03431   0.35615   0.32286   0.00000  Uiso   1.00
H25    H     0.08567   0.51305   0.33280   0.00000  Uiso   1.00
H26    H     0.11056   0.28898   0.16696   0.00000  Uiso   1.00
H27    H     0.89194   0.28060   0.46758   0.00000  Uiso   1.00
H28    H     0.16594   0.66459   0.34568   0.00000  Uiso   1.00
H29    H     0.21840   0.19210   0.99600   0.00000  Uiso   1.00
H30    H     0.75738   0.17444   0.62991   0.00000  Uiso   1.00
H31    H     0.21381   0.18352   0.33735   0.00000  Uiso   1.00
H32    H     0.27503   0.33095   0.34810   0.00000  Uiso   1.00
H33    H     0.29992   0.10688   0.18225   0.00000  Uiso   1.00
H34    H     0.08129   0.09851   0.48287   0.00000  Uiso   1.00
H35    H     0.31963   0.51680   0.35809   0.00000  Uiso   1.00
H36    H     0.37209   0.04430   0.00840   0.00000  Uiso   1.00
H37    H     0.91107   0.02665   0.64232   0.00000  Uiso   1.00
O38    O     0.27983   0.69079   0.35866   0.00000  Uiso   1.00
O39    O     0.34865   0.07089   0.89990   0.00000  Uiso   1.00
O40    O     0.74380   0.04773   0.73158   0.00000  Uiso   1.00
N41    N     0.19369   0.60958   0.34714   0.00000  Uiso   1.00
N42    N     0.24275   0.16784   0.02020   0.00000  Uiso   1.00
N43    N     0.81174   0.15131   0.61285   0.00000  Uiso   1.00
N44    N     0.27639   0.53005   0.35382   0.00000  Uiso   1.00
N45    N     0.32545   0.08831   0.02688   0.00000  Uiso   1.00
N46    N     0.89444   0.07178   0.61952   0.00000  Uiso   1.00
C47    C     0.45872   0.80991   0.34281   0.00000  Uiso   1.00
C48    C     0.51022   0.86734   0.35431   0.00000  Uiso   1.00
C49    C     0.51762   0.96290   0.34886   0.00000  Uiso   1.00
C50    C     0.56773   0.00238   0.36137   0.00000  Uiso   1.00
C51    C     0.64148   0.09980   0.37655   0.00000  Uiso   1.00
C52    C     0.52360   0.74132   0.26756   0.00000  Uiso   1.00
C53    C     0.54224   0.73092   0.18918   0.00000  Uiso   1.00
C54    C     0.60360   0.66431   0.12867   0.00000  Uiso   1.00
C55    C     0.69807   0.56603   0.00920   0.00000  Uiso   1.00
C56    C     0.39430   0.75267   0.42840   0.00000  Uiso   1.00
C57    C     0.30421   0.75180   0.48524   0.00000  Uiso   1.00
C58    C     0.25671   0.69472   0.56013   0.00000  Uiso   1.00
C59    C     0.15042   0.61407   0.69038   0.00000  Uiso   1.00
C60    C     0.53455   0.71010   0.37470   0.00000  Uiso   1.00
C61    C     0.55142   0.81312   0.37163   0.00000  Uiso   1.00
C62    C     0.60152   0.85247   0.38415   0.00000  Uiso   1.00
C63    C     0.60899   0.94807   0.37873   0.00000  Uiso   1.00
C64    C     0.56479   0.68711   0.28488   0.00000  Uiso   1.00
C65    C     0.62614   0.62049   0.22447   0.00000  Uiso   1.00
C66    C     0.64487   0.61000   0.14602   0.00000  Uiso   1.00
C67    C     0.43549   0.69846   0.44572   0.00000  Uiso   1.00
C68    C     0.38812   0.64137   0.52053   0.00000  Uiso   1.00
C69    C     0.29798   0.64041   0.57748   0.00000  Uiso   1.00
H70    H     0.42665   0.85212   0.32932   0.00000  Uiso   1.00
H71    H     0.48574   0.00483   0.33545   0.00000  Uiso   1.00
H72    H     0.51035   0.77288   0.17580   0.00000  Uiso   1.00
H73    H     0.27236   0.79376   0.47181   0.00000  Uiso   1.00
H74    H     0.56944   0.15024   0.34985   0.00000  Uiso   1.00
H75    H     0.62130   0.66113   0.01324   0.00000  Uiso   1.00
H76    H     0.11946   0.70515   0.63744   0.00000  Uiso   1.00
H77    H     0.56662   0.66788   0.38819   0.00000  Uiso   1.00
H78    H     0.63339   0.81050   0.39756   0.00000  Uiso   1.00
H79    H     0.65800   0.57855   0.23790   0.00000  Uiso   1.00
H80    H     0.42001   0.59942   0.53391   0.00000  Uiso   1.00
H81    H     0.68929   0.99251   0.40026   0.00000  Uiso   1.00
H82    H     0.74114   0.50340   0.06364   0.00000  Uiso   1.00
H83    H     0.23931   0.54742   0.68784   0.00000  Uiso   1.00
O84    O     0.67079   0.16851   0.38013   0.00000  Uiso   1.00
O85    O     0.73881   0.52681   0.93851   0.00000  Uiso   1.00
O86    O     0.08041   0.58457   0.75744   0.00000  Uiso   1.00
N87    N     0.58847   0.09354   0.36045   0.00000  Uiso   1.00
N88    N     0.63697   0.63627   0.04573   0.00000  Uiso   1.00
N89    N     0.16779   0.67741   0.62929   0.00000  Uiso   1.00
N90    N     0.65296   0.00867   0.38757   0.00000  Uiso   1.00
N91    N     0.70145   0.55140   0.07285   0.00000  Uiso   1.00
N92    N     0.23228   0.59254   0.65641   0.00000  Uiso   1.00
C93    C     0.92457   0.81661   0.17382   0.00000  Uiso   1.00
C94    C     0.87178   0.87791   0.16639   0.00000  Uiso   1.00
C95    C     0.87344   0.97376   0.16388   0.00000  Uiso   1.00
C96    C     0.82035   0.01707   0.15695   0.00000  Uiso   1.00
C97    C     0.74639   0.11999   0.14612   0.00000  Uiso   1.00
C98    C     0.85824   0.75618   0.25651   0.00000  Uiso   1.00
C99    C     0.84854   0.74966   0.32976   0.00000  Uiso   1.00
C100   C     0.78407   0.69048   0.39869   0.00000  Uiso   1.00
C101   C     0.68913   0.60435   0.52774   0.00000  Uiso   1.00
C102   C     0.97703   0.75163   0.09317   0.00000  Uiso   1.00
C103   C     0.06721   0.74128   0.02910   0.00000  Uiso   1.00
C104   C     0.10274   0.67826   0.96051   0.00000  Uiso   1.00
C105   C     0.19224   0.58508   0.83596   0.00000  Uiso   1.00
C106   C     0.82731   0.72308   0.16597   0.00000  Uiso   1.00
C107   C     0.81895   0.82711   0.16213   0.00000  Uiso   1.00
C108   C     0.76585   0.87028   0.15520   0.00000  Uiso   1.00
C109   C     0.76744   0.96618   0.15268   0.00000  Uiso   1.00
C110   C     0.80542   0.70538   0.25225   0.00000  Uiso   1.00
C111   C     0.74095   0.64618   0.32108   0.00000  Uiso   1.00
C112   C     0.73115   0.63959   0.39442   0.00000  Uiso   1.00
C113   C     0.92421   0.70083   0.08891   0.00000  Uiso   1.00
C114   C     0.95961   0.63781   0.02041   0.00000  Uiso   1.00
C115   C     0.04982   0.62736   0.95624   0.00000  Uiso   1.00
H116   H     0.96569   0.85615   0.17714   0.00000  Uiso   1.00
H117   H     0.91433   0.01305   0.16720   0.00000  Uiso   1.00
H118   H     0.88944   0.78898   0.33304   0.00000  Uiso   1.00
H119   H     0.10806   0.78060   0.03242   0.00000  Uiso   1.00
H120   H     0.83406   0.16459   0.15432   0.00000  Uiso   1.00
H121   H     0.78160   0.69210   0.50400   0.00000  Uiso   1.00
H122   H     0.24262   0.67444   0.87009   0.00000  Uiso   1.00
H123   H     0.78619   0.68352   0.16265   0.00000  Uiso   1.00
H124   H     0.72497   0.83095   0.15190   0.00000  Uiso   1.00
H125   H     0.70008   0.60688   0.31775   0.00000  Uiso   1.00
H126   H     0.91871   0.59851   0.01713   0.00000  Uiso   1.00
H127   H     0.68037   0.01680   0.14191   0.00000  Uiso   1.00
H128   H     0.62791   0.54430   0.49160   0.00000  Uiso   1.00
H129   H     0.08893   0.52665   0.85768   0.00000  Uiso   1.00
O130   O     0.72017   0.19079   0.14134   0.00000  Uiso   1.00
O131   O     0.65135   0.57089   0.60010   0.00000  Uiso   1.00
O132   O     0.25620   0.54773   0.76842   0.00000  Uiso   1.00
N133   N     0.80631   0.10958   0.15286   0.00000  Uiso   1.00
N134   N     0.75725   0.66784   0.47980   0.00000  Uiso   1.00
N135   N     0.18826   0.65131   0.88715   0.00000  Uiso   1.00
N136   N     0.72361   0.03005   0.14618   0.00000  Uiso   1.00
N137   N     0.67455   0.58831   0.47312   0.00000  Uiso   1.00
N138   N     0.10556   0.57178   0.88048   0.00000  Uiso   1.00
C139   C     0.54128   0.30991   0.15719   0.00000  Uiso   1.00
C140   C     0.48978   0.36734   0.14569   0.00000  Uiso   1.00
C141   C     0.48238   0.46290   0.15114   0.00000  Uiso   1.00
C142   C     0.43227   0.50238   0.13863   0.00000  Uiso   1.00
C143   C     0.35852   0.59980   0.12345   0.00000  Uiso   1.00
C144   C     0.47640   0.24132   0.23244   0.00000  Uiso   1.00
C145   C     0.45776   0.23092   0.31082   0.00000  Uiso   1.00
C146   C     0.39640   0.16431   0.37133   0.00000  Uiso   1.00
C147   C     0.30193   0.06603   0.49080   0.00000  Uiso   1.00
C148   C     0.60570   0.25267   0.07160   0.00000  Uiso   1.00
C149   C     0.69579   0.25180   0.01476   0.00000  Uiso   1.00
C150   C     0.74329   0.19472   0.93987   0.00000  Uiso   1.00
C151   C     0.84958   0.11407   0.80962   0.00000  Uiso   1.00
C152   C     0.46545   0.21010   0.12530   0.00000  Uiso   1.00
C153   C     0.44858   0.31312   0.12837   0.00000  Uiso   1.00
C154   C     0.39848   0.35247   0.11585   0.00000  Uiso   1.00
C155   C     0.39101   0.44807   0.12127   0.00000  Uiso   1.00
C156   C     0.43521   0.18711   0.21512   0.00000  Uiso   1.00
C157   C     0.37386   0.12049   0.27553   0.00000  Uiso   1.00
C158   C     0.35513   0.11000   0.35398   0.00000  Uiso   1.00
C159   C     0.56451   0.19846   0.05428   0.00000  Uiso   1.00
C160   C     0.61188   0.14137   0.97947   0.00000  Uiso   1.00
C161   C     0.70202   0.14041   0.92252   0.00000  Uiso   1.00
H162   H     0.57335   0.35212   0.17068   0.00000  Uiso   1.00
H163   H     0.51426   0.50483   0.16455   0.00000  Uiso   1.00
H164   H     0.48965   0.27288   0.32420   0.00000  Uiso   1.00
H165   H     0.72764   0.29376   0.02819   0.00000  Uiso   1.00
H166   H     0.43056   0.65024   0.15015   0.00000  Uiso   1.00
H167   H     0.37870   0.16113   0.48676   0.00000  Uiso   1.00
H168   H     0.88054   0.20515   0.86256   0.00000  Uiso   1.00
H169   H     0.43338   0.16788   0.11181   0.00000  Uiso   1.00
H170   H     0.36661   0.31050   0.10244   0.00000  Uiso   1.00
H171   H     0.34200   0.07855   0.26210   0.00000  Uiso   1.00
H172   H     0.57999   0.09942   0.96609   0.00000  Uiso   1.00
H173   H     0.31071   0.49251   0.09974   0.00000  Uiso   1.00
H174   H     0.25886   0.00340   0.43636   0.00000  Uiso   1.00
H175   H     0.76069   0.04742   0.81216   0.00000  Uiso   1.00
O176   O     0.32921   0.66851   0.11987   0.00000  Uiso   1.00
O177   O     0.26119   0.02681   0.56149   0.00000  Uiso   1.00
O178   O     0.91959   0.08457   0.74256   0.00000  Uiso   1.00
N179   N     0.41153   0.59354   0.13955   0.00000  Uiso   1.00
N180   N     0.36303   0.13627   0.45427   0.00000  Uiso   1.00
N181   N     0.83221   0.17741   0.87071   0.00000  Uiso   1.00
N182   N     0.34704   0.50867   0.11243   0.00000  Uiso   1.00
N183   N     0.29855   0.05140   0.42715   0.00000  Uiso   1.00
N184   N     0.76772   0.09254   0.84359   0.00000  Uiso   1.00
C185   C     0.92457   0.68339   0.67382   0.00000  Uiso   1.00
C186   C     0.87178   0.62209   0.66639   0.00000  Uiso   1.00
C187   C     0.87344   0.52624   0.66388   0.00000  Uiso   1.00
C188   C     0.82035   0.48293   0.65695   0.00000  Uiso   1.00
C189   C     0.74639   0.38001   0.64612   0.00000  Uiso   1.00
C190   C     0.85824   0.74382   0.75651   0.00000  Uiso   1.00
C191   C     0.84854   0.75034   0.82976   0.00000  Uiso   1.00
C192   C     0.78407   0.80952   0.89869   0.00000  Uiso   1.00
C193   C     0.68913   0.89565   0.02774   0.00000  Uiso   1.00
C194   C     0.97703   0.74837   0.59317   0.00000  Uiso   1.00
C195   C     0.06721   0.75872   0.52910   0.00000  Uiso   1.00
C196   C     0.10274   0.82174   0.46051   0.00000  Uiso   1.00
C197   C     0.19224   0.91492   0.33596   0.00000  Uiso   1.00
C198   C     0.82731   0.77692   0.66597   0.00000  Uiso   1.00
C199   C     0.81895   0.67289   0.66213   0.00000  Uiso   1.00
C200   C     0.76585   0.62972   0.65520   0.00000  Uiso   1.00
C201   C     0.76744   0.53382   0.65268   0.00000  Uiso   1.00
C202   C     0.80542   0.79462   0.75225   0.00000  Uiso   1.00
C203   C     0.74095   0.85382   0.82108   0.00000  Uiso   1.00
C204   C     0.73115   0.86041   0.89442   0.00000  Uiso   1.00
C205   C     0.92421   0.79917   0.58891   0.00000  Uiso   1.00
C206   C     0.95961   0.86219   0.52041   0.00000  Uiso   1.00
C207   C     0.04982   0.87264   0.45624   0.00000  Uiso   1.00
H208   H     0.96569   0.64385   0.67714   0.00000  Uiso   1.00
H209   H     0.91433   0.48695   0.66720   0.00000  Uiso   1.00
H210   H     0.88944   0.71102   0.83304   0.00000  Uiso   1.00
H211   H     0.10806   0.71940   0.53242   0.00000  Uiso   1.00
H212   H     0.83406   0.33541   0.65432   0.00000  Uiso   1.00
H213   H     0.78160   0.80790   0.00400   0.00000  Uiso   1.00
H214   H     0.24262   0.82556   0.37009   0.00000  Uiso   1.00
H215   H     0.78619   0.81648   0.66265   0.00000  Uiso   1.00
H216   H     0.72497   0.66905   0.65190   0.00000  Uiso   1.00
H217   H     0.70008   0.89312   0.81775   0.00000  Uiso   1.00
H218   H     0.91871   0.90149   0.51713   0.00000  Uiso   1.00
H219   H     0.68037   0.48320   0.64191   0.00000  Uiso   1.00
H220   H     0.62791   0.95570   0.99160   0.00000  Uiso   1.00
H221   H     0.08893   0.97335   0.35768   0.00000  Uiso   1.00
O222   O     0.72017   0.30921   0.64134   0.00000  Uiso   1.00
O223   O     0.65135   0.92911   0.10010   0.00000  Uiso   1.00
O224   O     0.25620   0.95227   0.26842   0.00000  Uiso   1.00
N225   N     0.80631   0.39042   0.65286   0.00000  Uiso   1.00
N226   N     0.75725   0.83216   0.97980   0.00000  Uiso   1.00
N227   N     0.18826   0.84869   0.38715   0.00000  Uiso   1.00
N228   N     0.72361   0.46995   0.64618   0.00000  Uiso   1.00
N229   N     0.67455   0.91169   0.97312   0.00000  Uiso   1.00
N230   N     0.10556   0.92822   0.38048   0.00000  Uiso   1.00
C231   C     0.54128   0.19009   0.65719   0.00000  Uiso   1.00
C232   C     0.48978   0.13266   0.64569   0.00000  Uiso   1.00
C233   C     0.48238   0.03710   0.65114   0.00000  Uiso   1.00
C234   C     0.43227   0.99762   0.63863   0.00000  Uiso   1.00
C235   C     0.35852   0.90020   0.62345   0.00000  Uiso   1.00
C236   C     0.47640   0.25868   0.73244   0.00000  Uiso   1.00
C237   C     0.45776   0.26908   0.81082   0.00000  Uiso   1.00
C238   C     0.39640   0.33569   0.87133   0.00000  Uiso   1.00
C239   C     0.30193   0.43397   0.99080   0.00000  Uiso   1.00
C240   C     0.60570   0.24733   0.57160   0.00000  Uiso   1.00
C241   C     0.69579   0.24820   0.51476   0.00000  Uiso   1.00
C242   C     0.74329   0.30528   0.43987   0.00000  Uiso   1.00
C243   C     0.84958   0.38593   0.30962   0.00000  Uiso   1.00
C244   C     0.46545   0.28990   0.62530   0.00000  Uiso   1.00
C245   C     0.44858   0.18688   0.62837   0.00000  Uiso   1.00
C246   C     0.39848   0.14753   0.61585   0.00000  Uiso   1.00
C247   C     0.39101   0.05193   0.62127   0.00000  Uiso   1.00
C248   C     0.43521   0.31289   0.71512   0.00000  Uiso   1.00
C249   C     0.37386   0.37951   0.77553   0.00000  Uiso   1.00
C250   C     0.35513   0.39000   0.85398   0.00000  Uiso   1.00
C251   C     0.56451   0.30154   0.55428   0.00000  Uiso   1.00
C252   C     0.61188   0.35863   0.47947   0.00000  Uiso   1.00
C253   C     0.70202   0.35959   0.42252   0.00000  Uiso   1.00
H254   H     0.57335   0.14788   0.67068   0.00000  Uiso   1.00
H255   H     0.51426   0.99517   0.66455   0.00000  Uiso   1.00
H256   H     0.48965   0.22712   0.82420   0.00000  Uiso   1.00
H257   H     0.72764   0.20624   0.52819   0.00000  Uiso   1.00
H258   H     0.43056   0.84976   0.65015   0.00000  Uiso   1.00
H259   H     0.37870   0.33887   0.98676   0.00000  Uiso   1.00
H260   H     0.88054   0.29485   0.36256   0.00000  Uiso   1.00
H261   H     0.43338   0.33212   0.61181   0.00000  Uiso   1.00
H262   H     0.36661   0.18950   0.60244   0.00000  Uiso   1.00
H263   H     0.34200   0.42145   0.76210   0.00000  Uiso   1.00
H264   H     0.57999   0.40058   0.46609   0.00000  Uiso   1.00
H265   H     0.31071   0.00749   0.59974   0.00000  Uiso   1.00
H266   H     0.25886   0.49660   0.93636   0.00000  Uiso   1.00
H267   H     0.76069   0.45258   0.31216   0.00000  Uiso   1.00
O268   O     0.32921   0.83149   0.61987   0.00000  Uiso   1.00
O269   O     0.26119   0.47319   0.06149   0.00000  Uiso   1.00
O270   O     0.91959   0.41543   0.24256   0.00000  Uiso   1.00
N271   N     0.41153   0.90646   0.63955   0.00000  Uiso   1.00
N272   N     0.36303   0.36373   0.95427   0.00000  Uiso   1.00
N273   N     0.83221   0.32259   0.37071   0.00000  Uiso   1.00
N274   N     0.34704   0.99133   0.61243   0.00000  Uiso   1.00
N275   N     0.29855   0.44860   0.92715   0.00000  Uiso   1.00
N276   N     0.76772   0.40746   0.34359   0.00000  Uiso   1.00
C277   C     0.07543   0.18339   0.82618   0.00000  Uiso   1.00
C278   C     0.12822   0.12209   0.83361   0.00000  Uiso   1.00
C279   C     0.12656   0.02624   0.83612   0.00000  Uiso   1.00
C280   C     0.17965   0.98293   0.84305   0.00000  Uiso   1.00
C281   C     0.25361   0.88001   0.85388   0.00000  Uiso   1.00
C282   C     0.14176   0.24382   0.74349   0.00000  Uiso   1.00
C283   C     0.15146   0.25034   0.67024   0.00000  Uiso   1.00
C284   C     0.21593   0.30952   0.60131   0.00000  Uiso   1.00
C285   C     0.31087   0.39565   0.47226   0.00000  Uiso   1.00
C286   C     0.02297   0.24837   0.90683   0.00000  Uiso   1.00
C287   C     0.93279   0.25872   0.97090   0.00000  Uiso   1.00
C288   C     0.89726   0.32174   0.03949   0.00000  Uiso   1.00
C289   C     0.80776   0.41492   0.16404   0.00000  Uiso   1.00
C290   C     0.17269   0.27692   0.83403   0.00000  Uiso   1.00
C291   C     0.18105   0.17289   0.83787   0.00000  Uiso   1.00
C292   C     0.23415   0.12972   0.84480   0.00000  Uiso   1.00
C293   C     0.23256   0.03382   0.84732   0.00000  Uiso   1.00
C294   C     0.19458   0.29462   0.74775   0.00000  Uiso   1.00
C295   C     0.25905   0.35382   0.67892   0.00000  Uiso   1.00
C296   C     0.26885   0.36041   0.60558   0.00000  Uiso   1.00
C297   C     0.07579   0.29917   0.91109   0.00000  Uiso   1.00
C298   C     0.04039   0.36219   0.97959   0.00000  Uiso   1.00
C299   C     0.95018   0.37264   0.04376   0.00000  Uiso   1.00
H300   H     0.03431   0.14385   0.82286   0.00000  Uiso   1.00
H301   H     0.08567   0.98695   0.83280   0.00000  Uiso   1.00
H302   H     0.11056   0.21102   0.66696   0.00000  Uiso   1.00
H303   H     0.89194   0.21940   0.96758   0.00000  Uiso   1.00
H304   H     0.16594   0.83541   0.84568   0.00000  Uiso   1.00
H305   H     0.21840   0.30790   0.49600   0.00000  Uiso   1.00
H306   H     0.75738   0.32556   0.12991   0.00000  Uiso   1.00
H307   H     0.21381   0.31648   0.83735   0.00000  Uiso   1.00
H308   H     0.27503   0.16905   0.84810   0.00000  Uiso   1.00
H309   H     0.29992   0.39312   0.68225   0.00000  Uiso   1.00
H310   H     0.08129   0.40149   0.98287   0.00000  Uiso   1.00
H311   H     0.31963   0.98320   0.85809   0.00000  Uiso   1.00
H312   H     0.37209   0.45570   0.50840   0.00000  Uiso   1.00
H313   H     0.91107   0.47335   0.14232   0.00000  Uiso   1.00
O314   O     0.27983   0.80921   0.85866   0.00000  Uiso   1.00
O315   O     0.34865   0.42911   0.39990   0.00000  Uiso   1.00
O316   O     0.74380   0.45227   0.23158   0.00000  Uiso   1.00
N317   N     0.19369   0.89042   0.84714   0.00000  Uiso   1.00
N318   N     0.24275   0.33216   0.52020   0.00000  Uiso   1.00
N319   N     0.81174   0.34869   0.11285   0.00000  Uiso   1.00
N320   N     0.27639   0.96995   0.85382   0.00000  Uiso   1.00
N321   N     0.32545   0.41169   0.52688   0.00000  Uiso   1.00
N322   N     0.89444   0.42822   0.11952   0.00000  Uiso   1.00
C323   C     0.45872   0.69009   0.84281   0.00000  Uiso   1.00
C324   C     0.51022   0.63266   0.85431   0.00000  Uiso   1.00
C325   C     0.51762   0.53710   0.84886   0.00000  Uiso   1.00
C326   C     0.56773   0.49762   0.86137   0.00000  Uiso   1.00
C327   C     0.64148   0.40020   0.87655   0.00000  Uiso   1.00
C328   C     0.52360   0.75868   0.76756   0.00000  Uiso   1.00
C329   C     0.54224   0.76908   0.68918   0.00000  Uiso   1.00
C330   C     0.60360   0.83569   0.62867   0.00000  Uiso   1.00
C331   C     0.69807   0.93397   0.50920   0.00000  Uiso   1.00
C332   C     0.39430   0.74733   0.92840   0.00000  Uiso   1.00
C333   C     0.30421   0.74820   0.98524   0.00000  Uiso   1.00
C334   C     0.25671   0.80528   0.06013   0.00000  Uiso   1.00
C335   C     0.15042   0.88593   0.19038   0.00000  Uiso   1.00
C336   C     0.53455   0.78990   0.87470   0.00000  Uiso   1.00
C337   C     0.55142   0.68688   0.87163   0.00000  Uiso   1.00
C338   C     0.60152   0.64753   0.88415   0.00000  Uiso   1.00
C339   C     0.60899   0.55193   0.87873   0.00000  Uiso   1.00
C340   C     0.56479   0.81289   0.78488   0.00000  Uiso   1.00
C341   C     0.62614   0.87951   0.72447   0.00000  Uiso   1.00
C342   C     0.64487   0.89000   0.64602   0.00000  Uiso   1.00
C343   C     0.43549   0.80154   0.94572   0.00000  Uiso   1.00
C344   C     0.38812   0.85863   0.02053   0.00000  Uiso   1.00
C345   C     0.29798   0.85959   0.07748   0.00000  Uiso   1.00
H346   H     0.42665   0.64788   0.82932   0.00000  Uiso   1.00
H347   H     0.48574   0.49517   0.83545   0.00000  Uiso   1.00
H348   H     0.51035   0.72712   0.67580   0.00000  Uiso   1.00
H349   H     0.27236   0.70624   0.97181   0.00000  Uiso   1.00
H350   H     0.56944   0.34976   0.84985   0.00000  Uiso   1.00
H351   H     0.62130   0.83887   0.51324   0.00000  Uiso   1.00
H352   H     0.11946   0.79485   0.13744   0.00000  Uiso   1.00
H353   H     0.56662   0.83212   0.88819   0.00000  Uiso   1.00
H354   H     0.63339   0.68950   0.89756   0.00000  Uiso   1.00
H355   H     0.65800   0.92145   0.73790   0.00000  Uiso   1.00
H356   H     0.42001   0.90058   0.03391   0.00000  Uiso   1.00
H357   H     0.68929   0.50749   0.90026   0.00000  Uiso   1.00
H358   H     0.74114   0.99660   0.56364   0.00000  Uiso   1.00
H359   H     0.23931   0.95258   0.18784   0.00000  Uiso   1.00
O360   O     0.67079   0.33149   0.88013   0.00000  Uiso   1.00
O361   O     0.73881   0.97319   0.43851   0.00000  Uiso   1.00
O362   O     0.08041   0.91543   0.25744   0.00000  Uiso   1.00
N363   N     0.58847   0.40646   0.86045   0.00000  Uiso   1.00
N364   N     0.63697   0.86373   0.54573   0.00000  Uiso   1.00
N365   N     0.16779   0.82259   0.12929   0.00000  Uiso   1.00
N366   N     0.65296   0.49133   0.88757   0.00000  Uiso   1.00
N367   N     0.70145   0.94860   0.57285   0.00000  Uiso   1.00
N368   N     0.23228   0.90746   0.15641   0.00000  Uiso   1.00
