data_job_00399
_audit_creation_date              2018-12-19
_audit_creation_method            'Materials Studio'
_symmetry_space_group_name_H-M    'P1'
_symmetry_Int_Tables_number       1
_symmetry_cell_setting            triclinic
loop_
_symmetry_equiv_pos_as_xyz
  x,y,z
_cell_length_a                    17.1857
_cell_length_b                    12.0067
_cell_length_c                    11.7259
_cell_angle_alpha                 90.0000
_cell_angle_beta                  81.6558
_cell_angle_gamma                 90.0000
loop_
_atom_site_label
_atom_site_type_symbol
_atom_site_fract_x
_atom_site_fract_y
_atom_site_fract_z
_atom_site_U_iso_or_equiv
_atom_site_adp_type
_atom_site_occupancy
C1     C     0.15108   0.64914   0.09677   0.00000  Uiso   1.00
C2     C     0.15778   0.56099   0.00223   0.00000  Uiso   1.00
C3     C     0.13374   0.57331   0.89495   0.00000  Uiso   1.00
C4     C     0.14493   0.48289   0.82057   0.00000  Uiso   1.00
C5     C     0.15012   0.36107   0.66894   0.00000  Uiso   1.00
C6     C     0.10426   0.59547   0.20309   0.00000  Uiso   1.00
C7     C     0.03525   0.63680   0.26468   0.00000  Uiso   1.00
C8     C     0.00139   0.57541   0.35939   0.00000  Uiso   1.00
C9     C     0.92353   0.50718   0.51964   0.00000  Uiso   1.00
C10    C     0.23409   0.66589   0.12524   0.00000  Uiso   1.00
C11    C     0.27423   0.76643   0.12141   0.00000  Uiso   1.00
C12    C     0.34968   0.76432   0.15060   0.00000  Uiso   1.00
C13    C     0.47339   0.80542   0.18998   0.00000  Uiso   1.00
C14    C     0.21368   0.46664   0.15547   0.00000  Uiso   1.00
C15    C     0.19178   0.46186   0.03412   0.00000  Uiso   1.00
C16    C     0.20300   0.37140   0.95988   0.00000  Uiso   1.00
C17    C     0.17899   0.38358   0.85251   0.00000  Uiso   1.00
C18    C     0.13826   0.49635   0.23497   0.00000  Uiso   1.00
C19    C     0.10451   0.43489   0.32962   0.00000  Uiso   1.00
C20    C     0.03545   0.47611   0.39134   0.00000  Uiso   1.00
C21    C     0.26810   0.56676   0.15711   0.00000  Uiso   1.00
C22    C     0.34349   0.56450   0.18634   0.00000  Uiso   1.00
C23    C     0.38374   0.66502   0.18254   0.00000  Uiso   1.00
H24    H     0.12460   0.72631   0.07196   0.00000  Uiso   1.00
H25    H     0.10742   0.65004   0.87031   0.00000  Uiso   1.00
H26    H     0.00895   0.71352   0.23999   0.00000  Uiso   1.00
H27    H     0.24790   0.84312   0.09673   0.00000  Uiso   1.00
H28    H     0.10335   0.52174   0.66082   0.00000  Uiso   1.00
H29    H     0.89572   0.65562   0.44034   0.00000  Uiso   1.00
H30    H     0.39959   0.92891   0.13825   0.00000  Uiso   1.00
H31    H     0.24015   0.38946   0.18029   0.00000  Uiso   1.00
H32    H     0.22932   0.29470   0.98458   0.00000  Uiso   1.00
H33    H     0.13084   0.35818   0.35427   0.00000  Uiso   1.00
H34    H     0.36978   0.48778   0.21100   0.00000  Uiso   1.00
H35    H     0.20228   0.23333   0.75357   0.00000  Uiso   1.00
H36    H     0.99465   0.36721   0.53309   0.00000  Uiso   1.00
H37    H     0.49852   0.64050   0.23100   0.00000  Uiso   1.00
O38    O     0.14357   0.32126   0.57651   0.00000  Uiso   1.00
O39    O     0.87119   0.49692   0.59922   0.00000  Uiso   1.00
O40    O     0.53225   0.85546   0.20287   0.00000  Uiso   1.00
N41    N     0.12813   0.46687   0.70950   0.00000  Uiso   1.00
N42    N     0.93401   0.59204   0.43829   0.00000  Uiso   1.00
N43    N     0.40507   0.84754   0.15589   0.00000  Uiso   1.00
N44    N     0.18137   0.31168   0.75940   0.00000  Uiso   1.00
N45    N     0.98724   0.43685   0.48820   0.00000  Uiso   1.00
N46    N     0.45830   0.69235   0.20580   0.00000  Uiso   1.00
C47    C     0.74497   0.39508   0.21375   0.00000  Uiso   1.00
C48    C     0.72283   0.48477   0.30476   0.00000  Uiso   1.00
C49    C     0.74659   0.48827   0.41287   0.00000  Uiso   1.00
C50    C     0.72002   0.57727   0.48356   0.00000  Uiso   1.00
C51    C     0.69305   0.70402   0.63036   0.00000  Uiso   1.00
C52    C     0.78322   0.45591   0.10583   0.00000  Uiso   1.00
C53    C     0.85775   0.43515   0.04668   0.00000  Uiso   1.00
C54    C     0.88200   0.49985   0.94990   0.00000  Uiso   1.00
C55    C     0.94876   0.58175   0.78782   0.00000  Uiso   1.00
C56    C     0.66758   0.34860   0.18494   0.00000  Uiso   1.00
C57    C     0.64489   0.23760   0.19227   0.00000  Uiso   1.00
C58    C     0.57178   0.21194   0.16207   0.00000  Uiso   1.00
C59    C     0.45900   0.12722   0.12282   0.00000  Uiso   1.00
C60    C     0.65551   0.54689   0.14704   0.00000  Uiso   1.00
C61    C     0.67424   0.56723   0.26852   0.00000  Uiso   1.00
C62    C     0.64761   0.65624   0.33907   0.00000  Uiso   1.00
C63    C     0.67133   0.65988   0.44726   0.00000  Uiso   1.00
C64    C     0.73462   0.53837   0.06960   0.00000  Uiso   1.00
C65    C     0.75877   0.60311   0.97288   0.00000  Uiso   1.00
C66    C     0.83332   0.58246   0.91360   0.00000  Uiso   1.00
C67    C     0.61898   0.43106   0.14871   0.00000  Uiso   1.00
C68    C     0.54590   0.40557   0.11848   0.00000  Uiso   1.00
C69    C     0.52310   0.29455   0.12577   0.00000  Uiso   1.00
H70    H     0.78281   0.33088   0.24195   0.00000  Uiso   1.00
H71    H     0.78421   0.42445   0.44087   0.00000  Uiso   1.00
H72    H     0.89534   0.37132   0.07474   0.00000  Uiso   1.00
H73    H     0.68251   0.17381   0.22032   0.00000  Uiso   1.00
H74    H     0.76435   0.56457   0.64542   0.00000  Uiso   1.00
H75    H     0.99867   0.45253   0.87338   0.00000  Uiso   1.00
H76    H     0.54987   0.03602   0.18035   0.00000  Uiso   1.00
H77    H     0.61768   0.61110   0.11883   0.00000  Uiso   1.00
H78    H     0.61001   0.72004   0.31100   0.00000  Uiso   1.00
H79    H     0.72114   0.66692   0.94486   0.00000  Uiso   1.00
H80    H     0.50831   0.46940   0.09044   0.00000  Uiso   1.00
H81    H     0.62297   0.80449   0.54001   0.00000  Uiso   1.00
H82    H     0.85728   0.69244   0.76796   0.00000  Uiso   1.00
H83    H     0.40849   0.27594   0.07494   0.00000  Uiso   1.00
O84    O     0.69161   0.75116   0.72133   0.00000  Uiso   1.00
O85    O     0.99902   0.60415   0.70844   0.00000  Uiso   1.00
O86    O     0.41022   0.05771   0.11119   0.00000  Uiso   1.00
N87    N     0.73211   0.60607   0.59425   0.00000  Uiso   1.00
N88    N     0.95119   0.50133   0.87244   0.00000  Uiso   1.00
N89    N     0.53162   0.11193   0.15941   0.00000  Uiso   1.00
N90    N     0.65604   0.73517   0.53753   0.00000  Uiso   1.00
N91    N     0.87511   0.63043   0.81572   0.00000  Uiso   1.00
N92    N     0.45554   0.24103   0.10269   0.00000  Uiso   1.00
C93    C     0.84892   0.14914   0.90323   0.00000  Uiso   1.00
C94    C     0.84222   0.06099   0.99777   0.00000  Uiso   1.00
C95    C     0.86626   0.07331   0.10505   0.00000  Uiso   1.00
C96    C     0.85507   0.98289   0.17943   0.00000  Uiso   1.00
C97    C     0.84988   0.86107   0.33106   0.00000  Uiso   1.00
C98    C     0.89574   0.09547   0.79691   0.00000  Uiso   1.00
C99    C     0.96475   0.13680   0.73532   0.00000  Uiso   1.00
C100   C     0.99861   0.07541   0.64061   0.00000  Uiso   1.00
C101   C     0.07647   0.00718   0.48036   0.00000  Uiso   1.00
C102   C     0.76591   0.16589   0.87476   0.00000  Uiso   1.00
C103   C     0.72577   0.26643   0.87859   0.00000  Uiso   1.00
C104   C     0.65032   0.26432   0.84940   0.00000  Uiso   1.00
C105   C     0.52661   0.30542   0.81002   0.00000  Uiso   1.00
C106   C     0.78632   0.96664   0.84453   0.00000  Uiso   1.00
C107   C     0.80822   0.96186   0.96588   0.00000  Uiso   1.00
C108   C     0.79700   0.87140   0.04012   0.00000  Uiso   1.00
C109   C     0.82101   0.88358   0.14749   0.00000  Uiso   1.00
C110   C     0.86174   0.99635   0.76503   0.00000  Uiso   1.00
C111   C     0.89549   0.93489   0.67038   0.00000  Uiso   1.00
C112   C     0.96455   0.97611   0.60866   0.00000  Uiso   1.00
C113   C     0.73190   0.06676   0.84289   0.00000  Uiso   1.00
C114   C     0.65651   0.06450   0.81366   0.00000  Uiso   1.00
C115   C     0.61626   0.16502   0.81746   0.00000  Uiso   1.00
H116   H     0.87540   0.22631   0.92804   0.00000  Uiso   1.00
H117   H     0.89258   0.15004   0.12969   0.00000  Uiso   1.00
H118   H     0.99105   0.21352   0.76001   0.00000  Uiso   1.00
H119   H     0.75210   0.34312   0.90327   0.00000  Uiso   1.00
H120   H     0.89665   0.02174   0.33918   0.00000  Uiso   1.00
H121   H     0.10428   0.15562   0.55966   0.00000  Uiso   1.00
H122   H     0.60041   0.42891   0.86175   0.00000  Uiso   1.00
H123   H     0.75985   0.88946   0.81971   0.00000  Uiso   1.00
H124   H     0.77068   0.79470   0.01542   0.00000  Uiso   1.00
H125   H     0.86916   0.85818   0.64573   0.00000  Uiso   1.00
H126   H     0.63022   0.98778   0.78900   0.00000  Uiso   1.00
H127   H     0.79772   0.73333   0.24643   0.00000  Uiso   1.00
H128   H     0.00535   0.86721   0.46691   0.00000  Uiso   1.00
H129   H     0.50148   0.14050   0.76900   0.00000  Uiso   1.00
O130   O     0.85643   0.82126   0.42349   0.00000  Uiso   1.00
O131   O     0.12881   0.99692   0.40078   0.00000  Uiso   1.00
O132   O     0.46775   0.35546   0.79713   0.00000  Uiso   1.00
N133   N     0.87187   0.96687   0.29050   0.00000  Uiso   1.00
N134   N     0.06599   0.09204   0.56171   0.00000  Uiso   1.00
N135   N     0.59493   0.34754   0.84411   0.00000  Uiso   1.00
N136   N     0.81863   0.81168   0.24060   0.00000  Uiso   1.00
N137   N     0.01276   0.93685   0.51180   0.00000  Uiso   1.00
N138   N     0.54170   0.19235   0.79420   0.00000  Uiso   1.00
C139   C     0.25503   0.89508   0.78625   0.00000  Uiso   1.00
C140   C     0.27717   0.98477   0.69524   0.00000  Uiso   1.00
C141   C     0.25341   0.98827   0.58713   0.00000  Uiso   1.00
C142   C     0.27998   0.07727   0.51644   0.00000  Uiso   1.00
C143   C     0.30695   0.20402   0.36964   0.00000  Uiso   1.00
C144   C     0.21678   0.95591   0.89417   0.00000  Uiso   1.00
C145   C     0.14225   0.93515   0.95332   0.00000  Uiso   1.00
C146   C     0.11800   0.99985   0.05010   0.00000  Uiso   1.00
C147   C     0.05124   0.08175   0.21218   0.00000  Uiso   1.00
C148   C     0.33242   0.84860   0.81506   0.00000  Uiso   1.00
C149   C     0.35511   0.73760   0.80773   0.00000  Uiso   1.00
C150   C     0.42822   0.71194   0.83793   0.00000  Uiso   1.00
C151   C     0.54100   0.62722   0.87718   0.00000  Uiso   1.00
C152   C     0.34449   0.04689   0.85296   0.00000  Uiso   1.00
C153   C     0.32576   0.06723   0.73148   0.00000  Uiso   1.00
C154   C     0.35239   0.15624   0.66093   0.00000  Uiso   1.00
C155   C     0.32867   0.15988   0.55274   0.00000  Uiso   1.00
C156   C     0.26538   0.03837   0.93040   0.00000  Uiso   1.00
C157   C     0.24123   0.10311   0.02712   0.00000  Uiso   1.00
C158   C     0.16668   0.08246   0.08640   0.00000  Uiso   1.00
C159   C     0.38102   0.93106   0.85129   0.00000  Uiso   1.00
C160   C     0.45410   0.90557   0.88152   0.00000  Uiso   1.00
C161   C     0.47690   0.79455   0.87423   0.00000  Uiso   1.00
H162   H     0.21719   0.83088   0.75805   0.00000  Uiso   1.00
H163   H     0.21579   0.92445   0.55913   0.00000  Uiso   1.00
H164   H     0.10466   0.87132   0.92526   0.00000  Uiso   1.00
H165   H     0.31749   0.67381   0.77968   0.00000  Uiso   1.00
H166   H     0.23565   0.06457   0.35458   0.00000  Uiso   1.00
H167   H     0.00133   0.95253   0.12662   0.00000  Uiso   1.00
H168   H     0.45013   0.53602   0.81965   0.00000  Uiso   1.00
H169   H     0.38232   0.11110   0.88117   0.00000  Uiso   1.00
H170   H     0.38999   0.22004   0.68900   0.00000  Uiso   1.00
H171   H     0.27886   0.16692   0.05514   0.00000  Uiso   1.00
H172   H     0.49169   0.96940   0.90956   0.00000  Uiso   1.00
H173   H     0.37703   0.30449   0.45999   0.00000  Uiso   1.00
H174   H     0.14272   0.19244   0.23204   0.00000  Uiso   1.00
H175   H     0.59151   0.77594   0.92506   0.00000  Uiso   1.00
O176   O     0.30839   0.25116   0.27867   0.00000  Uiso   1.00
O177   O     0.00098   0.10415   0.29156   0.00000  Uiso   1.00
O178   O     0.58978   0.55771   0.88881   0.00000  Uiso   1.00
N179   N     0.26789   0.10607   0.40575   0.00000  Uiso   1.00
N180   N     0.04881   0.00133   0.12756   0.00000  Uiso   1.00
N181   N     0.46838   0.61193   0.84059   0.00000  Uiso   1.00
N182   N     0.34396   0.23517   0.46247   0.00000  Uiso   1.00
N183   N     0.12489   0.13043   0.18428   0.00000  Uiso   1.00
N184   N     0.54446   0.74103   0.89731   0.00000  Uiso   1.00
