data_job_00501
_audit_creation_date              2018-12-19
_audit_creation_method            'Materials Studio'
_symmetry_space_group_name_H-M    'P1'
_symmetry_Int_Tables_number       1
_symmetry_cell_setting            triclinic
loop_
_symmetry_equiv_pos_as_xyz
  x,y,z
_cell_length_a                    37.4877
_cell_length_b                    15.4461
_cell_length_c                    10.3984
_cell_angle_alpha                 90.0000
_cell_angle_beta                  105.3644
_cell_angle_gamma                 90.0000
loop_
_atom_site_label
_atom_site_type_symbol
_atom_site_fract_x
_atom_site_fract_y
_atom_site_fract_z
_atom_site_U_iso_or_equiv
_atom_site_adp_type
_atom_site_occupancy
C1     C     0.33553   0.82957   0.44143   0.00000  Uiso   1.00
C2     C     0.33244   0.77877   0.56377   0.00000  Uiso   1.00
C3     C     0.31632   0.69777   0.56234   0.00000  Uiso   1.00
C4     C     0.31625   0.66218   0.68488   0.00000  Uiso   1.00
C5     C     0.30908   0.57664   0.85665   0.00000  Uiso   1.00
C6     C     0.31711   0.91676   0.44896   0.00000  Uiso   1.00
C7     C     0.28811   0.95179   0.35097   0.00000  Uiso   1.00
C8     C     0.27513   0.03238   0.37686   0.00000  Uiso   1.00
C9     C     0.24418   0.16111   0.37032   0.00000  Uiso   1.00
C10    C     0.37659   0.84858   0.46246   0.00000  Uiso   1.00
C11    C     0.39760   0.82630   0.37582   0.00000  Uiso   1.00
C12    C     0.43471   0.84950   0.41307   0.00000  Uiso   1.00
C13    C     0.49611   0.87236   0.42750   0.00000  Uiso   1.00
C14    C     0.36407   0.91041   0.66161   0.00000  Uiso   1.00
C15    C     0.34795   0.82268   0.68336   0.00000  Uiso   1.00
C16    C     0.34790   0.78721   0.80594   0.00000  Uiso   1.00
C17    C     0.33179   0.70617   0.80469   0.00000  Uiso   1.00
C18    C     0.33261   0.96067   0.56854   0.00000  Uiso   1.00
C19    C     0.31968   0.04123   0.59458   0.00000  Uiso   1.00
C20    C     0.29066   0.07637   0.49667   0.00000  Uiso   1.00
C21    C     0.39210   0.89249   0.58206   0.00000  Uiso   1.00
C22    C     0.42918   0.91573   0.61943   0.00000  Uiso   1.00
C23    C     0.45024   0.89349   0.53287   0.00000  Uiso   1.00
H24    H     0.32346   0.79539   0.34833   0.00000  Uiso   1.00
H25    H     0.30433   0.66381   0.46977   0.00000  Uiso   1.00
H26    H     0.27612   0.91780   0.25843   0.00000  Uiso   1.00
H27    H     0.38559   0.79232   0.28329   0.00000  Uiso   1.00
H28    H     0.28994   0.53731   0.65715   0.00000  Uiso   1.00
H29    H     0.23046   0.07288   0.21151   0.00000  Uiso   1.00
H30    H     0.46132   0.80828   0.26391   0.00000  Uiso   1.00
H31    H     0.37614   0.94460   0.75472   0.00000  Uiso   1.00
H32    H     0.35990   0.82120   0.89847   0.00000  Uiso   1.00
H33    H     0.33169   0.07519   0.68713   0.00000  Uiso   1.00
H34    H     0.44117   0.94971   0.71199   0.00000  Uiso   1.00
H35    H     0.33504   0.66506   0.00510   0.00000  Uiso   1.00
H36    H     0.27557   0.20062   0.55946   0.00000  Uiso   1.00
H37    H     0.50642   0.93602   0.61187   0.00000  Uiso   1.00
O38    O     0.30084   0.51733   0.91835   0.00000  Uiso   1.00
O39    O     0.22282   0.21998   0.33368   0.00000  Uiso   1.00
O40    O     0.52569   0.87283   0.40244   0.00000  Uiso   1.00
N41    N     0.30279   0.58430   0.71931   0.00000  Uiso   1.00
N42    N     0.24718   0.08502   0.30268   0.00000  Uiso   1.00
N43    N     0.46301   0.83766   0.35165   0.00000  Uiso   1.00
N44    N     0.32706   0.65304   0.90654   0.00000  Uiso   1.00
N45    N     0.27145   0.15376   0.48991   0.00000  Uiso   1.00
N46    N     0.48728   0.90640   0.53888   0.00000  Uiso   1.00
C47    C     0.83553   0.32957   0.44143   0.00000  Uiso   1.00
C48    C     0.83244   0.27877   0.56377   0.00000  Uiso   1.00
C49    C     0.81632   0.19777   0.56234   0.00000  Uiso   1.00
C50    C     0.81625   0.16218   0.68488   0.00000  Uiso   1.00
C51    C     0.80908   0.07664   0.85665   0.00000  Uiso   1.00
C52    C     0.81711   0.41676   0.44896   0.00000  Uiso   1.00
C53    C     0.78811   0.45179   0.35097   0.00000  Uiso   1.00
C54    C     0.77513   0.53238   0.37686   0.00000  Uiso   1.00
C55    C     0.74418   0.66111   0.37032   0.00000  Uiso   1.00
C56    C     0.87659   0.34858   0.46246   0.00000  Uiso   1.00
C57    C     0.89760   0.32630   0.37582   0.00000  Uiso   1.00
C58    C     0.93471   0.34950   0.41307   0.00000  Uiso   1.00
C59    C     0.99611   0.37236   0.42750   0.00000  Uiso   1.00
C60    C     0.86407   0.41041   0.66161   0.00000  Uiso   1.00
C61    C     0.84795   0.32268   0.68336   0.00000  Uiso   1.00
C62    C     0.84790   0.28721   0.80594   0.00000  Uiso   1.00
C63    C     0.83179   0.20617   0.80469   0.00000  Uiso   1.00
C64    C     0.83261   0.46067   0.56854   0.00000  Uiso   1.00
C65    C     0.81968   0.54123   0.59458   0.00000  Uiso   1.00
C66    C     0.79066   0.57637   0.49667   0.00000  Uiso   1.00
C67    C     0.89210   0.39249   0.58206   0.00000  Uiso   1.00
C68    C     0.92918   0.41573   0.61943   0.00000  Uiso   1.00
C69    C     0.95024   0.39349   0.53287   0.00000  Uiso   1.00
H70    H     0.82346   0.29539   0.34833   0.00000  Uiso   1.00
H71    H     0.80433   0.16381   0.46977   0.00000  Uiso   1.00
H72    H     0.77612   0.41780   0.25843   0.00000  Uiso   1.00
H73    H     0.88559   0.29232   0.28329   0.00000  Uiso   1.00
H74    H     0.78994   0.03731   0.65715   0.00000  Uiso   1.00
H75    H     0.73046   0.57288   0.21151   0.00000  Uiso   1.00
H76    H     0.96132   0.30828   0.26391   0.00000  Uiso   1.00
H77    H     0.87614   0.44460   0.75472   0.00000  Uiso   1.00
H78    H     0.85990   0.32120   0.89847   0.00000  Uiso   1.00
H79    H     0.83169   0.57519   0.68713   0.00000  Uiso   1.00
H80    H     0.94117   0.44971   0.71199   0.00000  Uiso   1.00
H81    H     0.83504   0.16506   0.00510   0.00000  Uiso   1.00
H82    H     0.77557   0.70062   0.55946   0.00000  Uiso   1.00
H83    H     0.00642   0.43602   0.61187   0.00000  Uiso   1.00
O84    O     0.80084   0.01733   0.91835   0.00000  Uiso   1.00
O85    O     0.72282   0.71998   0.33368   0.00000  Uiso   1.00
O86    O     0.02569   0.37283   0.40244   0.00000  Uiso   1.00
N87    N     0.80279   0.08430   0.71931   0.00000  Uiso   1.00
N88    N     0.74718   0.58502   0.30268   0.00000  Uiso   1.00
N89    N     0.96301   0.33766   0.35165   0.00000  Uiso   1.00
N90    N     0.82706   0.15304   0.90654   0.00000  Uiso   1.00
N91    N     0.77145   0.65376   0.48991   0.00000  Uiso   1.00
N92    N     0.98728   0.40640   0.53888   0.00000  Uiso   1.00
C93    C     0.66447   0.82957   0.05857   0.00000  Uiso   1.00
C94    C     0.66756   0.77877   0.93623   0.00000  Uiso   1.00
C95    C     0.68368   0.69777   0.93766   0.00000  Uiso   1.00
C96    C     0.68375   0.66218   0.81512   0.00000  Uiso   1.00
C97    C     0.69092   0.57664   0.64335   0.00000  Uiso   1.00
C98    C     0.68289   0.91676   0.05104   0.00000  Uiso   1.00
C99    C     0.71189   0.95179   0.14903   0.00000  Uiso   1.00
C100   C     0.72487   0.03238   0.12314   0.00000  Uiso   1.00
C101   C     0.75582   0.16111   0.12968   0.00000  Uiso   1.00
C102   C     0.62341   0.84858   0.03754   0.00000  Uiso   1.00
C103   C     0.60240   0.82630   0.12418   0.00000  Uiso   1.00
C104   C     0.56529   0.84950   0.08693   0.00000  Uiso   1.00
C105   C     0.50389   0.87236   0.07250   0.00000  Uiso   1.00
C106   C     0.63593   0.91041   0.83839   0.00000  Uiso   1.00
C107   C     0.65205   0.82268   0.81664   0.00000  Uiso   1.00
C108   C     0.65210   0.78721   0.69406   0.00000  Uiso   1.00
C109   C     0.66821   0.70617   0.69531   0.00000  Uiso   1.00
C110   C     0.66739   0.96067   0.93146   0.00000  Uiso   1.00
C111   C     0.68032   0.04123   0.90542   0.00000  Uiso   1.00
C112   C     0.70934   0.07637   0.00333   0.00000  Uiso   1.00
C113   C     0.60790   0.89249   0.91794   0.00000  Uiso   1.00
C114   C     0.57082   0.91573   0.88057   0.00000  Uiso   1.00
C115   C     0.54976   0.89349   0.96713   0.00000  Uiso   1.00
H116   H     0.67654   0.79539   0.15167   0.00000  Uiso   1.00
H117   H     0.69567   0.66381   0.03023   0.00000  Uiso   1.00
H118   H     0.72388   0.91780   0.24157   0.00000  Uiso   1.00
H119   H     0.61441   0.79232   0.21671   0.00000  Uiso   1.00
H120   H     0.71006   0.53731   0.84285   0.00000  Uiso   1.00
H121   H     0.76954   0.07288   0.28849   0.00000  Uiso   1.00
H122   H     0.53868   0.80828   0.23609   0.00000  Uiso   1.00
H123   H     0.62386   0.94460   0.74528   0.00000  Uiso   1.00
H124   H     0.64010   0.82120   0.60153   0.00000  Uiso   1.00
H125   H     0.66831   0.07519   0.81287   0.00000  Uiso   1.00
H126   H     0.55883   0.94971   0.78801   0.00000  Uiso   1.00
H127   H     0.66496   0.66506   0.49490   0.00000  Uiso   1.00
H128   H     0.72443   0.20062   0.94054   0.00000  Uiso   1.00
H129   H     0.49358   0.93602   0.88813   0.00000  Uiso   1.00
O130   O     0.69916   0.51733   0.58165   0.00000  Uiso   1.00
O131   O     0.77718   0.21998   0.16632   0.00000  Uiso   1.00
O132   O     0.47431   0.87283   0.09756   0.00000  Uiso   1.00
N133   N     0.69721   0.58430   0.78069   0.00000  Uiso   1.00
N134   N     0.75282   0.08502   0.19732   0.00000  Uiso   1.00
N135   N     0.53699   0.83766   0.14835   0.00000  Uiso   1.00
N136   N     0.67294   0.65304   0.59346   0.00000  Uiso   1.00
N137   N     0.72855   0.15376   0.01009   0.00000  Uiso   1.00
N138   N     0.51272   0.90640   0.96112   0.00000  Uiso   1.00
C139   C     0.16447   0.32957   0.05857   0.00000  Uiso   1.00
C140   C     0.16756   0.27877   0.93623   0.00000  Uiso   1.00
C141   C     0.18368   0.19777   0.93766   0.00000  Uiso   1.00
C142   C     0.18375   0.16218   0.81512   0.00000  Uiso   1.00
C143   C     0.19092   0.07664   0.64335   0.00000  Uiso   1.00
C144   C     0.18289   0.41676   0.05104   0.00000  Uiso   1.00
C145   C     0.21189   0.45179   0.14903   0.00000  Uiso   1.00
C146   C     0.22487   0.53238   0.12314   0.00000  Uiso   1.00
C147   C     0.25582   0.66111   0.12968   0.00000  Uiso   1.00
C148   C     0.12341   0.34858   0.03754   0.00000  Uiso   1.00
C149   C     0.10240   0.32630   0.12418   0.00000  Uiso   1.00
C150   C     0.06529   0.34950   0.08693   0.00000  Uiso   1.00
C151   C     0.00389   0.37236   0.07250   0.00000  Uiso   1.00
C152   C     0.13593   0.41041   0.83839   0.00000  Uiso   1.00
C153   C     0.15205   0.32268   0.81664   0.00000  Uiso   1.00
C154   C     0.15210   0.28721   0.69406   0.00000  Uiso   1.00
C155   C     0.16821   0.20617   0.69531   0.00000  Uiso   1.00
C156   C     0.16739   0.46067   0.93146   0.00000  Uiso   1.00
C157   C     0.18032   0.54123   0.90542   0.00000  Uiso   1.00
C158   C     0.20934   0.57637   0.00333   0.00000  Uiso   1.00
C159   C     0.10790   0.39249   0.91794   0.00000  Uiso   1.00
C160   C     0.07082   0.41573   0.88057   0.00000  Uiso   1.00
C161   C     0.04976   0.39349   0.96713   0.00000  Uiso   1.00
H162   H     0.17654   0.29539   0.15167   0.00000  Uiso   1.00
H163   H     0.19567   0.16381   0.03023   0.00000  Uiso   1.00
H164   H     0.22388   0.41780   0.24157   0.00000  Uiso   1.00
H165   H     0.11441   0.29232   0.21671   0.00000  Uiso   1.00
H166   H     0.21006   0.03731   0.84285   0.00000  Uiso   1.00
H167   H     0.26954   0.57288   0.28849   0.00000  Uiso   1.00
H168   H     0.03868   0.30828   0.23609   0.00000  Uiso   1.00
H169   H     0.12386   0.44460   0.74528   0.00000  Uiso   1.00
H170   H     0.14010   0.32120   0.60153   0.00000  Uiso   1.00
H171   H     0.16831   0.57519   0.81287   0.00000  Uiso   1.00
H172   H     0.05883   0.44971   0.78801   0.00000  Uiso   1.00
H173   H     0.16496   0.16506   0.49490   0.00000  Uiso   1.00
H174   H     0.22443   0.70062   0.94054   0.00000  Uiso   1.00
H175   H     0.99358   0.43602   0.88813   0.00000  Uiso   1.00
O176   O     0.19916   0.01733   0.58165   0.00000  Uiso   1.00
O177   O     0.27718   0.71998   0.16632   0.00000  Uiso   1.00
O178   O     0.97431   0.37283   0.09756   0.00000  Uiso   1.00
N179   N     0.19721   0.08430   0.78069   0.00000  Uiso   1.00
N180   N     0.25282   0.58502   0.19732   0.00000  Uiso   1.00
N181   N     0.03699   0.33766   0.14835   0.00000  Uiso   1.00
N182   N     0.17294   0.15304   0.59346   0.00000  Uiso   1.00
N183   N     0.22855   0.65376   0.01009   0.00000  Uiso   1.00
N184   N     0.01272   0.40640   0.96112   0.00000  Uiso   1.00
C185   C     0.66447   0.17043   0.55857   0.00000  Uiso   1.00
C186   C     0.66756   0.22123   0.43623   0.00000  Uiso   1.00
C187   C     0.68368   0.30223   0.43766   0.00000  Uiso   1.00
C188   C     0.68375   0.33782   0.31512   0.00000  Uiso   1.00
C189   C     0.69092   0.42336   0.14335   0.00000  Uiso   1.00
C190   C     0.68289   0.08324   0.55104   0.00000  Uiso   1.00
C191   C     0.71189   0.04821   0.64903   0.00000  Uiso   1.00
C192   C     0.72487   0.96762   0.62314   0.00000  Uiso   1.00
C193   C     0.75582   0.83889   0.62968   0.00000  Uiso   1.00
C194   C     0.62341   0.15142   0.53754   0.00000  Uiso   1.00
C195   C     0.60240   0.17370   0.62418   0.00000  Uiso   1.00
C196   C     0.56529   0.15050   0.58693   0.00000  Uiso   1.00
C197   C     0.50389   0.12764   0.57250   0.00000  Uiso   1.00
C198   C     0.63593   0.08959   0.33839   0.00000  Uiso   1.00
C199   C     0.65205   0.17732   0.31664   0.00000  Uiso   1.00
C200   C     0.65210   0.21279   0.19406   0.00000  Uiso   1.00
C201   C     0.66821   0.29383   0.19531   0.00000  Uiso   1.00
C202   C     0.66739   0.03933   0.43146   0.00000  Uiso   1.00
C203   C     0.68032   0.95877   0.40542   0.00000  Uiso   1.00
C204   C     0.70934   0.92363   0.50333   0.00000  Uiso   1.00
C205   C     0.60790   0.10751   0.41794   0.00000  Uiso   1.00
C206   C     0.57082   0.08427   0.38057   0.00000  Uiso   1.00
C207   C     0.54976   0.10651   0.46713   0.00000  Uiso   1.00
H208   H     0.67654   0.20461   0.65167   0.00000  Uiso   1.00
H209   H     0.69567   0.33619   0.53023   0.00000  Uiso   1.00
H210   H     0.72388   0.08220   0.74157   0.00000  Uiso   1.00
H211   H     0.61441   0.20768   0.71671   0.00000  Uiso   1.00
H212   H     0.71006   0.46269   0.34285   0.00000  Uiso   1.00
H213   H     0.76954   0.92712   0.78849   0.00000  Uiso   1.00
H214   H     0.53868   0.19172   0.73609   0.00000  Uiso   1.00
H215   H     0.62386   0.05540   0.24528   0.00000  Uiso   1.00
H216   H     0.64010   0.17880   0.10153   0.00000  Uiso   1.00
H217   H     0.66831   0.92481   0.31287   0.00000  Uiso   1.00
H218   H     0.55883   0.05029   0.28801   0.00000  Uiso   1.00
H219   H     0.66496   0.33494   0.99490   0.00000  Uiso   1.00
H220   H     0.72443   0.79938   0.44054   0.00000  Uiso   1.00
H221   H     0.49358   0.06398   0.38813   0.00000  Uiso   1.00
O222   O     0.69916   0.48267   0.08165   0.00000  Uiso   1.00
O223   O     0.77718   0.78002   0.66632   0.00000  Uiso   1.00
O224   O     0.47431   0.12717   0.59756   0.00000  Uiso   1.00
N225   N     0.69721   0.41570   0.28069   0.00000  Uiso   1.00
N226   N     0.75282   0.91498   0.69732   0.00000  Uiso   1.00
N227   N     0.53699   0.16234   0.64835   0.00000  Uiso   1.00
N228   N     0.67294   0.34696   0.09346   0.00000  Uiso   1.00
N229   N     0.72855   0.84624   0.51009   0.00000  Uiso   1.00
N230   N     0.51272   0.09360   0.46112   0.00000  Uiso   1.00
C231   C     0.16447   0.67043   0.55857   0.00000  Uiso   1.00
C232   C     0.16756   0.72123   0.43623   0.00000  Uiso   1.00
C233   C     0.18368   0.80223   0.43766   0.00000  Uiso   1.00
C234   C     0.18375   0.83782   0.31512   0.00000  Uiso   1.00
C235   C     0.19092   0.92336   0.14335   0.00000  Uiso   1.00
C236   C     0.18289   0.58324   0.55104   0.00000  Uiso   1.00
C237   C     0.21189   0.54821   0.64903   0.00000  Uiso   1.00
C238   C     0.22487   0.46762   0.62314   0.00000  Uiso   1.00
C239   C     0.25582   0.33889   0.62968   0.00000  Uiso   1.00
C240   C     0.12341   0.65142   0.53754   0.00000  Uiso   1.00
C241   C     0.10240   0.67370   0.62418   0.00000  Uiso   1.00
C242   C     0.06529   0.65050   0.58693   0.00000  Uiso   1.00
C243   C     0.00389   0.62764   0.57250   0.00000  Uiso   1.00
C244   C     0.13593   0.58959   0.33839   0.00000  Uiso   1.00
C245   C     0.15205   0.67732   0.31664   0.00000  Uiso   1.00
C246   C     0.15210   0.71279   0.19406   0.00000  Uiso   1.00
C247   C     0.16821   0.79383   0.19531   0.00000  Uiso   1.00
C248   C     0.16739   0.53933   0.43146   0.00000  Uiso   1.00
C249   C     0.18032   0.45877   0.40542   0.00000  Uiso   1.00
C250   C     0.20934   0.42363   0.50333   0.00000  Uiso   1.00
C251   C     0.10790   0.60751   0.41794   0.00000  Uiso   1.00
C252   C     0.07082   0.58427   0.38057   0.00000  Uiso   1.00
C253   C     0.04976   0.60651   0.46713   0.00000  Uiso   1.00
H254   H     0.17654   0.70461   0.65167   0.00000  Uiso   1.00
H255   H     0.19567   0.83619   0.53023   0.00000  Uiso   1.00
H256   H     0.22388   0.58220   0.74157   0.00000  Uiso   1.00
H257   H     0.11441   0.70768   0.71671   0.00000  Uiso   1.00
H258   H     0.21006   0.96269   0.34285   0.00000  Uiso   1.00
H259   H     0.26954   0.42712   0.78849   0.00000  Uiso   1.00
H260   H     0.03868   0.69172   0.73609   0.00000  Uiso   1.00
H261   H     0.12386   0.55540   0.24528   0.00000  Uiso   1.00
H262   H     0.14010   0.67880   0.10153   0.00000  Uiso   1.00
H263   H     0.16831   0.42481   0.31287   0.00000  Uiso   1.00
H264   H     0.05883   0.55029   0.28801   0.00000  Uiso   1.00
H265   H     0.16496   0.83494   0.99490   0.00000  Uiso   1.00
H266   H     0.22443   0.29938   0.44054   0.00000  Uiso   1.00
H267   H     0.99358   0.56398   0.38813   0.00000  Uiso   1.00
O268   O     0.19916   0.98267   0.08165   0.00000  Uiso   1.00
O269   O     0.27718   0.28002   0.66632   0.00000  Uiso   1.00
O270   O     0.97431   0.62717   0.59756   0.00000  Uiso   1.00
N271   N     0.19721   0.91570   0.28069   0.00000  Uiso   1.00
N272   N     0.25282   0.41498   0.69732   0.00000  Uiso   1.00
N273   N     0.03699   0.66234   0.64835   0.00000  Uiso   1.00
N274   N     0.17294   0.84696   0.09346   0.00000  Uiso   1.00
N275   N     0.22855   0.34624   0.51009   0.00000  Uiso   1.00
N276   N     0.01272   0.59360   0.46112   0.00000  Uiso   1.00
C277   C     0.33553   0.17043   0.94143   0.00000  Uiso   1.00
C278   C     0.33244   0.22123   0.06377   0.00000  Uiso   1.00
C279   C     0.31632   0.30223   0.06234   0.00000  Uiso   1.00
C280   C     0.31625   0.33782   0.18488   0.00000  Uiso   1.00
C281   C     0.30908   0.42336   0.35665   0.00000  Uiso   1.00
C282   C     0.31711   0.08324   0.94896   0.00000  Uiso   1.00
C283   C     0.28811   0.04821   0.85097   0.00000  Uiso   1.00
C284   C     0.27513   0.96762   0.87686   0.00000  Uiso   1.00
C285   C     0.24418   0.83889   0.87032   0.00000  Uiso   1.00
C286   C     0.37659   0.15142   0.96246   0.00000  Uiso   1.00
C287   C     0.39760   0.17370   0.87582   0.00000  Uiso   1.00
C288   C     0.43471   0.15050   0.91307   0.00000  Uiso   1.00
C289   C     0.49611   0.12764   0.92750   0.00000  Uiso   1.00
C290   C     0.36407   0.08959   0.16161   0.00000  Uiso   1.00
C291   C     0.34795   0.17732   0.18336   0.00000  Uiso   1.00
C292   C     0.34790   0.21279   0.30594   0.00000  Uiso   1.00
C293   C     0.33179   0.29383   0.30469   0.00000  Uiso   1.00
C294   C     0.33261   0.03933   0.06854   0.00000  Uiso   1.00
C295   C     0.31968   0.95877   0.09458   0.00000  Uiso   1.00
C296   C     0.29066   0.92363   0.99667   0.00000  Uiso   1.00
C297   C     0.39210   0.10751   0.08206   0.00000  Uiso   1.00
C298   C     0.42918   0.08427   0.11943   0.00000  Uiso   1.00
C299   C     0.45024   0.10651   0.03287   0.00000  Uiso   1.00
H300   H     0.32346   0.20461   0.84833   0.00000  Uiso   1.00
H301   H     0.30433   0.33619   0.96977   0.00000  Uiso   1.00
H302   H     0.27612   0.08220   0.75843   0.00000  Uiso   1.00
H303   H     0.38559   0.20768   0.78329   0.00000  Uiso   1.00
H304   H     0.28994   0.46269   0.15715   0.00000  Uiso   1.00
H305   H     0.23046   0.92712   0.71151   0.00000  Uiso   1.00
H306   H     0.46132   0.19172   0.76391   0.00000  Uiso   1.00
H307   H     0.37614   0.05540   0.25472   0.00000  Uiso   1.00
H308   H     0.35990   0.17880   0.39847   0.00000  Uiso   1.00
H309   H     0.33169   0.92481   0.18713   0.00000  Uiso   1.00
H310   H     0.44117   0.05029   0.21199   0.00000  Uiso   1.00
H311   H     0.33504   0.33494   0.50510   0.00000  Uiso   1.00
H312   H     0.27557   0.79938   0.05946   0.00000  Uiso   1.00
H313   H     0.50642   0.06398   0.11187   0.00000  Uiso   1.00
O314   O     0.30084   0.48267   0.41835   0.00000  Uiso   1.00
O315   O     0.22282   0.78002   0.83368   0.00000  Uiso   1.00
O316   O     0.52569   0.12717   0.90244   0.00000  Uiso   1.00
N317   N     0.30279   0.41570   0.21931   0.00000  Uiso   1.00
N318   N     0.24718   0.91498   0.80268   0.00000  Uiso   1.00
N319   N     0.46301   0.16234   0.85165   0.00000  Uiso   1.00
N320   N     0.32706   0.34696   0.40654   0.00000  Uiso   1.00
N321   N     0.27145   0.84624   0.98991   0.00000  Uiso   1.00
N322   N     0.48728   0.09360   0.03888   0.00000  Uiso   1.00
C323   C     0.83553   0.67043   0.94143   0.00000  Uiso   1.00
C324   C     0.83244   0.72123   0.06377   0.00000  Uiso   1.00
C325   C     0.81632   0.80223   0.06234   0.00000  Uiso   1.00
C326   C     0.81625   0.83782   0.18488   0.00000  Uiso   1.00
C327   C     0.80908   0.92336   0.35665   0.00000  Uiso   1.00
C328   C     0.81711   0.58324   0.94896   0.00000  Uiso   1.00
C329   C     0.78811   0.54821   0.85097   0.00000  Uiso   1.00
C330   C     0.77513   0.46762   0.87686   0.00000  Uiso   1.00
C331   C     0.74418   0.33889   0.87032   0.00000  Uiso   1.00
C332   C     0.87659   0.65142   0.96246   0.00000  Uiso   1.00
C333   C     0.89760   0.67370   0.87582   0.00000  Uiso   1.00
C334   C     0.93471   0.65050   0.91307   0.00000  Uiso   1.00
C335   C     0.99611   0.62764   0.92750   0.00000  Uiso   1.00
C336   C     0.86407   0.58959   0.16161   0.00000  Uiso   1.00
C337   C     0.84795   0.67732   0.18336   0.00000  Uiso   1.00
C338   C     0.84790   0.71279   0.30594   0.00000  Uiso   1.00
C339   C     0.83179   0.79383   0.30469   0.00000  Uiso   1.00
C340   C     0.83261   0.53933   0.06854   0.00000  Uiso   1.00
C341   C     0.81968   0.45877   0.09458   0.00000  Uiso   1.00
C342   C     0.79066   0.42363   0.99667   0.00000  Uiso   1.00
C343   C     0.89210   0.60751   0.08206   0.00000  Uiso   1.00
C344   C     0.92918   0.58427   0.11943   0.00000  Uiso   1.00
C345   C     0.95024   0.60651   0.03287   0.00000  Uiso   1.00
H346   H     0.82346   0.70461   0.84833   0.00000  Uiso   1.00
H347   H     0.80433   0.83619   0.96977   0.00000  Uiso   1.00
H348   H     0.77612   0.58220   0.75843   0.00000  Uiso   1.00
H349   H     0.88559   0.70768   0.78329   0.00000  Uiso   1.00
H350   H     0.78994   0.96269   0.15715   0.00000  Uiso   1.00
H351   H     0.73046   0.42712   0.71151   0.00000  Uiso   1.00
H352   H     0.96132   0.69172   0.76391   0.00000  Uiso   1.00
H353   H     0.87614   0.55540   0.25472   0.00000  Uiso   1.00
H354   H     0.85990   0.67880   0.39847   0.00000  Uiso   1.00
H355   H     0.83169   0.42481   0.18713   0.00000  Uiso   1.00
H356   H     0.94117   0.55029   0.21199   0.00000  Uiso   1.00
H357   H     0.83504   0.83494   0.50510   0.00000  Uiso   1.00
H358   H     0.77557   0.29938   0.05946   0.00000  Uiso   1.00
H359   H     0.00642   0.56398   0.11187   0.00000  Uiso   1.00
O360   O     0.80084   0.98267   0.41835   0.00000  Uiso   1.00
O361   O     0.72282   0.28002   0.83368   0.00000  Uiso   1.00
O362   O     0.02569   0.62717   0.90244   0.00000  Uiso   1.00
N363   N     0.80279   0.91570   0.21931   0.00000  Uiso   1.00
N364   N     0.74718   0.41498   0.80268   0.00000  Uiso   1.00
N365   N     0.96301   0.66234   0.85165   0.00000  Uiso   1.00
N366   N     0.82706   0.84696   0.40654   0.00000  Uiso   1.00
N367   N     0.77145   0.34624   0.98991   0.00000  Uiso   1.00
N368   N     0.98728   0.59360   0.03888   0.00000  Uiso   1.00
