data_job_02475
_audit_creation_date              2018-12-19
_audit_creation_method            'Materials Studio'
_symmetry_space_group_name_H-M    'P1'
_symmetry_Int_Tables_number       1
_symmetry_cell_setting            triclinic
loop_
_symmetry_equiv_pos_as_xyz
  x,y,z
_cell_length_a                    9.4081
_cell_length_b                    26.8997
_cell_length_c                    24.1348
_cell_angle_alpha                 90.0000
_cell_angle_beta                  90.0000
_cell_angle_gamma                 90.0000
loop_
_atom_site_label
_atom_site_type_symbol
_atom_site_fract_x
_atom_site_fract_y
_atom_site_fract_z
_atom_site_U_iso_or_equiv
_atom_site_adp_type
_atom_site_occupancy
C1     C     0.25075   0.96548   0.25729   0.00000  Uiso   1.00
C2     C     0.35080   0.92215   0.26910   0.00000  Uiso   1.00
C3     C     0.49804   0.92474   0.27100   0.00000  Uiso   1.00
C4     C     0.57044   0.88095   0.28243   0.00000  Uiso   1.00
C5     C     0.73681   0.82048   0.29934   0.00000  Uiso   1.00
C6     C     0.16063   0.94966   0.20782   0.00000  Uiso   1.00
C7     C     0.14796   0.97538   0.15822   0.00000  Uiso   1.00
C8     C     0.06025   0.95474   0.11807   0.00000  Uiso   1.00
C9     C     0.93129   0.93699   0.03987   0.00000  Uiso   1.00
C10    C     0.14950   0.96818   0.30654   0.00000  Uiso   1.00
C11    C     0.12745   0.00947   0.33992   0.00000  Uiso   1.00
C12    C     0.03035   0.00443   0.38288   0.00000  Uiso   1.00
C13    C     0.88412   0.01543   0.45794   0.00000  Uiso   1.00
C14    C     0.11750   0.88311   0.27420   0.00000  Uiso   1.00
C15    C     0.27842   0.87741   0.27828   0.00000  Uiso   1.00
C16    C     0.35061   0.83361   0.28971   0.00000  Uiso   1.00
C17    C     0.49794   0.83613   0.29164   0.00000  Uiso   1.00
C18    C     0.08825   0.90492   0.21701   0.00000  Uiso   1.00
C19    C     0.00053   0.88424   0.17693   0.00000  Uiso   1.00
C20    C     0.98774   0.90992   0.12727   0.00000  Uiso   1.00
C21    C     0.07713   0.92344   0.31572   0.00000  Uiso   1.00
C22    C     0.98003   0.91833   0.35864   0.00000  Uiso   1.00
C23    C     0.95784   0.95961   0.39208   0.00000  Uiso   1.00
H24    H     0.30709   0.00031   0.25014   0.00000  Uiso   1.00
H25    H     0.55402   0.95937   0.26389   0.00000  Uiso   1.00
H26    H     0.20397   0.01000   0.15112   0.00000  Uiso   1.00
H27    H     0.18348   0.04408   0.33280   0.00000  Uiso   1.00
H28    H     0.79586   0.89425   0.28316   0.00000  Uiso   1.00
H29    H     0.05774   0.00101   0.04540   0.00000  Uiso   1.00
H30    H     0.01451   0.07288   0.42851   0.00000  Uiso   1.00
H31    H     0.06114   0.84828   0.28135   0.00000  Uiso   1.00
H32    H     0.29457   0.79899   0.29682   0.00000  Uiso   1.00
H33    H     0.94453   0.84962   0.18405   0.00000  Uiso   1.00
H34    H     0.92404   0.88371   0.36573   0.00000  Uiso   1.00
H35    H     0.58529   0.76408   0.30989   0.00000  Uiso   1.00
H36    H     0.84716   0.87084   0.07212   0.00000  Uiso   1.00
H37    H     0.80394   0.94271   0.45523   0.00000  Uiso   1.00
O38    O     0.84857   0.79948   0.30612   0.00000  Uiso   1.00
O39    O     0.88017   0.93956   0.99419   0.00000  Uiso   1.00
O40    O     0.82347   0.03385   0.49682   0.00000  Uiso   1.00
N41    N     0.71426   0.87038   0.28734   0.00000  Uiso   1.00
N42    N     0.02418   0.97019   0.06504   0.00000  Uiso   1.00
N43    N     0.98374   0.03739   0.42321   0.00000  Uiso   1.00
N44    N     0.60096   0.80033   0.30172   0.00000  Uiso   1.00
N45    N     0.91088   0.90015   0.07942   0.00000  Uiso   1.00
N46    N     0.87044   0.96735   0.43759   0.00000  Uiso   1.00
C47    C     0.24925   0.53452   0.25729   0.00000  Uiso   1.00
C48    C     0.14920   0.57785   0.26910   0.00000  Uiso   1.00
C49    C     0.00196   0.57526   0.27100   0.00000  Uiso   1.00
C50    C     0.92956   0.61905   0.28243   0.00000  Uiso   1.00
C51    C     0.76319   0.67952   0.29934   0.00000  Uiso   1.00
C52    C     0.33937   0.55034   0.20782   0.00000  Uiso   1.00
C53    C     0.35204   0.52462   0.15822   0.00000  Uiso   1.00
C54    C     0.43975   0.54526   0.11807   0.00000  Uiso   1.00
C55    C     0.56871   0.56301   0.03987   0.00000  Uiso   1.00
C56    C     0.35050   0.53182   0.30654   0.00000  Uiso   1.00
C57    C     0.37255   0.49053   0.33992   0.00000  Uiso   1.00
C58    C     0.46965   0.49557   0.38288   0.00000  Uiso   1.00
C59    C     0.61588   0.48457   0.45794   0.00000  Uiso   1.00
C60    C     0.38250   0.61689   0.27420   0.00000  Uiso   1.00
C61    C     0.22158   0.62259   0.27828   0.00000  Uiso   1.00
C62    C     0.14939   0.66639   0.28971   0.00000  Uiso   1.00
C63    C     0.00206   0.66387   0.29164   0.00000  Uiso   1.00
C64    C     0.41175   0.59508   0.21701   0.00000  Uiso   1.00
C65    C     0.49947   0.61576   0.17693   0.00000  Uiso   1.00
C66    C     0.51226   0.59008   0.12727   0.00000  Uiso   1.00
C67    C     0.42287   0.57656   0.31572   0.00000  Uiso   1.00
C68    C     0.51997   0.58167   0.35864   0.00000  Uiso   1.00
C69    C     0.54216   0.54039   0.39208   0.00000  Uiso   1.00
H70    H     0.19291   0.49969   0.25014   0.00000  Uiso   1.00
H71    H     0.94598   0.54063   0.26389   0.00000  Uiso   1.00
H72    H     0.29603   0.49000   0.15112   0.00000  Uiso   1.00
H73    H     0.31652   0.45592   0.33280   0.00000  Uiso   1.00
H74    H     0.70414   0.60575   0.28316   0.00000  Uiso   1.00
H75    H     0.44226   0.49899   0.04540   0.00000  Uiso   1.00
H76    H     0.48549   0.42712   0.42851   0.00000  Uiso   1.00
H77    H     0.43886   0.65172   0.28135   0.00000  Uiso   1.00
H78    H     0.20543   0.70101   0.29682   0.00000  Uiso   1.00
H79    H     0.55547   0.65038   0.18405   0.00000  Uiso   1.00
H80    H     0.57596   0.61629   0.36573   0.00000  Uiso   1.00
H81    H     0.91471   0.73592   0.30989   0.00000  Uiso   1.00
H82    H     0.65284   0.62916   0.07212   0.00000  Uiso   1.00
H83    H     0.69606   0.55729   0.45523   0.00000  Uiso   1.00
O84    O     0.65143   0.70052   0.30612   0.00000  Uiso   1.00
O85    O     0.61983   0.56044   0.99419   0.00000  Uiso   1.00
O86    O     0.67653   0.46615   0.49682   0.00000  Uiso   1.00
N87    N     0.78574   0.62962   0.28734   0.00000  Uiso   1.00
N88    N     0.47582   0.52981   0.06504   0.00000  Uiso   1.00
N89    N     0.51626   0.46261   0.42321   0.00000  Uiso   1.00
N90    N     0.89904   0.69967   0.30172   0.00000  Uiso   1.00
N91    N     0.58912   0.59985   0.07942   0.00000  Uiso   1.00
N92    N     0.62956   0.53265   0.43759   0.00000  Uiso   1.00
C93    C     0.74925   0.46548   0.24271   0.00000  Uiso   1.00
C94    C     0.64920   0.42215   0.23090   0.00000  Uiso   1.00
C95    C     0.50196   0.42474   0.22900   0.00000  Uiso   1.00
C96    C     0.42956   0.38095   0.21757   0.00000  Uiso   1.00
C97    C     0.26319   0.32048   0.20066   0.00000  Uiso   1.00
C98    C     0.83937   0.44966   0.29218   0.00000  Uiso   1.00
C99    C     0.85204   0.47538   0.34178   0.00000  Uiso   1.00
C100   C     0.93975   0.45474   0.38193   0.00000  Uiso   1.00
C101   C     0.06871   0.43699   0.46013   0.00000  Uiso   1.00
C102   C     0.85050   0.46818   0.19346   0.00000  Uiso   1.00
C103   C     0.87255   0.50947   0.16008   0.00000  Uiso   1.00
C104   C     0.96965   0.50443   0.11712   0.00000  Uiso   1.00
C105   C     0.11588   0.51543   0.04206   0.00000  Uiso   1.00
C106   C     0.88250   0.38311   0.22580   0.00000  Uiso   1.00
C107   C     0.72158   0.37741   0.22172   0.00000  Uiso   1.00
C108   C     0.64939   0.33361   0.21029   0.00000  Uiso   1.00
C109   C     0.50206   0.33613   0.20836   0.00000  Uiso   1.00
C110   C     0.91175   0.40492   0.28299   0.00000  Uiso   1.00
C111   C     0.99947   0.38424   0.32307   0.00000  Uiso   1.00
C112   C     0.01226   0.40992   0.37273   0.00000  Uiso   1.00
C113   C     0.92287   0.42344   0.18428   0.00000  Uiso   1.00
C114   C     0.01997   0.41833   0.14136   0.00000  Uiso   1.00
C115   C     0.04216   0.45961   0.10792   0.00000  Uiso   1.00
H116   H     0.69291   0.50031   0.24986   0.00000  Uiso   1.00
H117   H     0.44598   0.45937   0.23611   0.00000  Uiso   1.00
H118   H     0.79603   0.51000   0.34888   0.00000  Uiso   1.00
H119   H     0.81652   0.54408   0.16720   0.00000  Uiso   1.00
H120   H     0.20414   0.39425   0.21684   0.00000  Uiso   1.00
H121   H     0.94226   0.50101   0.45460   0.00000  Uiso   1.00
H122   H     0.98549   0.57288   0.07149   0.00000  Uiso   1.00
H123   H     0.93886   0.34828   0.21865   0.00000  Uiso   1.00
H124   H     0.70543   0.29899   0.20318   0.00000  Uiso   1.00
H125   H     0.05547   0.34962   0.31595   0.00000  Uiso   1.00
H126   H     0.07596   0.38371   0.13427   0.00000  Uiso   1.00
H127   H     0.41471   0.26408   0.19011   0.00000  Uiso   1.00
H128   H     0.15284   0.37084   0.42788   0.00000  Uiso   1.00
H129   H     0.19606   0.44271   0.04477   0.00000  Uiso   1.00
O130   O     0.15143   0.29948   0.19388   0.00000  Uiso   1.00
O131   O     0.11983   0.43956   0.50581   0.00000  Uiso   1.00
O132   O     0.17653   0.53385   0.00318   0.00000  Uiso   1.00
N133   N     0.28574   0.37038   0.21266   0.00000  Uiso   1.00
N134   N     0.97582   0.47019   0.43496   0.00000  Uiso   1.00
N135   N     0.01626   0.53739   0.07679   0.00000  Uiso   1.00
N136   N     0.39904   0.30033   0.19828   0.00000  Uiso   1.00
N137   N     0.08912   0.40015   0.42058   0.00000  Uiso   1.00
N138   N     0.12956   0.46735   0.06241   0.00000  Uiso   1.00
C139   C     0.75075   0.03452   0.24271   0.00000  Uiso   1.00
C140   C     0.85080   0.07785   0.23090   0.00000  Uiso   1.00
C141   C     0.99804   0.07526   0.22900   0.00000  Uiso   1.00
C142   C     0.07044   0.11905   0.21757   0.00000  Uiso   1.00
C143   C     0.23681   0.17952   0.20066   0.00000  Uiso   1.00
C144   C     0.66063   0.05034   0.29218   0.00000  Uiso   1.00
C145   C     0.64796   0.02462   0.34178   0.00000  Uiso   1.00
C146   C     0.56025   0.04526   0.38193   0.00000  Uiso   1.00
C147   C     0.43129   0.06301   0.46013   0.00000  Uiso   1.00
C148   C     0.64950   0.03182   0.19346   0.00000  Uiso   1.00
C149   C     0.62745   0.99053   0.16008   0.00000  Uiso   1.00
C150   C     0.53035   0.99557   0.11712   0.00000  Uiso   1.00
C151   C     0.38412   0.98457   0.04206   0.00000  Uiso   1.00
C152   C     0.61750   0.11689   0.22580   0.00000  Uiso   1.00
C153   C     0.77842   0.12259   0.22172   0.00000  Uiso   1.00
C154   C     0.85061   0.16639   0.21029   0.00000  Uiso   1.00
C155   C     0.99794   0.16387   0.20836   0.00000  Uiso   1.00
C156   C     0.58825   0.09508   0.28299   0.00000  Uiso   1.00
C157   C     0.50053   0.11576   0.32307   0.00000  Uiso   1.00
C158   C     0.48774   0.09008   0.37273   0.00000  Uiso   1.00
C159   C     0.57713   0.07656   0.18428   0.00000  Uiso   1.00
C160   C     0.48003   0.08167   0.14136   0.00000  Uiso   1.00
C161   C     0.45784   0.04039   0.10792   0.00000  Uiso   1.00
H162   H     0.80709   0.99969   0.24986   0.00000  Uiso   1.00
H163   H     0.05402   0.04063   0.23611   0.00000  Uiso   1.00
H164   H     0.70397   0.99000   0.34888   0.00000  Uiso   1.00
H165   H     0.68348   0.95592   0.16720   0.00000  Uiso   1.00
H166   H     0.29586   0.10575   0.21684   0.00000  Uiso   1.00
H167   H     0.55774   0.99899   0.45460   0.00000  Uiso   1.00
H168   H     0.51451   0.92712   0.07149   0.00000  Uiso   1.00
H169   H     0.56114   0.15172   0.21865   0.00000  Uiso   1.00
H170   H     0.79457   0.20101   0.20318   0.00000  Uiso   1.00
H171   H     0.44453   0.15038   0.31595   0.00000  Uiso   1.00
H172   H     0.42404   0.11629   0.13427   0.00000  Uiso   1.00
H173   H     0.08529   0.23592   0.19011   0.00000  Uiso   1.00
H174   H     0.34716   0.12916   0.42788   0.00000  Uiso   1.00
H175   H     0.30394   0.05729   0.04477   0.00000  Uiso   1.00
O176   O     0.34857   0.20052   0.19388   0.00000  Uiso   1.00
O177   O     0.38017   0.06044   0.50581   0.00000  Uiso   1.00
O178   O     0.32347   0.96615   0.00318   0.00000  Uiso   1.00
N179   N     0.21426   0.12962   0.21266   0.00000  Uiso   1.00
N180   N     0.52418   0.02981   0.43496   0.00000  Uiso   1.00
N181   N     0.48374   0.96261   0.07679   0.00000  Uiso   1.00
N182   N     0.10096   0.19967   0.19828   0.00000  Uiso   1.00
N183   N     0.41088   0.09985   0.42058   0.00000  Uiso   1.00
N184   N     0.37044   0.03265   0.06241   0.00000  Uiso   1.00
C185   C     0.74925   0.03452   0.74271   0.00000  Uiso   1.00
C186   C     0.64920   0.07785   0.73090   0.00000  Uiso   1.00
C187   C     0.50196   0.07526   0.72900   0.00000  Uiso   1.00
C188   C     0.42956   0.11905   0.71757   0.00000  Uiso   1.00
C189   C     0.26319   0.17952   0.70066   0.00000  Uiso   1.00
C190   C     0.83937   0.05034   0.79218   0.00000  Uiso   1.00
C191   C     0.85204   0.02462   0.84178   0.00000  Uiso   1.00
C192   C     0.93975   0.04526   0.88193   0.00000  Uiso   1.00
C193   C     0.06871   0.06301   0.96013   0.00000  Uiso   1.00
C194   C     0.85050   0.03182   0.69346   0.00000  Uiso   1.00
C195   C     0.87255   0.99053   0.66008   0.00000  Uiso   1.00
C196   C     0.96965   0.99557   0.61712   0.00000  Uiso   1.00
C197   C     0.11588   0.98457   0.54206   0.00000  Uiso   1.00
C198   C     0.88250   0.11689   0.72580   0.00000  Uiso   1.00
C199   C     0.72158   0.12259   0.72172   0.00000  Uiso   1.00
C200   C     0.64939   0.16639   0.71029   0.00000  Uiso   1.00
C201   C     0.50206   0.16387   0.70836   0.00000  Uiso   1.00
C202   C     0.91175   0.09508   0.78299   0.00000  Uiso   1.00
C203   C     0.99947   0.11576   0.82307   0.00000  Uiso   1.00
C204   C     0.01226   0.09008   0.87273   0.00000  Uiso   1.00
C205   C     0.92287   0.07656   0.68428   0.00000  Uiso   1.00
C206   C     0.01997   0.08167   0.64136   0.00000  Uiso   1.00
C207   C     0.04216   0.04039   0.60792   0.00000  Uiso   1.00
H208   H     0.69291   0.99969   0.74986   0.00000  Uiso   1.00
H209   H     0.44598   0.04063   0.73611   0.00000  Uiso   1.00
H210   H     0.79603   0.99000   0.84888   0.00000  Uiso   1.00
H211   H     0.81652   0.95592   0.66720   0.00000  Uiso   1.00
H212   H     0.20414   0.10575   0.71684   0.00000  Uiso   1.00
H213   H     0.94226   0.99899   0.95460   0.00000  Uiso   1.00
H214   H     0.98549   0.92712   0.57149   0.00000  Uiso   1.00
H215   H     0.93886   0.15172   0.71865   0.00000  Uiso   1.00
H216   H     0.70543   0.20101   0.70318   0.00000  Uiso   1.00
H217   H     0.05547   0.15038   0.81595   0.00000  Uiso   1.00
H218   H     0.07596   0.11629   0.63427   0.00000  Uiso   1.00
H219   H     0.41471   0.23592   0.69011   0.00000  Uiso   1.00
H220   H     0.15284   0.12916   0.92788   0.00000  Uiso   1.00
H221   H     0.19606   0.05729   0.54477   0.00000  Uiso   1.00
O222   O     0.15143   0.20052   0.69388   0.00000  Uiso   1.00
O223   O     0.11983   0.06044   0.00581   0.00000  Uiso   1.00
O224   O     0.17653   0.96615   0.50318   0.00000  Uiso   1.00
N225   N     0.28574   0.12962   0.71266   0.00000  Uiso   1.00
N226   N     0.97582   0.02981   0.93496   0.00000  Uiso   1.00
N227   N     0.01626   0.96261   0.57679   0.00000  Uiso   1.00
N228   N     0.39904   0.19967   0.69828   0.00000  Uiso   1.00
N229   N     0.08912   0.09985   0.92058   0.00000  Uiso   1.00
N230   N     0.12956   0.03265   0.56241   0.00000  Uiso   1.00
C231   C     0.75075   0.46548   0.74271   0.00000  Uiso   1.00
C232   C     0.85080   0.42215   0.73090   0.00000  Uiso   1.00
C233   C     0.99804   0.42474   0.72900   0.00000  Uiso   1.00
C234   C     0.07044   0.38095   0.71757   0.00000  Uiso   1.00
C235   C     0.23681   0.32048   0.70066   0.00000  Uiso   1.00
C236   C     0.66063   0.44966   0.79218   0.00000  Uiso   1.00
C237   C     0.64796   0.47538   0.84178   0.00000  Uiso   1.00
C238   C     0.56025   0.45474   0.88193   0.00000  Uiso   1.00
C239   C     0.43129   0.43699   0.96013   0.00000  Uiso   1.00
C240   C     0.64950   0.46818   0.69346   0.00000  Uiso   1.00
C241   C     0.62745   0.50947   0.66008   0.00000  Uiso   1.00
C242   C     0.53035   0.50443   0.61712   0.00000  Uiso   1.00
C243   C     0.38412   0.51543   0.54206   0.00000  Uiso   1.00
C244   C     0.61750   0.38311   0.72580   0.00000  Uiso   1.00
C245   C     0.77842   0.37741   0.72172   0.00000  Uiso   1.00
C246   C     0.85061   0.33361   0.71029   0.00000  Uiso   1.00
C247   C     0.99794   0.33613   0.70836   0.00000  Uiso   1.00
C248   C     0.58825   0.40492   0.78299   0.00000  Uiso   1.00
C249   C     0.50053   0.38424   0.82307   0.00000  Uiso   1.00
C250   C     0.48774   0.40992   0.87273   0.00000  Uiso   1.00
C251   C     0.57713   0.42344   0.68428   0.00000  Uiso   1.00
C252   C     0.48003   0.41833   0.64136   0.00000  Uiso   1.00
C253   C     0.45784   0.45961   0.60792   0.00000  Uiso   1.00
H254   H     0.80709   0.50031   0.74986   0.00000  Uiso   1.00
H255   H     0.05402   0.45937   0.73611   0.00000  Uiso   1.00
H256   H     0.70397   0.51000   0.84888   0.00000  Uiso   1.00
H257   H     0.68348   0.54408   0.66720   0.00000  Uiso   1.00
H258   H     0.29586   0.39425   0.71684   0.00000  Uiso   1.00
H259   H     0.55774   0.50101   0.95460   0.00000  Uiso   1.00
H260   H     0.51451   0.57288   0.57149   0.00000  Uiso   1.00
H261   H     0.56114   0.34828   0.71865   0.00000  Uiso   1.00
H262   H     0.79457   0.29899   0.70318   0.00000  Uiso   1.00
H263   H     0.44453   0.34962   0.81595   0.00000  Uiso   1.00
H264   H     0.42404   0.38371   0.63427   0.00000  Uiso   1.00
H265   H     0.08529   0.26408   0.69011   0.00000  Uiso   1.00
H266   H     0.34716   0.37084   0.92788   0.00000  Uiso   1.00
H267   H     0.30394   0.44271   0.54477   0.00000  Uiso   1.00
O268   O     0.34857   0.29948   0.69388   0.00000  Uiso   1.00
O269   O     0.38017   0.43956   0.00581   0.00000  Uiso   1.00
O270   O     0.32347   0.53385   0.50318   0.00000  Uiso   1.00
N271   N     0.21426   0.37038   0.71266   0.00000  Uiso   1.00
N272   N     0.52418   0.47019   0.93496   0.00000  Uiso   1.00
N273   N     0.48374   0.53739   0.57679   0.00000  Uiso   1.00
N274   N     0.10096   0.30033   0.69828   0.00000  Uiso   1.00
N275   N     0.41088   0.40015   0.92058   0.00000  Uiso   1.00
N276   N     0.37044   0.46735   0.56241   0.00000  Uiso   1.00
C277   C     0.25075   0.53452   0.75729   0.00000  Uiso   1.00
C278   C     0.35080   0.57785   0.76910   0.00000  Uiso   1.00
C279   C     0.49804   0.57526   0.77100   0.00000  Uiso   1.00
C280   C     0.57044   0.61905   0.78243   0.00000  Uiso   1.00
C281   C     0.73681   0.67952   0.79934   0.00000  Uiso   1.00
C282   C     0.16063   0.55034   0.70782   0.00000  Uiso   1.00
C283   C     0.14796   0.52462   0.65822   0.00000  Uiso   1.00
C284   C     0.06025   0.54526   0.61807   0.00000  Uiso   1.00
C285   C     0.93129   0.56301   0.53987   0.00000  Uiso   1.00
C286   C     0.14950   0.53182   0.80654   0.00000  Uiso   1.00
C287   C     0.12745   0.49053   0.83992   0.00000  Uiso   1.00
C288   C     0.03035   0.49557   0.88288   0.00000  Uiso   1.00
C289   C     0.88412   0.48457   0.95794   0.00000  Uiso   1.00
C290   C     0.11750   0.61689   0.77420   0.00000  Uiso   1.00
C291   C     0.27842   0.62259   0.77828   0.00000  Uiso   1.00
C292   C     0.35061   0.66639   0.78971   0.00000  Uiso   1.00
C293   C     0.49794   0.66387   0.79164   0.00000  Uiso   1.00
C294   C     0.08825   0.59508   0.71701   0.00000  Uiso   1.00
C295   C     0.00053   0.61576   0.67693   0.00000  Uiso   1.00
C296   C     0.98774   0.59008   0.62727   0.00000  Uiso   1.00
C297   C     0.07713   0.57656   0.81572   0.00000  Uiso   1.00
C298   C     0.98003   0.58167   0.85864   0.00000  Uiso   1.00
C299   C     0.95784   0.54039   0.89208   0.00000  Uiso   1.00
H300   H     0.30709   0.49969   0.75014   0.00000  Uiso   1.00
H301   H     0.55402   0.54063   0.76389   0.00000  Uiso   1.00
H302   H     0.20397   0.49000   0.65112   0.00000  Uiso   1.00
H303   H     0.18348   0.45592   0.83280   0.00000  Uiso   1.00
H304   H     0.79586   0.60575   0.78316   0.00000  Uiso   1.00
H305   H     0.05774   0.49899   0.54540   0.00000  Uiso   1.00
H306   H     0.01451   0.42712   0.92851   0.00000  Uiso   1.00
H307   H     0.06114   0.65172   0.78135   0.00000  Uiso   1.00
H308   H     0.29457   0.70101   0.79682   0.00000  Uiso   1.00
H309   H     0.94453   0.65038   0.68405   0.00000  Uiso   1.00
H310   H     0.92404   0.61629   0.86573   0.00000  Uiso   1.00
H311   H     0.58529   0.73592   0.80989   0.00000  Uiso   1.00
H312   H     0.84716   0.62916   0.57212   0.00000  Uiso   1.00
H313   H     0.80394   0.55729   0.95523   0.00000  Uiso   1.00
O314   O     0.84857   0.70052   0.80612   0.00000  Uiso   1.00
O315   O     0.88017   0.56044   0.49419   0.00000  Uiso   1.00
O316   O     0.82347   0.46615   0.99682   0.00000  Uiso   1.00
N317   N     0.71426   0.62962   0.78734   0.00000  Uiso   1.00
N318   N     0.02418   0.52981   0.56504   0.00000  Uiso   1.00
N319   N     0.98374   0.46261   0.92321   0.00000  Uiso   1.00
N320   N     0.60096   0.69967   0.80172   0.00000  Uiso   1.00
N321   N     0.91088   0.59985   0.57942   0.00000  Uiso   1.00
N322   N     0.87044   0.53265   0.93759   0.00000  Uiso   1.00
C323   C     0.24925   0.96548   0.75729   0.00000  Uiso   1.00
C324   C     0.14920   0.92215   0.76910   0.00000  Uiso   1.00
C325   C     0.00196   0.92474   0.77100   0.00000  Uiso   1.00
C326   C     0.92956   0.88095   0.78243   0.00000  Uiso   1.00
C327   C     0.76319   0.82048   0.79934   0.00000  Uiso   1.00
C328   C     0.33937   0.94966   0.70782   0.00000  Uiso   1.00
C329   C     0.35204   0.97538   0.65822   0.00000  Uiso   1.00
C330   C     0.43975   0.95474   0.61807   0.00000  Uiso   1.00
C331   C     0.56871   0.93699   0.53987   0.00000  Uiso   1.00
C332   C     0.35050   0.96818   0.80654   0.00000  Uiso   1.00
C333   C     0.37255   0.00947   0.83992   0.00000  Uiso   1.00
C334   C     0.46965   0.00443   0.88288   0.00000  Uiso   1.00
C335   C     0.61588   0.01543   0.95794   0.00000  Uiso   1.00
C336   C     0.38250   0.88311   0.77420   0.00000  Uiso   1.00
C337   C     0.22158   0.87741   0.77828   0.00000  Uiso   1.00
C338   C     0.14939   0.83361   0.78971   0.00000  Uiso   1.00
C339   C     0.00206   0.83613   0.79164   0.00000  Uiso   1.00
C340   C     0.41175   0.90492   0.71701   0.00000  Uiso   1.00
C341   C     0.49947   0.88424   0.67693   0.00000  Uiso   1.00
C342   C     0.51226   0.90992   0.62727   0.00000  Uiso   1.00
C343   C     0.42287   0.92344   0.81572   0.00000  Uiso   1.00
C344   C     0.51997   0.91833   0.85864   0.00000  Uiso   1.00
C345   C     0.54216   0.95961   0.89208   0.00000  Uiso   1.00
H346   H     0.19291   0.00031   0.75014   0.00000  Uiso   1.00
H347   H     0.94598   0.95937   0.76389   0.00000  Uiso   1.00
H348   H     0.29603   0.01000   0.65112   0.00000  Uiso   1.00
H349   H     0.31652   0.04408   0.83280   0.00000  Uiso   1.00
H350   H     0.70414   0.89425   0.78316   0.00000  Uiso   1.00
H351   H     0.44226   0.00101   0.54540   0.00000  Uiso   1.00
H352   H     0.48549   0.07288   0.92851   0.00000  Uiso   1.00
H353   H     0.43886   0.84828   0.78135   0.00000  Uiso   1.00
H354   H     0.20543   0.79899   0.79682   0.00000  Uiso   1.00
H355   H     0.55547   0.84962   0.68405   0.00000  Uiso   1.00
H356   H     0.57596   0.88371   0.86573   0.00000  Uiso   1.00
H357   H     0.91471   0.76408   0.80989   0.00000  Uiso   1.00
H358   H     0.65284   0.87084   0.57212   0.00000  Uiso   1.00
H359   H     0.69606   0.94271   0.95523   0.00000  Uiso   1.00
O360   O     0.65143   0.79948   0.80612   0.00000  Uiso   1.00
O361   O     0.61983   0.93956   0.49419   0.00000  Uiso   1.00
O362   O     0.67653   0.03385   0.99682   0.00000  Uiso   1.00
N363   N     0.78574   0.87038   0.78734   0.00000  Uiso   1.00
N364   N     0.47582   0.97019   0.56504   0.00000  Uiso   1.00
N365   N     0.51626   0.03739   0.92321   0.00000  Uiso   1.00
N366   N     0.89904   0.80033   0.80172   0.00000  Uiso   1.00
N367   N     0.58912   0.90015   0.57942   0.00000  Uiso   1.00
N368   N     0.62956   0.96735   0.93759   0.00000  Uiso   1.00
