data_job_05368
_audit_creation_date              2018-12-19
_audit_creation_method            'Materials Studio'
_symmetry_space_group_name_H-M    'P1'
_symmetry_Int_Tables_number       1
_symmetry_cell_setting            triclinic
loop_
_symmetry_equiv_pos_as_xyz
  x,y,z
_cell_length_a                    25.2782
_cell_length_b                    12.4252
_cell_length_c                    9.9655
_cell_angle_alpha                 90.0000
_cell_angle_beta                  94.5053
_cell_angle_gamma                 90.0000
loop_
_atom_site_label
_atom_site_type_symbol
_atom_site_fract_x
_atom_site_fract_y
_atom_site_fract_z
_atom_site_U_iso_or_equiv
_atom_site_adp_type
_atom_site_occupancy
C1     C     0.36766   0.41118   0.19243   0.00000  Uiso   1.00
C2     C     0.41310   0.48641   0.23909   0.00000  Uiso   1.00
C3     C     0.40899   0.57718   0.31875   0.00000  Uiso   1.00
C4     C     0.45517   0.63537   0.35043   0.00000  Uiso   1.00
C5     C     0.51834   0.75701   0.42988   0.00000  Uiso   1.00
C6     C     0.36635   0.40832   0.03923   0.00000  Uiso   1.00
C7     C     0.32292   0.43341   0.95085   0.00000  Uiso   1.00
C8     C     0.32976   0.42584   0.81428   0.00000  Uiso   1.00
C9     C     0.32033   0.42616   0.58344   0.00000  Uiso   1.00
C10    C     0.38476   0.29903   0.24045   0.00000  Uiso   1.00
C11    C     0.35681   0.23221   0.32123   0.00000  Uiso   1.00
C12    C     0.37914   0.13262   0.35406   0.00000  Uiso   1.00
C13    C     0.39830   0.96325   0.43564   0.00000  Uiso   1.00
C14    C     0.45701   0.35311   0.10704   0.00000  Uiso   1.00
C15    C     0.46163   0.45487   0.19270   0.00000  Uiso   1.00
C16    C     0.50784   0.51293   0.22428   0.00000  Uiso   1.00
C17    C     0.50379   0.60377   0.30397   0.00000  Uiso   1.00
C18    C     0.41488   0.37678   0.99284   0.00000  Uiso   1.00
C19    C     0.42178   0.36916   0.85638   0.00000  Uiso   1.00
C20    C     0.37837   0.39424   0.76781   0.00000  Uiso   1.00
C21    C     0.43329   0.26749   0.19407   0.00000  Uiso   1.00
C22    C     0.45566   0.16797   0.22677   0.00000  Uiso   1.00
C23    C     0.42775   0.10102   0.30759   0.00000  Uiso   1.00
H24    H     0.32988   0.43574   0.22853   0.00000  Uiso   1.00
H25    H     0.37142   0.60157   0.35461   0.00000  Uiso   1.00
H26    H     0.28537   0.45780   0.98677   0.00000  Uiso   1.00
H27    H     0.31926   0.25665   0.35710   0.00000  Uiso   1.00
H28    H     0.43888   0.77153   0.47390   0.00000  Uiso   1.00
H29    H     0.25743   0.46837   0.69829   0.00000  Uiso   1.00
H30    H     0.32888   0.04418   0.47920   0.00000  Uiso   1.00
H31    H     0.49480   0.32855   0.07093   0.00000  Uiso   1.00
H32    H     0.54539   0.48850   0.18837   0.00000  Uiso   1.00
H33    H     0.45934   0.34475   0.82052   0.00000  Uiso   1.00
H34    H     0.49322   0.14359   0.19086   0.00000  Uiso   1.00
H35    H     0.58007   0.67977   0.33897   0.00000  Uiso   1.00
H36    H     0.39863   0.37660   0.56335   0.00000  Uiso   1.00
H37    H     0.47007   0.95242   0.34427   0.00000  Uiso   1.00
O38    O     0.53978   0.83282   0.48649   0.00000  Uiso   1.00
O39    O     0.30172   0.43507   0.46892   0.00000  Uiso   1.00
O40    O     0.39546   0.87855   0.49347   0.00000  Uiso   1.00
N41    N     0.46517   0.72797   0.42605   0.00000  Uiso   1.00
N42    N     0.29553   0.44455   0.70090   0.00000  Uiso   1.00
N43    N     0.36232   0.04796   0.43096   0.00000  Uiso   1.00
N44    N     0.54114   0.67859   0.35344   0.00000  Uiso   1.00
N45    N     0.37150   0.39517   0.62829   0.00000  Uiso   1.00
N46    N     0.43829   0.99859   0.35835   0.00000  Uiso   1.00
C47    C     0.86776   0.80250   0.25461   0.00000  Uiso   1.00
C48    C     0.91333   0.87746   0.22627   0.00000  Uiso   1.00
C49    C     0.90944   0.96800   0.14455   0.00000  Uiso   1.00
C50    C     0.95572   0.02596   0.13156   0.00000  Uiso   1.00
C51    C     0.01911   0.14719   0.07751   0.00000  Uiso   1.00
C52    C     0.86617   0.80010   0.40723   0.00000  Uiso   1.00
C53    C     0.82261   0.82557   0.47765   0.00000  Uiso   1.00
C54    C     0.82919   0.81839   0.61700   0.00000  Uiso   1.00
C55    C     0.81934   0.81943   0.84389   0.00000  Uiso   1.00
C56    C     0.88485   0.69016   0.21412   0.00000  Uiso   1.00
C57    C     0.85699   0.62318   0.12220   0.00000  Uiso   1.00
C58    C     0.87929   0.52343   0.09899   0.00000  Uiso   1.00
C59    C     0.89845   0.35377   0.02604   0.00000  Uiso   1.00
C60    C     0.95687   0.74443   0.37686   0.00000  Uiso   1.00
C61    C     0.96173   0.84592   0.29268   0.00000  Uiso   1.00
C62    C     0.00803   0.90376   0.27981   0.00000  Uiso   1.00
C63    C     0.00420   0.99437   0.19808   0.00000  Uiso   1.00
C64    C     0.91456   0.76856   0.47363   0.00000  Uiso   1.00
C65    C     0.92120   0.76133   0.61291   0.00000  Uiso   1.00
C66    C     0.87767   0.78680   0.68353   0.00000  Uiso   1.00
C67    C     0.93325   0.65862   0.28052   0.00000  Uiso   1.00
C68    C     0.95558   0.55894   0.25746   0.00000  Uiso   1.00
C69    C     0.92777   0.49183   0.16551   0.00000  Uiso   1.00
H70    H     0.83008   0.82706   0.20292   0.00000  Uiso   1.00
H71    H     0.87197   0.99239   0.09318   0.00000  Uiso   1.00
H72    H     0.78516   0.84997   0.42623   0.00000  Uiso   1.00
H73    H     0.81954   0.64762   0.07083   0.00000  Uiso   1.00
H74    H     0.93977   0.16181   0.00085   0.00000  Uiso   1.00
H75    H     0.75671   0.86147   0.70310   0.00000  Uiso   1.00
H76    H     0.82920   0.43476   0.95367   0.00000  Uiso   1.00
H77    H     0.99455   0.71987   0.42857   0.00000  Uiso   1.00
H78    H     0.04548   0.87933   0.33121   0.00000  Uiso   1.00
H79    H     0.95866   0.73691   0.66426   0.00000  Uiso   1.00
H80    H     0.99304   0.53456   0.30886   0.00000  Uiso   1.00
H81    H     0.08059   0.07004   0.19404   0.00000  Uiso   1.00
H82    H     0.89753   0.76971   0.89630   0.00000  Uiso   1.00
H83    H     0.97002   0.34300   0.14687   0.00000  Uiso   1.00
O84    O     0.04070   0.22277   0.02937   0.00000  Uiso   1.00
O85    O     0.80054   0.82873   0.95069   0.00000  Uiso   1.00
O86    O     0.89565   0.26890   0.96745   0.00000  Uiso   1.00
N87    N     0.96592   0.11831   0.05965   0.00000  Uiso   1.00
N88    N     0.79478   0.83754   0.71622   0.00000  Uiso   1.00
N89    N     0.86254   0.43859   0.01559   0.00000  Uiso   1.00
N90    N     0.04170   0.06894   0.16361   0.00000  Uiso   1.00
N91    N     0.87056   0.78816   0.82018   0.00000  Uiso   1.00
N92    N     0.93832   0.38921   0.11955   0.00000  Uiso   1.00
C93    C     0.63234   0.91118   0.80757   0.00000  Uiso   1.00
C94    C     0.58690   0.98641   0.76091   0.00000  Uiso   1.00
C95    C     0.59101   0.07718   0.68125   0.00000  Uiso   1.00
C96    C     0.54483   0.13537   0.64957   0.00000  Uiso   1.00
C97    C     0.48166   0.25701   0.57012   0.00000  Uiso   1.00
C98    C     0.63365   0.90832   0.96077   0.00000  Uiso   1.00
C99    C     0.67708   0.93341   0.04915   0.00000  Uiso   1.00
C100   C     0.67024   0.92584   0.18572   0.00000  Uiso   1.00
C101   C     0.67967   0.92616   0.41656   0.00000  Uiso   1.00
C102   C     0.61524   0.79903   0.75955   0.00000  Uiso   1.00
C103   C     0.64319   0.73221   0.67877   0.00000  Uiso   1.00
C104   C     0.62086   0.63262   0.64594   0.00000  Uiso   1.00
C105   C     0.60170   0.46325   0.56436   0.00000  Uiso   1.00
C106   C     0.54299   0.85311   0.89296   0.00000  Uiso   1.00
C107   C     0.53837   0.95487   0.80730   0.00000  Uiso   1.00
C108   C     0.49216   0.01293   0.77572   0.00000  Uiso   1.00
C109   C     0.49621   0.10377   0.69603   0.00000  Uiso   1.00
C110   C     0.58512   0.87678   0.00716   0.00000  Uiso   1.00
C111   C     0.57822   0.86916   0.14362   0.00000  Uiso   1.00
C112   C     0.62163   0.89424   0.23219   0.00000  Uiso   1.00
C113   C     0.56671   0.76749   0.80593   0.00000  Uiso   1.00
C114   C     0.54434   0.66797   0.77323   0.00000  Uiso   1.00
C115   C     0.57225   0.60102   0.69241   0.00000  Uiso   1.00
H116   H     0.67012   0.93574   0.77147   0.00000  Uiso   1.00
H117   H     0.62858   0.10157   0.64539   0.00000  Uiso   1.00
H118   H     0.71463   0.95780   0.01323   0.00000  Uiso   1.00
H119   H     0.68074   0.75665   0.64290   0.00000  Uiso   1.00
H120   H     0.56112   0.27153   0.52610   0.00000  Uiso   1.00
H121   H     0.74257   0.96837   0.30171   0.00000  Uiso   1.00
H122   H     0.67112   0.54418   0.52080   0.00000  Uiso   1.00
H123   H     0.50520   0.82855   0.92907   0.00000  Uiso   1.00
H124   H     0.45461   0.98850   0.81163   0.00000  Uiso   1.00
H125   H     0.54066   0.84475   0.17948   0.00000  Uiso   1.00
H126   H     0.50678   0.64359   0.80914   0.00000  Uiso   1.00
H127   H     0.41993   0.17977   0.66103   0.00000  Uiso   1.00
H128   H     0.60137   0.87660   0.43665   0.00000  Uiso   1.00
H129   H     0.52993   0.45242   0.65573   0.00000  Uiso   1.00
O130   O     0.46022   0.33282   0.51351   0.00000  Uiso   1.00
O131   O     0.69828   0.93507   0.53108   0.00000  Uiso   1.00
O132   O     0.60454   0.37855   0.50653   0.00000  Uiso   1.00
N133   N     0.53483   0.22797   0.57395   0.00000  Uiso   1.00
N134   N     0.70447   0.94455   0.29910   0.00000  Uiso   1.00
N135   N     0.63768   0.54796   0.56904   0.00000  Uiso   1.00
N136   N     0.45886   0.17859   0.64656   0.00000  Uiso   1.00
N137   N     0.62850   0.89517   0.37171   0.00000  Uiso   1.00
N138   N     0.56171   0.49859   0.64165   0.00000  Uiso   1.00
C139   C     0.13224   0.30250   0.74539   0.00000  Uiso   1.00
C140   C     0.08667   0.37746   0.77373   0.00000  Uiso   1.00
C141   C     0.09056   0.46800   0.85545   0.00000  Uiso   1.00
C142   C     0.04428   0.52596   0.86844   0.00000  Uiso   1.00
C143   C     0.98089   0.64719   0.92249   0.00000  Uiso   1.00
C144   C     0.13383   0.30010   0.59277   0.00000  Uiso   1.00
C145   C     0.17739   0.32557   0.52235   0.00000  Uiso   1.00
C146   C     0.17081   0.31839   0.38300   0.00000  Uiso   1.00
C147   C     0.18066   0.31943   0.15611   0.00000  Uiso   1.00
C148   C     0.11515   0.19016   0.78588   0.00000  Uiso   1.00
C149   C     0.14301   0.12318   0.87780   0.00000  Uiso   1.00
C150   C     0.12071   0.02343   0.90101   0.00000  Uiso   1.00
C151   C     0.10155   0.85377   0.97396   0.00000  Uiso   1.00
C152   C     0.04313   0.24443   0.62314   0.00000  Uiso   1.00
C153   C     0.03827   0.34592   0.70732   0.00000  Uiso   1.00
C154   C     0.99197   0.40376   0.72019   0.00000  Uiso   1.00
C155   C     0.99580   0.49437   0.80192   0.00000  Uiso   1.00
C156   C     0.08544   0.26856   0.52637   0.00000  Uiso   1.00
C157   C     0.07880   0.26133   0.38709   0.00000  Uiso   1.00
C158   C     0.12233   0.28680   0.31647   0.00000  Uiso   1.00
C159   C     0.06675   0.15862   0.71948   0.00000  Uiso   1.00
C160   C     0.04442   0.05894   0.74254   0.00000  Uiso   1.00
C161   C     0.07223   0.99183   0.83449   0.00000  Uiso   1.00
H162   H     0.16992   0.32706   0.79708   0.00000  Uiso   1.00
H163   H     0.12803   0.49239   0.90682   0.00000  Uiso   1.00
H164   H     0.21484   0.34997   0.57377   0.00000  Uiso   1.00
H165   H     0.18046   0.14762   0.92917   0.00000  Uiso   1.00
H166   H     0.06023   0.66181   0.99915   0.00000  Uiso   1.00
H167   H     0.24329   0.36147   0.29690   0.00000  Uiso   1.00
H168   H     0.17080   0.93476   0.04633   0.00000  Uiso   1.00
H169   H     0.00545   0.21987   0.57143   0.00000  Uiso   1.00
H170   H     0.95452   0.37933   0.66879   0.00000  Uiso   1.00
H171   H     0.04134   0.23691   0.33574   0.00000  Uiso   1.00
H172   H     0.00696   0.03456   0.69114   0.00000  Uiso   1.00
H173   H     0.91941   0.57004   0.80596   0.00000  Uiso   1.00
H174   H     0.10247   0.26971   0.10370   0.00000  Uiso   1.00
H175   H     0.02998   0.84300   0.85313   0.00000  Uiso   1.00
O176   O     0.95930   0.72277   0.97063   0.00000  Uiso   1.00
O177   O     0.19946   0.32873   0.04931   0.00000  Uiso   1.00
O178   O     0.10435   0.76890   0.03255   0.00000  Uiso   1.00
N179   N     0.03408   0.61831   0.94035   0.00000  Uiso   1.00
N180   N     0.20522   0.33754   0.28378   0.00000  Uiso   1.00
N181   N     0.13746   0.93859   0.98441   0.00000  Uiso   1.00
N182   N     0.95830   0.56894   0.83639   0.00000  Uiso   1.00
N183   N     0.12944   0.28816   0.17982   0.00000  Uiso   1.00
N184   N     0.06168   0.88921   0.88045   0.00000  Uiso   1.00
