data_job_00377
_audit_creation_date              2018-12-19
_audit_creation_method            'Materials Studio'
_symmetry_space_group_name_H-M    'P1'
_symmetry_Int_Tables_number       1
_symmetry_cell_setting            triclinic
loop_
_symmetry_equiv_pos_as_xyz
  x,y,z
_cell_length_a                    15.7200
_cell_length_b                    12.2738
_cell_length_c                    12.3412
_cell_angle_alpha                 92.3322
_cell_angle_beta                  93.1333
_cell_angle_gamma                 90.1382
loop_
_atom_site_label
_atom_site_type_symbol
_atom_site_fract_x
_atom_site_fract_y
_atom_site_fract_z
_atom_site_U_iso_or_equiv
_atom_site_adp_type
_atom_site_occupancy
C1     C     0.17261   0.54182   0.30432   0.00000  Uiso   1.00
C2     C     0.15238   0.60232   0.41014   0.00000  Uiso   1.00
C3     C     0.07404   0.64639   0.43401   0.00000  Uiso   1.00
C4     C     0.06851   0.69861   0.53529   0.00000  Uiso   1.00
C5     C     0.02641   0.79140   0.68822   0.00000  Uiso   1.00
C6     C     0.24758   0.60233   0.26085   0.00000  Uiso   1.00
C7     C     0.24927   0.64640   0.15918   0.00000  Uiso   1.00
C8     C     0.32389   0.69861   0.13479   0.00000  Uiso   1.00
C9     C     0.42960   0.79135   0.05591   0.00000  Uiso   1.00
C10    C     0.20662   0.43068   0.33615   0.00000  Uiso   1.00
C11    C     0.17390   0.33042   0.29779   0.00000  Uiso   1.00
C12    C     0.21404   0.23811   0.33678   0.00000  Uiso   1.00
C13    C     0.25616   0.06434   0.37482   0.00000  Uiso   1.00
C14    C     0.30210   0.55619   0.44175   0.00000  Uiso   1.00
C15    C     0.22272   0.61012   0.48478   0.00000  Uiso   1.00
C16    C     0.21731   0.66228   0.58606   0.00000  Uiso   1.00
C17    C     0.13897   0.70642   0.61007   0.00000  Uiso   1.00
C18    C     0.31791   0.61013   0.33549   0.00000  Uiso   1.00
C19    C     0.39254   0.66229   0.31123   0.00000  Uiso   1.00
C20    C     0.39435   0.70643   0.20957   0.00000  Uiso   1.00
C21    C     0.27695   0.43848   0.41080   0.00000  Uiso   1.00
C22    C     0.31716   0.34631   0.44985   0.00000  Uiso   1.00
C23    C     0.28450   0.24593   0.41156   0.00000  Uiso   1.00
H24    H     0.11786   0.53575   0.24620   0.00000  Uiso   1.00
H25    H     0.01963   0.64034   0.37621   0.00000  Uiso   1.00
H26    H     0.19484   0.64034   0.10143   0.00000  Uiso   1.00
H27    H     0.11947   0.32441   0.24002   0.00000  Uiso   1.00
H28    H     0.94175   0.75977   0.55326   0.00000  Uiso   1.00
H29    H     0.31120   0.75974   0.97385   0.00000  Uiso   1.00
H30    H     0.15227   0.09354   0.26610   0.00000  Uiso   1.00
H31    H     0.35686   0.56226   0.49986   0.00000  Uiso   1.00
H32    H     0.27174   0.66830   0.64381   0.00000  Uiso   1.00
H33    H     0.44695   0.66831   0.36902   0.00000  Uiso   1.00
H34    H     0.37159   0.35238   0.50761   0.00000  Uiso   1.00
H35    H     0.14637   0.78247   0.77045   0.00000  Uiso   1.00
H36    H     0.51583   0.78243   0.19103   0.00000  Uiso   1.00
H37    H     0.35690   0.11624   0.48328   0.00000  Uiso   1.00
O38    O     0.98376   0.84044   0.75195   0.00000  Uiso   1.00
O39    O     0.46847   0.84037   0.99178   0.00000  Uiso   1.00
O40    O     0.25996   0.96633   0.37520   0.00000  Uiso   1.00
N41    N     0.00158   0.75054   0.58463   0.00000  Uiso   1.00
N42    N     0.34699   0.75052   0.04292   0.00000  Uiso   1.00
N43    N     0.19842   0.12768   0.31612   0.00000  Uiso   1.00
N44    N     0.11169   0.76276   0.70150   0.00000  Uiso   1.00
N45    N     0.45710   0.76274   0.15979   0.00000  Uiso   1.00
N46    N     0.30853   0.13990   0.43299   0.00000  Uiso   1.00
C47    C     0.80283   0.91522   0.20569   0.00000  Uiso   1.00
C48    C     0.81734   0.97195   0.10055   0.00000  Uiso   1.00
C49    C     0.89084   0.02719   0.07725   0.00000  Uiso   1.00
C50    C     0.89156   0.07355   0.97655   0.00000  Uiso   1.00
C51    C     0.92478   0.16299   0.82468   0.00000  Uiso   1.00
C52    C     0.72247   0.96555   0.24983   0.00000  Uiso   1.00
C53    C     0.71621   0.01539   0.35204   0.00000  Uiso   1.00
C54    C     0.63707   0.05635   0.37699   0.00000  Uiso   1.00
C55    C     0.52299   0.13579   0.45690   0.00000  Uiso   1.00
C56    C     0.77997   0.79729   0.17252   0.00000  Uiso   1.00
C57    C     0.82203   0.70564   0.20976   0.00000  Uiso   1.00
C58    C     0.79128   0.60493   0.16964   0.00000  Uiso   1.00
C59    C     0.76647   0.42311   0.12952   0.00000  Uiso   1.00
C60    C     0.67340   0.89933   0.06827   0.00000  Uiso   1.00
C61    C     0.74704   0.96332   0.02592   0.00000  Uiso   1.00
C62    C     0.74765   0.00960   0.92522   0.00000  Uiso   1.00
C63    C     0.82114   0.06490   0.90177   0.00000  Uiso   1.00
C64    C     0.65217   0.95692   0.17519   0.00000  Uiso   1.00
C65    C     0.57302   0.99781   0.20000   0.00000  Uiso   1.00
C66    C     0.56664   0.04770   0.30222   0.00000  Uiso   1.00
C67    C     0.70967   0.78865   0.09788   0.00000  Uiso   1.00
C68    C     0.67884   0.68806   0.05771   0.00000  Uiso   1.00
C69    C     0.72085   0.59628   0.09487   0.00000  Uiso   1.00
H70    H     0.85755   0.92195   0.26380   0.00000  Uiso   1.00
H71    H     0.94523   0.03386   0.13504   0.00000  Uiso   1.00
H72    H     0.77062   0.02205   0.40979   0.00000  Uiso   1.00
H73    H     0.87643   0.71236   0.26752   0.00000  Uiso   1.00
H74    H     0.01142   0.15417   0.95939   0.00000  Uiso   1.00
H75    H     0.64325   0.12924   0.53871   0.00000  Uiso   1.00
H76    H     0.86636   0.47618   0.23872   0.00000  Uiso   1.00
H77    H     0.61866   0.89261   0.01016   0.00000  Uiso   1.00
H78    H     0.69323   0.00291   0.86747   0.00000  Uiso   1.00
H79    H     0.51863   0.99110   0.14222   0.00000  Uiso   1.00
H80    H     0.62443   0.68141   0.99995   0.00000  Uiso   1.00
H81    H     0.80689   0.12905   0.74222   0.00000  Uiso   1.00
H82    H     0.43872   0.10411   0.32155   0.00000  Uiso   1.00
H83    H     0.66183   0.45106   0.02155   0.00000  Uiso   1.00
O84    O     0.96251   0.21473   0.76153   0.00000  Uiso   1.00
O85    O     0.47948   0.18200   0.52159   0.00000  Uiso   1.00
O86    O     0.77220   0.32521   0.12800   0.00000  Uiso   1.00
N87    N     0.95306   0.13310   0.92785   0.00000  Uiso   1.00
N88    N     0.60884   0.10980   0.46948   0.00000  Uiso   1.00
N89    N     0.81742   0.49925   0.18903   0.00000  Uiso   1.00
N90    N     0.84300   0.11958   0.81099   0.00000  Uiso   1.00
N91    N     0.49879   0.09629   0.35262   0.00000  Uiso   1.00
N92    N     0.70736   0.48573   0.07217   0.00000  Uiso   1.00
C93    C     0.82739   0.45818   0.69568   0.00000  Uiso   1.00
C94    C     0.84762   0.39768   0.58986   0.00000  Uiso   1.00
C95    C     0.92596   0.35361   0.56599   0.00000  Uiso   1.00
C96    C     0.93149   0.30139   0.46471   0.00000  Uiso   1.00
C97    C     0.97359   0.20860   0.31178   0.00000  Uiso   1.00
C98    C     0.75242   0.39767   0.73915   0.00000  Uiso   1.00
C99    C     0.75073   0.35360   0.84082   0.00000  Uiso   1.00
C100   C     0.67611   0.30139   0.86521   0.00000  Uiso   1.00
C101   C     0.57040   0.20865   0.94409   0.00000  Uiso   1.00
C102   C     0.79338   0.56932   0.66385   0.00000  Uiso   1.00
C103   C     0.82610   0.66958   0.70221   0.00000  Uiso   1.00
C104   C     0.78596   0.76189   0.66322   0.00000  Uiso   1.00
C105   C     0.74384   0.93566   0.62518   0.00000  Uiso   1.00
C106   C     0.69790   0.44381   0.55825   0.00000  Uiso   1.00
C107   C     0.77728   0.38988   0.51522   0.00000  Uiso   1.00
C108   C     0.78269   0.33772   0.41394   0.00000  Uiso   1.00
C109   C     0.86103   0.29358   0.38993   0.00000  Uiso   1.00
C110   C     0.68209   0.38987   0.66451   0.00000  Uiso   1.00
C111   C     0.60746   0.33771   0.68877   0.00000  Uiso   1.00
C112   C     0.60565   0.29357   0.79043   0.00000  Uiso   1.00
C113   C     0.72305   0.56152   0.58920   0.00000  Uiso   1.00
C114   C     0.68284   0.65369   0.55015   0.00000  Uiso   1.00
C115   C     0.71550   0.75407   0.58844   0.00000  Uiso   1.00
H116   H     0.88214   0.46425   0.75380   0.00000  Uiso   1.00
H117   H     0.98037   0.35966   0.62379   0.00000  Uiso   1.00
H118   H     0.80516   0.35966   0.89857   0.00000  Uiso   1.00
H119   H     0.88053   0.67559   0.75998   0.00000  Uiso   1.00
H120   H     0.05825   0.24023   0.44674   0.00000  Uiso   1.00
H121   H     0.68880   0.24026   0.02615   0.00000  Uiso   1.00
H122   H     0.84773   0.90646   0.73390   0.00000  Uiso   1.00
H123   H     0.64314   0.43774   0.50014   0.00000  Uiso   1.00
H124   H     0.72826   0.33170   0.35619   0.00000  Uiso   1.00
H125   H     0.55305   0.33169   0.63098   0.00000  Uiso   1.00
H126   H     0.62841   0.64762   0.49239   0.00000  Uiso   1.00
H127   H     0.85363   0.21753   0.22955   0.00000  Uiso   1.00
H128   H     0.48417   0.21757   0.80897   0.00000  Uiso   1.00
H129   H     0.64310   0.88376   0.51672   0.00000  Uiso   1.00
O130   O     0.01624   0.15956   0.24805   0.00000  Uiso   1.00
O131   O     0.53153   0.15963   0.00822   0.00000  Uiso   1.00
O132   O     0.74004   0.03367   0.62480   0.00000  Uiso   1.00
N133   N     0.99842   0.24946   0.41537   0.00000  Uiso   1.00
N134   N     0.65301   0.24948   0.95708   0.00000  Uiso   1.00
N135   N     0.80158   0.87232   0.68388   0.00000  Uiso   1.00
N136   N     0.88831   0.23724   0.29850   0.00000  Uiso   1.00
N137   N     0.54290   0.23726   0.84021   0.00000  Uiso   1.00
N138   N     0.69147   0.86010   0.56701   0.00000  Uiso   1.00
C139   C     0.19717   0.08478   0.79431   0.00000  Uiso   1.00
C140   C     0.18266   0.02805   0.89945   0.00000  Uiso   1.00
C141   C     0.10916   0.97281   0.92275   0.00000  Uiso   1.00
C142   C     0.10844   0.92645   0.02345   0.00000  Uiso   1.00
C143   C     0.07522   0.83701   0.17532   0.00000  Uiso   1.00
C144   C     0.27753   0.03445   0.75017   0.00000  Uiso   1.00
C145   C     0.28379   0.98461   0.64796   0.00000  Uiso   1.00
C146   C     0.36293   0.94365   0.62301   0.00000  Uiso   1.00
C147   C     0.47701   0.86421   0.54310   0.00000  Uiso   1.00
C148   C     0.22003   0.20271   0.82748   0.00000  Uiso   1.00
C149   C     0.17797   0.29436   0.79024   0.00000  Uiso   1.00
C150   C     0.20872   0.39507   0.83036   0.00000  Uiso   1.00
C151   C     0.23353   0.57689   0.87048   0.00000  Uiso   1.00
C152   C     0.32660   0.10067   0.93173   0.00000  Uiso   1.00
C153   C     0.25296   0.03668   0.97408   0.00000  Uiso   1.00
C154   C     0.25235   0.99040   0.07478   0.00000  Uiso   1.00
C155   C     0.17886   0.93510   0.09823   0.00000  Uiso   1.00
C156   C     0.34783   0.04308   0.82481   0.00000  Uiso   1.00
C157   C     0.42698   0.00219   0.80000   0.00000  Uiso   1.00
C158   C     0.43336   0.95230   0.69778   0.00000  Uiso   1.00
C159   C     0.29033   0.21135   0.90212   0.00000  Uiso   1.00
C160   C     0.32116   0.31194   0.94229   0.00000  Uiso   1.00
C161   C     0.27915   0.40372   0.90513   0.00000  Uiso   1.00
H162   H     0.14245   0.07805   0.73620   0.00000  Uiso   1.00
H163   H     0.05477   0.96614   0.86496   0.00000  Uiso   1.00
H164   H     0.22938   0.97795   0.59021   0.00000  Uiso   1.00
H165   H     0.12357   0.28764   0.73248   0.00000  Uiso   1.00
H166   H     0.98858   0.84583   0.04061   0.00000  Uiso   1.00
H167   H     0.35675   0.87076   0.46129   0.00000  Uiso   1.00
H168   H     0.13364   0.52382   0.76128   0.00000  Uiso   1.00
H169   H     0.38134   0.10739   0.98984   0.00000  Uiso   1.00
H170   H     0.30677   0.99709   0.13253   0.00000  Uiso   1.00
H171   H     0.48137   0.00890   0.85778   0.00000  Uiso   1.00
H172   H     0.37557   0.31859   0.00005   0.00000  Uiso   1.00
H173   H     0.19311   0.87095   0.25778   0.00000  Uiso   1.00
H174   H     0.56128   0.89589   0.67845   0.00000  Uiso   1.00
H175   H     0.33817   0.54894   0.97845   0.00000  Uiso   1.00
O176   O     0.03749   0.78527   0.23847   0.00000  Uiso   1.00
O177   O     0.52052   0.81800   0.47841   0.00000  Uiso   1.00
O178   O     0.22780   0.67479   0.87200   0.00000  Uiso   1.00
N179   N     0.04694   0.86690   0.07215   0.00000  Uiso   1.00
N180   N     0.39116   0.89020   0.53052   0.00000  Uiso   1.00
N181   N     0.18258   0.50075   0.81097   0.00000  Uiso   1.00
N182   N     0.15700   0.88042   0.18901   0.00000  Uiso   1.00
N183   N     0.50121   0.90371   0.64738   0.00000  Uiso   1.00
N184   N     0.29264   0.51427   0.92783   0.00000  Uiso   1.00
