data_job_06802
_audit_creation_date              2018-12-19
_audit_creation_method            'Materials Studio'
_symmetry_space_group_name_H-M    'P1'
_symmetry_Int_Tables_number       1
_symmetry_cell_setting            triclinic
loop_
_symmetry_equiv_pos_as_xyz
  x,y,z
_cell_length_a                    17.4587
_cell_length_b                    19.6923
_cell_length_c                    23.5077
_cell_angle_alpha                 72.6553
_cell_angle_beta                  85.1969
_cell_angle_gamma                 83.7205
loop_
_atom_site_label
_atom_site_type_symbol
_atom_site_fract_x
_atom_site_fract_y
_atom_site_fract_z
_atom_site_U_iso_or_equiv
_atom_site_adp_type
_atom_site_occupancy
C1     C     0.97629   0.81177   0.79386   0.00000  Uiso   1.00
C2     C     0.01640   0.80872   0.73439   0.00000  Uiso   1.00
C3     C     0.98500   0.78681   0.69116   0.00000  Uiso   1.00
C4     C     0.03099   0.78786   0.63983   0.00000  Uiso   1.00
C5     C     0.08193   0.77972   0.54868   0.00000  Uiso   1.00
C6     C     0.02912   0.76606   0.84196   0.00000  Uiso   1.00
C7     C     0.00841   0.70830   0.88916   0.00000  Uiso   1.00
C8     C     0.06510   0.67344   0.92838   0.00000  Uiso   1.00
C9     C     0.13577   0.59911   0.00425   0.00000  Uiso   1.00
C10    C     0.97757   0.88848   0.79546   0.00000  Uiso   1.00
C11    C     0.91352   0.93364   0.80359   0.00000  Uiso   1.00
C12    C     0.92681   0.00185   0.80367   0.00000  Uiso   1.00
C13    C     0.91744   0.11759   0.80735   0.00000  Uiso   1.00
C14    C     0.11379   0.85257   0.77958   0.00000  Uiso   1.00
C15    C     0.09109   0.83088   0.72664   0.00000  Uiso   1.00
C16    C     0.13713   0.83196   0.67536   0.00000  Uiso   1.00
C17    C     0.10581   0.81007   0.63205   0.00000  Uiso   1.00
C18    C     0.10380   0.78822   0.83420   0.00000  Uiso   1.00
C19    C     0.16054   0.75345   0.87337   0.00000  Uiso   1.00
C20    C     0.13992   0.69565   0.92062   0.00000  Uiso   1.00
C21    C     0.05225   0.91064   0.78770   0.00000  Uiso   1.00
C22    C     0.06565   0.97879   0.78778   0.00000  Uiso   1.00
C23    C     0.00163   0.02405   0.79591   0.00000  Uiso   1.00
H24    H     0.91814   0.79451   0.79990   0.00000  Uiso   1.00
H25    H     0.92720   0.76966   0.69718   0.00000  Uiso   1.00
H26    H     0.95061   0.69116   0.89516   0.00000  Uiso   1.00
H27    H     0.85573   0.91647   0.80959   0.00000  Uiso   1.00
H28    H     0.97020   0.75186   0.57988   0.00000  Uiso   1.00
H29    H     0.01954   0.58637   0.99733   0.00000  Uiso   1.00
H30    H     0.81947   0.06147   0.81690   0.00000  Uiso   1.00
H31    H     0.17194   0.86983   0.77355   0.00000  Uiso   1.00
H32    H     0.19493   0.84912   0.66937   0.00000  Uiso   1.00
H33    H     0.21833   0.77062   0.86735   0.00000  Uiso   1.00
H34    H     0.12345   0.99593   0.78178   0.00000  Uiso   1.00
H35    H     0.18749   0.81635   0.55731   0.00000  Uiso   1.00
H36    H     0.23683   0.65085   0.97477   0.00000  Uiso   1.00
H37    H     0.03677   0.12596   0.79433   0.00000  Uiso   1.00
O38    O     0.08940   0.76909   0.50055   0.00000  Uiso   1.00
O39    O     0.15412   0.55198   0.04824   0.00000  Uiso   1.00
O40    O     0.89164   0.17531   0.81151   0.00000  Uiso   1.00
N41    N     0.01818   0.76989   0.58886   0.00000  Uiso   1.00
N42    N     0.06431   0.61516   0.97915   0.00000  Uiso   1.00
N43    N     0.87727   0.05934   0.81047   0.00000  Uiso   1.00
N44    N     0.13510   0.80459   0.57671   0.00000  Uiso   1.00
N45    N     0.18123   0.64986   0.96701   0.00000  Uiso   1.00
N46    N     0.99419   0.09404   0.79833   0.00000  Uiso   1.00
C47    C     0.68103   0.96990   0.80147   0.00000  Uiso   1.00
C48    C     0.59354   0.96927   0.80387   0.00000  Uiso   1.00
C49    C     0.55342   0.90881   0.81813   0.00000  Uiso   1.00
C50    C     0.47351   0.91951   0.81784   0.00000  Uiso   1.00
C51    C     0.34350   0.90808   0.82368   0.00000  Uiso   1.00
C52    C     0.70379   0.01581   0.73892   0.00000  Uiso   1.00
C53    C     0.75638   0.99447   0.69858   0.00000  Uiso   1.00
C54    C     0.76928   0.04435   0.64362   0.00000  Uiso   1.00
C55    C     0.81048   0.10518   0.54863   0.00000  Uiso   1.00
C56    C     0.69737   0.01135   0.84388   0.00000  Uiso   1.00
C57    C     0.74457   0.98627   0.89178   0.00000  Uiso   1.00
C58    C     0.75208   0.03240   0.92519   0.00000  Uiso   1.00
C59    C     0.78331   0.08630   0.99318   0.00000  Uiso   1.00
C60    C     0.61044   0.09644   0.77559   0.00000  Uiso   1.00
C61    C     0.55521   0.03800   0.78981   0.00000  Uiso   1.00
C62    C     0.47533   0.04880   0.78951   0.00000  Uiso   1.00
C63    C     0.43510   0.98836   0.80377   0.00000  Uiso   1.00
C64    C     0.66546   0.08453   0.72486   0.00000  Uiso   1.00
C65    C     0.67828   0.13446   0.66995   0.00000  Uiso   1.00
C66    C     0.73087   0.11321   0.62954   0.00000  Uiso   1.00
C67    C     0.65903   0.08008   0.82983   0.00000  Uiso   1.00
C68    C     0.66647   0.12626   0.86316   0.00000  Uiso   1.00
C69    C     0.71367   0.10125   0.91111   0.00000  Uiso   1.00
H70    H     0.71088   0.91640   0.81240   0.00000  Uiso   1.00
H71    H     0.58312   0.85563   0.82900   0.00000  Uiso   1.00
H72    H     0.78605   0.94128   0.70947   0.00000  Uiso   1.00
H73    H     0.77423   0.93308   0.90265   0.00000  Uiso   1.00
H74    H     0.42456   0.81856   0.84118   0.00000  Uiso   1.00
H75    H     0.85247   0.99917   0.58915   0.00000  Uiso   1.00
H76    H     0.82756   0.98188   0.99650   0.00000  Uiso   1.00
H77    H     0.58059   0.14995   0.76465   0.00000  Uiso   1.00
H78    H     0.44567   0.10200   0.77863   0.00000  Uiso   1.00
H79    H     0.64861   0.18765   0.65909   0.00000  Uiso   1.00
H80    H     0.63679   0.17944   0.85227   0.00000  Uiso   1.00
H81    H     0.31301   0.01852   0.80029   0.00000  Uiso   1.00
H82    H     0.74092   0.19913   0.54826   0.00000  Uiso   1.00
H83    H     0.71601   0.18184   0.95562   0.00000  Uiso   1.00
O84    O     0.28239   0.88278   0.83077   0.00000  Uiso   1.00
O85    O     0.84380   0.11974   0.50012   0.00000  Uiso   1.00
O86    O     0.81111   0.09704   0.03457   0.00000  Uiso   1.00
N87    N     0.41682   0.87220   0.82965   0.00000  Uiso   1.00
N88    N     0.81688   0.04106   0.59401   0.00000  Uiso   1.00
N89    N     0.79361   0.02490   0.97485   0.00000  Uiso   1.00
N90    N     0.35680   0.97980   0.80765   0.00000  Uiso   1.00
N91    N     0.75686   0.14866   0.57201   0.00000  Uiso   1.00
N92    N     0.73359   0.13249   0.95285   0.00000  Uiso   1.00
C93    C     0.78566   0.77792   0.92706   0.00000  Uiso   1.00
C94    C     0.78766   0.71106   0.90673   0.00000  Uiso   1.00
C95    C     0.79397   0.70918   0.84797   0.00000  Uiso   1.00
C96    C     0.79477   0.64271   0.83866   0.00000  Uiso   1.00
C97    C     0.79865   0.54837   0.79982   0.00000  Uiso   1.00
C98    C     0.71125   0.77957   0.96573   0.00000  Uiso   1.00
C99    C     0.65333   0.83530   0.95657   0.00000  Uiso   1.00
C100   C     0.58981   0.82650   0.99694   0.00000  Uiso   1.00
C101   C     0.47509   0.83856   0.04972   0.00000  Uiso   1.00
C102   C     0.85134   0.76452   0.96901   0.00000  Uiso   1.00
C103   C     0.91120   0.80760   0.96263   0.00000  Uiso   1.00
C104   C     0.96562   0.78614   0.00577   0.00000  Uiso   1.00
C105   C     0.06841   0.77483   0.06365   0.00000  Uiso   1.00
C106   C     0.77586   0.66322   0.01503   0.00000  Uiso   1.00
C107   C     0.78234   0.64876   0.95451   0.00000  Uiso   1.00
C108   C     0.78313   0.58227   0.94529   0.00000  Uiso   1.00
C109   C     0.78945   0.58029   0.88652   0.00000  Uiso   1.00
C110   C     0.70593   0.71727   0.01351   0.00000  Uiso   1.00
C111   C     0.64249   0.70839   0.05390   0.00000  Uiso   1.00
C112   C     0.58448   0.76409   0.04481   0.00000  Uiso   1.00
C113   C     0.84602   0.70222   0.01679   0.00000  Uiso   1.00
C114   C     0.90036   0.68069   0.05995   0.00000  Uiso   1.00
C115   C     0.96029   0.72373   0.05363   0.00000  Uiso   1.00
H116   H     0.78979   0.82642   0.88986   0.00000  Uiso   1.00
H117   H     0.79808   0.75740   0.81100   0.00000  Uiso   1.00
H118   H     0.65746   0.88350   0.91960   0.00000  Uiso   1.00
H119   H     0.91529   0.85581   0.92565   0.00000  Uiso   1.00
H120   H     0.80488   0.65341   0.74464   0.00000  Uiso   1.00
H121   H     0.50840   0.91931   0.97363   0.00000  Uiso   1.00
H122   H     0.05209   0.86091   0.98639   0.00000  Uiso   1.00
H123   H     0.77172   0.61471   0.05223   0.00000  Uiso   1.00
H124   H     0.77902   0.53407   0.98228   0.00000  Uiso   1.00
H125   H     0.63840   0.66018   0.09087   0.00000  Uiso   1.00
H126   H     0.89623   0.63248   0.09692   0.00000  Uiso   1.00
H127   H     0.78941   0.47215   0.88365   0.00000  Uiso   1.00
H128   H     0.49293   0.73805   0.11264   0.00000  Uiso   1.00
H129   H     0.03662   0.67965   0.12540   0.00000  Uiso   1.00
O130   O     0.80225   0.51355   0.76519   0.00000  Uiso   1.00
O131   O     0.41328   0.86242   0.06563   0.00000  Uiso   1.00
O132   O     0.12659   0.78579   0.08237   0.00000  Uiso   1.00
N133   N     0.80026   0.62181   0.78695   0.00000  Uiso   1.00
N134   N     0.52306   0.87041   0.00104   0.00000  Uiso   1.00
N135   N     0.03135   0.81583   0.01298   0.00000  Uiso   1.00
N136   N     0.79193   0.52428   0.86176   0.00000  Uiso   1.00
N137   N     0.51473   0.77288   0.07584   0.00000  Uiso   1.00
N138   N     0.02303   0.71829   0.08778   0.00000  Uiso   1.00
C139   C     0.29393   0.27110   0.36380   0.00000  Uiso   1.00
C140   C     0.29987   0.19081   0.39428   0.00000  Uiso   1.00
C141   C     0.23906   0.14781   0.40729   0.00000  Uiso   1.00
C142   C     0.25639   0.07561   0.43530   0.00000  Uiso   1.00
C143   C     0.25414   0.95520   0.48040   0.00000  Uiso   1.00
C144   C     0.35011   0.28261   0.30919   0.00000  Uiso   1.00
C145   C     0.33153   0.31681   0.25066   0.00000  Uiso   1.00
C146   C     0.39117   0.32190   0.20706   0.00000  Uiso   1.00
C147   C     0.46692   0.34407   0.12006   0.00000  Uiso   1.00
C148   C     0.32704   0.30442   0.40616   0.00000  Uiso   1.00
C149   C     0.28907   0.35698   0.42915   0.00000  Uiso   1.00
C150   C     0.32928   0.38045   0.46718   0.00000  Uiso   1.00
C151   C     0.36921   0.43648   0.53074   0.00000  Uiso   1.00
C152   C     0.43288   0.21935   0.39042   0.00000  Uiso   1.00
C153   C     0.37534   0.16270   0.40873   0.00000  Uiso   1.00
C154   C     0.39278   0.09055   0.43674   0.00000  Uiso   1.00
C155   C     0.33200   0.04745   0.44979   0.00000  Uiso   1.00
C156   C     0.42558   0.25450   0.32365   0.00000  Uiso   1.00
C157   C     0.48526   0.25955   0.28012   0.00000  Uiso   1.00
C158   C     0.46677   0.29374   0.22154   0.00000  Uiso   1.00
C159   C     0.40250   0.27632   0.42062   0.00000  Uiso   1.00
C160   C     0.44279   0.29972   0.45861   0.00000  Uiso   1.00
C161   C     0.40489   0.35229   0.48166   0.00000  Uiso   1.00
H162   H     0.23518   0.29299   0.35254   0.00000  Uiso   1.00
H163   H     0.18066   0.16958   0.39608   0.00000  Uiso   1.00
H164   H     0.27313   0.33856   0.23949   0.00000  Uiso   1.00
H165   H     0.23067   0.37872   0.41795   0.00000  Uiso   1.00
H166   H     0.15350   0.02035   0.45072   0.00000  Uiso   1.00
H167   H     0.34848   0.37668   0.12053   0.00000  Uiso   1.00
H168   H     0.25894   0.46136   0.49686   0.00000  Uiso   1.00
H169   H     0.49164   0.19747   0.40167   0.00000  Uiso   1.00
H170   H     0.45119   0.06881   0.44792   0.00000  Uiso   1.00
H171   H     0.54365   0.23780   0.29132   0.00000  Uiso   1.00
H172   H     0.50119   0.27795   0.46979   0.00000  Uiso   1.00
H173   H     0.37307   0.93857   0.49279   0.00000  Uiso   1.00
H174   H     0.56805   0.29491   0.16260   0.00000  Uiso   1.00
H175   H     0.47850   0.37958   0.53893   0.00000  Uiso   1.00
O176   O     0.23205   0.89655   0.50128   0.00000  Uiso   1.00
O177   O     0.48785   0.36405   0.06808   0.00000  Uiso   1.00
O178   O     0.37038   0.47514   0.56182   0.00000  Uiso   1.00
N179   N     0.21072   0.01876   0.45429   0.00000  Uiso   1.00
N180   N     0.39301   0.35190   0.14558   0.00000  Uiso   1.00
N181   N     0.30931   0.43108   0.49740   0.00000  Uiso   1.00
N182   N     0.32887   0.97476   0.47693   0.00000  Uiso   1.00
N183   N     0.51116   0.30790   0.16822   0.00000  Uiso   1.00
N184   N     0.42745   0.38708   0.52004   0.00000  Uiso   1.00
C185   C     0.07017   0.39131   0.37732   0.00000  Uiso   1.00
C186   C     0.99446   0.40245   0.34642   0.00000  Uiso   1.00
C187   C     0.98418   0.38607   0.29425   0.00000  Uiso   1.00
C188   C     0.91043   0.40026   0.27315   0.00000  Uiso   1.00
C189   C     0.80217   0.41305   0.22061   0.00000  Uiso   1.00
C190   C     0.05411   0.34459   0.44091   0.00000  Uiso   1.00
C191   C     0.09399   0.27956   0.46818   0.00000  Uiso   1.00
C192   C     0.07046   0.24506   0.52662   0.00000  Uiso   1.00
C193   C     0.05486   0.16804   0.62079   0.00000  Uiso   1.00
C194   C     0.08470   0.46412   0.38254   0.00000  Uiso   1.00
C195   C     0.15032   0.49959   0.36076   0.00000  Uiso   1.00
C196   C     0.15256   0.56572   0.37007   0.00000  Uiso   1.00
C197   C     0.18445   0.67429   0.37361   0.00000  Uiso   1.00
C198   C     0.95747   0.44567   0.43262   0.00000  Uiso   1.00
C199   C     0.93324   0.43198   0.37646   0.00000  Uiso   1.00
C200   C     0.85949   0.44621   0.35542   0.00000  Uiso   1.00
C201   C     0.84910   0.42985   0.30323   0.00000  Uiso   1.00
C202   C     0.99290   0.37412   0.47094   0.00000  Uiso   1.00
C203   C     0.96931   0.33971   0.52936   0.00000  Uiso   1.00
C204   C     0.00914   0.27464   0.55671   0.00000  Uiso   1.00
C205   C     0.02349   0.49365   0.41257   0.00000  Uiso   1.00
C206   C     0.02563   0.55974   0.42193   0.00000  Uiso   1.00
C207   C     0.09124   0.59530   0.40016   0.00000  Uiso   1.00
H208   H     0.11782   0.36831   0.35395   0.00000  Uiso   1.00
H209   H     0.03156   0.36321   0.27102   0.00000  Uiso   1.00
H210   H     0.14137   0.25673   0.44493   0.00000  Uiso   1.00
H211   H     0.19768   0.47672   0.33752   0.00000  Uiso   1.00
H212   H     0.90893   0.37054   0.19235   0.00000  Uiso   1.00
H213   H     0.14047   0.14603   0.55905   0.00000  Uiso   1.00
H214   H     0.25922   0.60993   0.33254   0.00000  Uiso   1.00
H215   H     0.90981   0.46866   0.45600   0.00000  Uiso   1.00
H216   H     0.81213   0.46906   0.37868   0.00000  Uiso   1.00
H217   H     0.92193   0.36258   0.55259   0.00000  Uiso   1.00
H218   H     0.97825   0.58257   0.44517   0.00000  Uiso   1.00
H219   H     0.73083   0.45646   0.27972   0.00000  Uiso   1.00
H220   H     0.96237   0.23195   0.64643   0.00000  Uiso   1.00
H221   H     0.08112   0.69585   0.41992   0.00000  Uiso   1.00
O222   O     0.75937   0.41193   0.18334   0.00000  Uiso   1.00
O223   O     0.06315   0.11739   0.66444   0.00000  Uiso   1.00
O224   O     0.21895   0.72602   0.36727   0.00000  Uiso   1.00
N225   N     0.88042   0.39072   0.22351   0.00000  Uiso   1.00
N226   N     0.09689   0.18081   0.56636   0.00000  Uiso   1.00
N227   N     0.20792   0.61451   0.35461   0.00000  Uiso   1.00
N228   N     0.78458   0.43695   0.27053   0.00000  Uiso   1.00
N229   N     0.00105   0.22704   0.61337   0.00000  Uiso   1.00
N230   N     0.11209   0.66074   0.40162   0.00000  Uiso   1.00
C231   C     0.27829   0.54210   0.18125   0.00000  Uiso   1.00
C232   C     0.30705   0.59521   0.12388   0.00000  Uiso   1.00
C233   C     0.33081   0.57982   0.07090   0.00000  Uiso   1.00
C234   C     0.35508   0.63579   0.02349   0.00000  Uiso   1.00
C235   C     0.39963   0.70779   0.93356   0.00000  Uiso   1.00
C236   C     0.19841   0.57340   0.19710   0.00000  Uiso   1.00
C237   C     0.13083   0.53965   0.20570   0.00000  Uiso   1.00
C238   C     0.06366   0.57726   0.21993   0.00000  Uiso   1.00
C239   C     0.93955   0.61537   0.24373   0.00000  Uiso   1.00
C240   C     0.33001   0.54458   0.22962   0.00000  Uiso   1.00
C241   C     0.37306   0.48661   0.26558   0.00000  Uiso   1.00
C242   C     0.41666   0.49995   0.30720   0.00000  Uiso   1.00
C243   C     0.49687   0.49332   0.38150   0.00000  Uiso   1.00
C244   C     0.27917   0.66889   0.19125   0.00000  Uiso   1.00
C245   C     0.30752   0.66408   0.12931   0.00000  Uiso   1.00
C246   C     0.33177   0.72009   0.08196   0.00000  Uiso   1.00
C247   C     0.35556   0.70478   0.02892   0.00000  Uiso   1.00
C248   C     0.19889   0.64226   0.20253   0.00000  Uiso   1.00
C249   C     0.13180   0.67993   0.21675   0.00000  Uiso   1.00
C250   C     0.06413   0.64625   0.22537   0.00000  Uiso   1.00
C251   C     0.33048   0.61345   0.23505   0.00000  Uiso   1.00
C252   C     0.37402   0.62688   0.27663   0.00000  Uiso   1.00
C253   C     0.41713   0.56894   0.31264   0.00000  Uiso   1.00
H254   H     0.27792   0.48849   0.17703   0.00000  Uiso   1.00
H255   H     0.33042   0.52652   0.06672   0.00000  Uiso   1.00
H256   H     0.13048   0.48636   0.20150   0.00000  Uiso   1.00
H257   H     0.37267   0.43332   0.26137   0.00000  Uiso   1.00
H258   H     0.38882   0.59906   0.94681   0.00000  Uiso   1.00
H259   H     0.96724   0.51436   0.23102   0.00000  Uiso   1.00
H260   H     0.47794   0.40253   0.35727   0.00000  Uiso   1.00
H261   H     0.27953   0.72251   0.19547   0.00000  Uiso   1.00
H262   H     0.33213   0.77338   0.08617   0.00000  Uiso   1.00
H263   H     0.13219   0.73322   0.22095   0.00000  Uiso   1.00
H264   H     0.37438   0.68018   0.28082   0.00000  Uiso   1.00
H265   H     0.39020   0.79942   0.96260   0.00000  Uiso   1.00
H266   H     0.96862   0.71472   0.24681   0.00000  Uiso   1.00
H267   H     0.47932   0.60289   0.37306   0.00000  Uiso   1.00
O268   O     0.42405   0.72849   0.88246   0.00000  Uiso   1.00
O269   O     0.87096   0.61737   0.25535   0.00000  Uiso   1.00
O270   O     0.54099   0.47064   0.42098   0.00000  Uiso   1.00
N271   N     0.38194   0.63923   0.96553   0.00000  Uiso   1.00
N272   N     0.98778   0.56005   0.23124   0.00000  Uiso   1.00
N273   N     0.46523   0.45549   0.34928   0.00000  Uiso   1.00
N274   N     0.38268   0.74704   0.97402   0.00000  Uiso   1.00
N275   N     0.98853   0.66786   0.23974   0.00000  Uiso   1.00
N276   N     0.46598   0.56330   0.35778   0.00000  Uiso   1.00
C277   C     0.87429   0.17284   0.22621   0.00000  Uiso   1.00
C278   C     0.82824   0.19085   0.27867   0.00000  Uiso   1.00
C279   C     0.85599   0.22177   0.31782   0.00000  Uiso   1.00
C280   C     0.80476   0.23400   0.36291   0.00000  Uiso   1.00
C281   C     0.74485   0.26475   0.44349   0.00000  Uiso   1.00
C282   C     0.82926   0.21154   0.17115   0.00000  Uiso   1.00
C283   C     0.85788   0.25984   0.11989   0.00000  Uiso   1.00
C284   C     0.80751   0.28947   0.07446   0.00000  Uiso   1.00
C285   C     0.74920   0.35230   0.98809   0.00000  Uiso   1.00
C286   C     0.86918   0.09332   0.23598   0.00000  Uiso   1.00
C287   C     0.93137   0.04223   0.23921   0.00000  Uiso   1.00
C288   C     0.91461   0.97233   0.24835   0.00000  Uiso   1.00
C289   C     0.91828   0.85161   0.26263   0.00000  Uiso   1.00
C290   C     0.73395   0.13956   0.23667   0.00000  Uiso   1.00
C291   C     0.75201   0.17278   0.28435   0.00000  Uiso   1.00
C292   C     0.70072   0.18495   0.32939   0.00000  Uiso   1.00
C293   C     0.72840   0.21588   0.36860   0.00000  Uiso   1.00
C294   C     0.75304   0.19346   0.17683   0.00000  Uiso   1.00
C295   C     0.70261   0.22302   0.13146   0.00000  Uiso   1.00
C296   C     0.73115   0.27136   0.08015   0.00000  Uiso   1.00
C297   C     0.79295   0.07524   0.24166   0.00000  Uiso   1.00
C298   C     0.77609   0.00541   0.25079   0.00000  Uiso   1.00
C299   C     0.83824   0.95422   0.25404   0.00000  Uiso   1.00
H300   H     0.93363   0.18691   0.22179   0.00000  Uiso   1.00
H301   H     0.91499   0.23576   0.31341   0.00000  Uiso   1.00
H302   H     0.91688   0.27381   0.11551   0.00000  Uiso   1.00
H303   H     0.99035   0.05624   0.23482   0.00000  Uiso   1.00
H304   H     0.86069   0.28197   0.41748   0.00000  Uiso   1.00
H305   H     0.86468   0.36219   0.00019   0.00000  Uiso   1.00
H306   H     0.01961   0.90339   0.25177   0.00000  Uiso   1.00
H307   H     0.67460   0.12548   0.24109   0.00000  Uiso   1.00
H308   H     0.64174   0.17096   0.33378   0.00000  Uiso   1.00
H309   H     0.64363   0.20902   0.13587   0.00000  Uiso   1.00
H310   H     0.71710   0.99144   0.25518   0.00000  Uiso   1.00
H311   H     0.63891   0.22938   0.43401   0.00000  Uiso   1.00
H312   H     0.64291   0.30960   0.01671   0.00000  Uiso   1.00
H313   H     0.79783   0.85080   0.26830   0.00000  Uiso   1.00
O314   O     0.73286   0.28672   0.48636   0.00000  Uiso   1.00
O315   O     0.73810   0.39195   0.93888   0.00000  Uiso   1.00
O316   O     0.94136   0.79002   0.26895   0.00000  Uiso   1.00
N317   N     0.81301   0.26334   0.40866   0.00000  Uiso   1.00
N318   N     0.81674   0.33835   0.01852   0.00000  Uiso   1.00
N319   N     0.96159   0.90941   0.25371   0.00000  Uiso   1.00
N320   N     0.69367   0.23504   0.41755   0.00000  Uiso   1.00
N321   N     0.69740   0.31005   0.02741   0.00000  Uiso   1.00
N322   N     0.84225   0.88111   0.26260   0.00000  Uiso   1.00
C323   C     0.15505   0.06440   0.26365   0.00000  Uiso   1.00
C324   C     0.23987   0.04687   0.27784   0.00000  Uiso   1.00
C325   C     0.29267   0.09631   0.27321   0.00000  Uiso   1.00
C326   C     0.36755   0.06952   0.28827   0.00000  Uiso   1.00
C327   C     0.49601   0.05350   0.30743   0.00000  Uiso   1.00
C328   C     0.10927   0.02602   0.32006   0.00000  Uiso   1.00
C329   C     0.05226   0.05793   0.35093   0.00000  Uiso   1.00
C330   C     0.01719   0.01358   0.40153   0.00000  Uiso   1.00
C331   C     0.94286   0.96518   0.48622   0.00000  Uiso   1.00
C332   C     0.14279   0.02746   0.21703   0.00000  Uiso   1.00
C333   C     0.11394   0.06057   0.16127   0.00000  Uiso   1.00
C334   C     0.10707   0.01743   0.12512   0.00000  Uiso   1.00
C335   C     0.08478   0.97126   0.04984   0.00000  Uiso   1.00
C336   C     0.19413   0.92891   0.29861   0.00000  Uiso   1.00
C337   C     0.26109   0.97328   0.29683   0.00000  Uiso   1.00
C338   C     0.33591   0.94641   0.31189   0.00000  Uiso   1.00
C339   C     0.38881   0.99580   0.30729   0.00000  Uiso   1.00
C340   C     0.13050   0.95243   0.33905   0.00000  Uiso   1.00
C341   C     0.09550   0.90803   0.38961   0.00000  Uiso   1.00
C342   C     0.03845   0.93986   0.42055   0.00000  Uiso   1.00
C343   C     0.16401   0.95387   0.23601   0.00000  Uiso   1.00
C344   C     0.15718   0.91067   0.19995   0.00000  Uiso   1.00
C345   C     0.12833   0.94371   0.14414   0.00000  Uiso   1.00
H346   H     0.13852   0.12169   0.24887   0.00000  Uiso   1.00
H347   H     0.27622   0.15326   0.25852   0.00000  Uiso   1.00
H348   H     0.03585   0.11488   0.33622   0.00000  Uiso   1.00
H349   H     0.09752   0.11752   0.14659   0.00000  Uiso   1.00
H350   H     0.43824   0.15580   0.27761   0.00000  Uiso   1.00
H351   H     0.93138   0.07487   0.44144   0.00000  Uiso   1.00
H352   H     0.06142   0.08044   0.04156   0.00000  Uiso   1.00
H353   H     0.21065   0.87162   0.31340   0.00000  Uiso   1.00
H354   H     0.35232   0.88946   0.32658   0.00000  Uiso   1.00
H355   H     0.11193   0.85108   0.40429   0.00000  Uiso   1.00
H356   H     0.17361   0.85372   0.21466   0.00000  Uiso   1.00
H357   H     0.50000   0.94169   0.33286   0.00000  Uiso   1.00
H358   H     0.99313   0.86076   0.49668   0.00000  Uiso   1.00
H359   H     0.12318   0.86633   0.09681   0.00000  Uiso   1.00
O360   O     0.56101   0.06499   0.31276   0.00000  Uiso   1.00
O361   O     0.89600   0.95882   0.52769   0.00000  Uiso   1.00
O362   O     0.06663   0.96613   0.00306   0.00000  Uiso   1.00
N363   N     0.43334   0.10296   0.28879   0.00000  Uiso   1.00
N364   N     0.95946   0.02730   0.44197   0.00000  Uiso   1.00
N365   N     0.08102   0.03250   0.06812   0.00000  Uiso   1.00
N366   N     0.46657   0.98775   0.31852   0.00000  Uiso   1.00
N367   N     0.99269   0.91209   0.47169   0.00000  Uiso   1.00
N368   N     0.11425   0.91729   0.09785   0.00000  Uiso   1.00
C369   C     0.12879   0.20734   0.94733   0.00000  Uiso   1.00
C370   C     0.12663   0.26005   0.98371   0.00000  Uiso   1.00
C371   C     0.08440   0.25546   0.03722   0.00000  Uiso   1.00
C372   C     0.09018   0.30899   0.06356   0.00000  Uiso   1.00
C373   C     0.07981   0.38228   0.12407   0.00000  Uiso   1.00
C374   C     0.21356   0.18147   0.93986   0.00000  Uiso   1.00
C375   C     0.24440   0.11080   0.95650   0.00000  Uiso   1.00
C376   C     0.32334   0.09819   0.94591   0.00000  Uiso   1.00
C377   C     0.44791   0.04947   0.93830   0.00000  Uiso   1.00
C378   C     0.10468   0.25126   0.88525   0.00000  Uiso   1.00
C379   C     0.04399   0.23927   0.85597   0.00000  Uiso   1.00
C380   C     0.03128   0.28540   0.79940   0.00000  Uiso   1.00
C381   C     0.98680   0.34505   0.70700   0.00000  Uiso   1.00
C382   C     0.21414   0.31058   0.89893   0.00000  Uiso   1.00
C383   C     0.17300   0.31612   0.95742   0.00000  Uiso   1.00
C384   C     0.17884   0.36968   0.98368   0.00000  Uiso   1.00
C385   C     0.13662   0.36517   0.03723   0.00000  Uiso   1.00
C386   C     0.25992   0.23754   0.91357   0.00000  Uiso   1.00
C387   C     0.33883   0.22503   0.90296   0.00000  Uiso   1.00
C388   C     0.36979   0.15436   0.91958   0.00000  Uiso   1.00
C389   C     0.15104   0.30734   0.85897   0.00000  Uiso   1.00
C390   C     0.13842   0.35349   0.80243   0.00000  Uiso   1.00
C391   C     0.07772   0.34157   0.77307   0.00000  Uiso   1.00
H392   H     0.09270   0.16369   0.96779   0.00000  Uiso   1.00
H393   H     0.04854   0.21205   0.05756   0.00000  Uiso   1.00
H394   H     0.20851   0.06742   0.97683   0.00000  Uiso   1.00
H395   H     0.00813   0.19587   0.87632   0.00000  Uiso   1.00
H396   H     0.02004   0.29039   0.14550   0.00000  Uiso   1.00
H397   H     0.35734   0.98543   0.97527   0.00000  Uiso   1.00
H398   H     0.93480   0.25628   0.76332   0.00000  Uiso   1.00
H399   H     0.25024   0.35424   0.87847   0.00000  Uiso   1.00
H400   H     0.21472   0.41307   0.96333   0.00000  Uiso   1.00
H401   H     0.37469   0.26843   0.88261   0.00000  Uiso   1.00
H402   H     0.17431   0.39688   0.78210   0.00000  Uiso   1.00
H403   H     0.15492   0.45353   0.06902   0.00000  Uiso   1.00
H404   H     0.49222   0.14857   0.89880   0.00000  Uiso   1.00
H405   H     0.06968   0.41943   0.68685   0.00000  Uiso   1.00
O406   O     0.06130   0.40720   0.16471   0.00000  Uiso   1.00
O407   O     0.50381   0.00711   0.94137   0.00000  Uiso   1.00
O408   O     0.94945   0.36246   0.66330   0.00000  Uiso   1.00
N409   N     0.05665   0.32072   0.11585   0.00000  Uiso   1.00
N410   N     0.37201   0.03560   0.95671   0.00000  Uiso   1.00
N411   N     0.97698   0.28881   0.75855   0.00000  Uiso   1.00
N412   N     0.12923   0.40851   0.07470   0.00000  Uiso   1.00
N413   N     0.44458   0.12339   0.91556   0.00000  Uiso   1.00
N414   N     0.04956   0.37660   0.71740   0.00000  Uiso   1.00
C415   C     0.48811   0.77015   0.64945   0.00000  Uiso   1.00
C416   C     0.46513   0.84855   0.64465   0.00000  Uiso   1.00
C417   C     0.51362   0.89678   0.65115   0.00000  Uiso   1.00
C418   C     0.48156   0.96610   0.64515   0.00000  Uiso   1.00
C419   C     0.45770   0.08474   0.63956   0.00000  Uiso   1.00
C420   C     0.43334   0.72761   0.69758   0.00000  Uiso   1.00
C421   C     0.45509   0.67414   0.74858   0.00000  Uiso   1.00
C422   C     0.39627   0.64164   0.78713   0.00000  Uiso   1.00
C423   C     0.32305   0.57247   0.86369   0.00000  Uiso   1.00
C424   C     0.46776   0.75988   0.59090   0.00000  Uiso   1.00
C425   C     0.51844   0.73354   0.55220   0.00000  Uiso   1.00
C426   C     0.48859   0.72820   0.50094   0.00000  Uiso   1.00
C427   C     0.46881   0.70915   0.41186   0.00000  Uiso   1.00
C428   C     0.34496   0.80749   0.62723   0.00000  Uiso   1.00
C429   C     0.38738   0.86883   0.63259   0.00000  Uiso   1.00
C430   C     0.35524   0.93809   0.62657   0.00000  Uiso   1.00
C431   C     0.40367   0.98642   0.63306   0.00000  Uiso   1.00
C432   C     0.35558   0.74789   0.68552   0.00000  Uiso   1.00
C433   C     0.29671   0.71545   0.72400   0.00000  Uiso   1.00
C434   C     0.31837   0.66195   0.77504   0.00000  Uiso   1.00
C435   C     0.39000   0.78017   0.57883   0.00000  Uiso   1.00
C436   C     0.36006   0.77486   0.52762   0.00000  Uiso   1.00
C437   C     0.41069   0.74851   0.48885   0.00000  Uiso   1.00
H438   H     0.54865   0.75436   0.65885   0.00000  Uiso   1.00
H439   H     0.57379   0.88106   0.66050   0.00000  Uiso   1.00
H440   H     0.51527   0.65845   0.75790   0.00000  Uiso   1.00
H441   H     0.57861   0.71785   0.56156   0.00000  Uiso   1.00
H442   H     0.56737   0.03047   0.65702   0.00000  Uiso   1.00
H443   H     0.44398   0.56107   0.86240   0.00000  Uiso   1.00
H444   H     0.57755   0.68631   0.44836   0.00000  Uiso   1.00
H445   H     0.28442   0.82328   0.61784   0.00000  Uiso   1.00
H446   H     0.29506   0.95377   0.61723   0.00000  Uiso   1.00
H447   H     0.23654   0.73116   0.71464   0.00000  Uiso   1.00
H448   H     0.29988   0.79056   0.51829   0.00000  Uiso   1.00
H449   H     0.34114   0.08949   0.62191   0.00000  Uiso   1.00
H450   H     0.21775   0.62008   0.82728   0.00000  Uiso   1.00
H451   H     0.35132   0.74533   0.41325   0.00000  Uiso   1.00
O452   O     0.46602   0.14457   0.63982   0.00000  Uiso   1.00
O453   O     0.30414   0.52872   0.90926   0.00000  Uiso   1.00
O454   O     0.47938   0.69305   0.36606   0.00000  Uiso   1.00
N455   N     0.51267   0.02646   0.64883   0.00000  Uiso   1.00
N456   N     0.39731   0.58760   0.84085   0.00000  Uiso   1.00
N457   N     0.52218   0.70468   0.45377   0.00000  Uiso   1.00
N458   N     0.39094   0.05821   0.62993   0.00000  Uiso   1.00
N459   N     0.27558   0.61936   0.82195   0.00000  Uiso   1.00
N460   N     0.40045   0.73643   0.43487   0.00000  Uiso   1.00
C461   C     0.75284   0.67610   0.54198   0.00000  Uiso   1.00
C462   C     0.83404   0.65106   0.56340   0.00000  Uiso   1.00
C463   C     0.85215   0.60742   0.61977   0.00000  Uiso   1.00
C464   C     0.92992   0.59059   0.63062   0.00000  Uiso   1.00
C465   C     0.04726   0.54780   0.67059   0.00000  Uiso   1.00
C466   C     0.74858   0.75747   0.52078   0.00000  Uiso   1.00
C467   C     0.69483   0.80329   0.54130   0.00000  Uiso   1.00
C468   C     0.70066   0.87604   0.51627   0.00000  Uiso   1.00
C469   C     0.68529   0.99844   0.49003   0.00000  Uiso   1.00
C470   C     0.74846   0.65247   0.48627   0.00000  Uiso   1.00
C471   C     0.69460   0.61002   0.47777   0.00000  Uiso   1.00
C472   C     0.70031   0.59437   0.42367   0.00000  Uiso   1.00
C473   C     0.68475   0.55374   0.34385   0.00000  Uiso   1.00
C474   C     0.85874   0.72380   0.46102   0.00000  Uiso   1.00
C475   C     0.89157   0.67698   0.51943   0.00000  Uiso   1.00
C476   C     0.96933   0.66020   0.53020   0.00000  Uiso   1.00
C477   C     0.98755   0.61654   0.58657   0.00000  Uiso   1.00
C478   C     0.80610   0.78338   0.47681   0.00000  Uiso   1.00
C479   C     0.81201   0.85607   0.45174   0.00000  Uiso   1.00
C480   C     0.75829   0.90199   0.47222   0.00000  Uiso   1.00
C481   C     0.80599   0.67837   0.44230   0.00000  Uiso   1.00
C482   C     0.81178   0.66279   0.38820   0.00000  Uiso   1.00
C483   C     0.75794   0.62033   0.37962   0.00000  Uiso   1.00
H484   H     0.70805   0.65593   0.57621   0.00000  Uiso   1.00
H485   H     0.80762   0.58739   0.65379   0.00000  Uiso   1.00
H486   H     0.65032   0.78323   0.57533   0.00000  Uiso   1.00
H487   H     0.65009   0.58998   0.51180   0.00000  Uiso   1.00
H488   H     0.94338   0.52284   0.72041   0.00000  Uiso   1.00
H489   H     0.61169   0.93578   0.55496   0.00000  Uiso   1.00
H490   H     0.61120   0.52828   0.42101   0.00000  Uiso   1.00
H491   H     0.90353   0.74398   0.42679   0.00000  Uiso   1.00
H492   H     0.01383   0.68026   0.49617   0.00000  Uiso   1.00
H493   H     0.85653   0.87610   0.41771   0.00000  Uiso   1.00
H494   H     0.85630   0.68285   0.35418   0.00000  Uiso   1.00
H495   H     0.11075   0.59822   0.59248   0.00000  Uiso   1.00
H496   H     0.77905   0.01116   0.42703   0.00000  Uiso   1.00
H497   H     0.77857   0.60366   0.29308   0.00000  Uiso   1.00
O498   O     0.09609   0.51705   0.70479   0.00000  Uiso   1.00
O499   O     0.66092   0.05881   0.48771   0.00000  Uiso   1.00
O500   O     0.66029   0.52417   0.31198   0.00000  Uiso   1.00
N501   N     0.96763   0.54932   0.68078   0.00000  Uiso   1.00
N502   N     0.65753   0.93539   0.52610   0.00000  Uiso   1.00
N503   N     0.65706   0.55442   0.40086   0.00000  Uiso   1.00
N504   N     0.05769   0.58988   0.61194   0.00000  Uiso   1.00
N505   N     0.74759   0.97595   0.45726   0.00000  Uiso   1.00
N506   N     0.74712   0.59498   0.33202   0.00000  Uiso   1.00
C507   C     0.58464   0.51335   0.73937   0.00000  Uiso   1.00
C508   C     0.57456   0.50696   0.80578   0.00000  Uiso   1.00
C509   C     0.59915   0.55369   0.83303   0.00000  Uiso   1.00
C510   C     0.58447   0.53854   0.89430   0.00000  Uiso   1.00
C511   C     0.57461   0.53768   0.99243   0.00000  Uiso   1.00
C512   C     0.62764   0.44324   0.73498   0.00000  Uiso   1.00
C513   C     0.69687   0.43641   0.70270   0.00000  Uiso   1.00
C514   C     0.72687   0.36762   0.70436   0.00000  Uiso   1.00
C515   C     0.79940   0.26786   0.69254   0.00000  Uiso   1.00
C516   C     0.50390   0.51444   0.71871   0.00000  Uiso   1.00
C517   C     0.46908   0.56746   0.67274   0.00000  Uiso   1.00
C518   C     0.39491   0.55860   0.66069   0.00000  Uiso   1.00
C519   C     0.27531   0.56937   0.62361   0.00000  Uiso   1.00
C520   C     0.51484   0.40332   0.79972   0.00000  Uiso   1.00
C521   C     0.53665   0.44719   0.83855   0.00000  Uiso   1.00
C522   C     0.52192   0.43196   0.89980   0.00000  Uiso   1.00
C523   C     0.54649   0.47867   0.92713   0.00000  Uiso   1.00
C524   C     0.58974   0.38348   0.76776   0.00000  Uiso   1.00
C525   C     0.61964   0.31468   0.76946   0.00000  Uiso   1.00
C526   C     0.68889   0.30775   0.73720   0.00000  Uiso   1.00
C527   C     0.46599   0.45467   0.75149   0.00000  Uiso   1.00
C528   C     0.39186   0.44572   0.73951   0.00000  Uiso   1.00
C529   C     0.35693   0.49872   0.69353   0.00000  Uiso   1.00
H530   H     0.61416   0.55987   0.71385   0.00000  Uiso   1.00
H531   H     0.62849   0.59994   0.80765   0.00000  Uiso   1.00
H532   H     0.72619   0.48267   0.67734   0.00000  Uiso   1.00
H533   H     0.49844   0.61370   0.64738   0.00000  Uiso   1.00
H534   H     0.62769   0.61798   0.92610   0.00000  Uiso   1.00
H535   H     0.83367   0.37073   0.65131   0.00000  Uiso   1.00
H536   H     0.35342   0.64702   0.58815   0.00000  Uiso   1.00
H537   H     0.48533   0.35678   0.82523   0.00000  Uiso   1.00
H538   H     0.49258   0.38570   0.92515   0.00000  Uiso   1.00
H539   H     0.59028   0.26844   0.79483   0.00000  Uiso   1.00
H540   H     0.36254   0.39947   0.76488   0.00000  Uiso   1.00
H541   H     0.51738   0.44410   0.02147   0.00000  Uiso   1.00
H542   H     0.72336   0.19685   0.74667   0.00000  Uiso   1.00
H543   H     0.24312   0.47314   0.68351   0.00000  Uiso   1.00
O544   O     0.57966   0.55372   0.03750   0.00000  Uiso   1.00
O545   O     0.84989   0.22934   0.67697   0.00000  Uiso   1.00
O546   O     0.21982   0.59183   0.59411   0.00000  Uiso   1.00
N547   N     0.60071   0.57310   0.93483   0.00000  Uiso   1.00
N548   N     0.79330   0.34193   0.67792   0.00000  Uiso   1.00
N549   N     0.34432   0.60024   0.61886   0.00000  Uiso   1.00
N550   N     0.54136   0.47954   0.98615   0.00000  Uiso   1.00
N551   N     0.73395   0.24837   0.72924   0.00000  Uiso   1.00
N552   N     0.28497   0.50667   0.67018   0.00000  Uiso   1.00
