data_job_04581
_audit_creation_date              2018-12-19
_audit_creation_method            'Materials Studio'
_symmetry_space_group_name_H-M    'P1'
_symmetry_Int_Tables_number       1
_symmetry_cell_setting            triclinic
loop_
_symmetry_equiv_pos_as_xyz
  x,y,z
_cell_length_a                    11.9982
_cell_length_b                    16.0586
_cell_length_c                    25.7861
_cell_angle_alpha                 90.0000
_cell_angle_beta                  118.6563
_cell_angle_gamma                 90.0000
loop_
_atom_site_label
_atom_site_type_symbol
_atom_site_fract_x
_atom_site_fract_y
_atom_site_fract_z
_atom_site_U_iso_or_equiv
_atom_site_adp_type
_atom_site_occupancy
C1     C     0.41708   0.09483   0.67549   0.00000  Uiso   1.00
C2     C     0.29586   0.14468   0.65761   0.00000  Uiso   1.00
C3     C     0.27648   0.20179   0.69289   0.00000  Uiso   1.00
C4     C     0.15895   0.24090   0.66841   0.00000  Uiso   1.00
C5     C     0.98511   0.32092   0.64943   0.00000  Uiso   1.00
C6     C     0.37750   0.00348   0.66670   0.00000  Uiso   1.00
C7     C     0.42679   0.94188   0.70963   0.00000  Uiso   1.00
C8     C     0.37800   0.86212   0.69280   0.00000  Uiso   1.00
C9     C     0.33098   0.72292   0.68793   0.00000  Uiso   1.00
C10    C     0.45843   0.11433   0.62936   0.00000  Uiso   1.00
C11    C     0.57578   0.14590   0.64089   0.00000  Uiso   1.00
C12    C     0.59513   0.15944   0.59262   0.00000  Uiso   1.00
C13    C     0.67377   0.19234   0.52977   0.00000  Uiso   1.00
C14    C     0.24281   0.06273   0.56926   0.00000  Uiso   1.00
C15    C     0.20121   0.12724   0.59991   0.00000  Uiso   1.00
C16    C     0.08368   0.16628   0.57536   0.00000  Uiso   1.00
C17    C     0.06413   0.22343   0.61061   0.00000  Uiso   1.00
C18    C     0.28285   0.98605   0.60900   0.00000  Uiso   1.00
C19    C     0.23398   0.90636   0.59210   0.00000  Uiso   1.00
C20    C     0.28317   0.84465   0.63500   0.00000  Uiso   1.00
C21    C     0.36378   0.09689   0.57166   0.00000  Uiso   1.00
C22    C     0.38297   0.11038   0.52336   0.00000  Uiso   1.00
C23    C     0.50031   0.14197   0.53482   0.00000  Uiso   1.00
H24    H     0.49077   0.10840   0.72041   0.00000  Uiso   1.00
H25    H     0.34975   0.21526   0.73755   0.00000  Uiso   1.00
H26    H     0.50004   0.95539   0.75428   0.00000  Uiso   1.00
H27    H     0.64900   0.15938   0.68555   0.00000  Uiso   1.00
H28    H     0.15165   0.32602   0.73111   0.00000  Uiso   1.00
H29    H     0.46858   0.77806   0.76639   0.00000  Uiso   1.00
H30    H     0.78269   0.20821   0.62145   0.00000  Uiso   1.00
H31    H     0.16912   0.04916   0.52433   0.00000  Uiso   1.00
H32    H     0.01045   0.15277   0.53071   0.00000  Uiso   1.00
H33    H     0.16074   0.89289   0.54745   0.00000  Uiso   1.00
H34    H     0.30970   0.09689   0.47872   0.00000  Uiso   1.00
H35    H     0.87626   0.27530   0.56323   0.00000  Uiso   1.00
H36    H     0.19319   0.72733   0.59851   0.00000  Uiso   1.00
H37    H     0.50730   0.15749   0.45358   0.00000  Uiso   1.00
O38    O     0.91537   0.36987   0.65491   0.00000  Uiso   1.00
O39    O     0.33119   0.65096   0.70119   0.00000  Uiso   1.00
O40    O     0.74329   0.21532   0.51104   0.00000  Uiso   1.00
N41    N     0.10862   0.29988   0.69072   0.00000  Uiso   1.00
N42    N     0.40492   0.78757   0.72371   0.00000  Uiso   1.00
N43    N     0.69860   0.18970   0.58821   0.00000  Uiso   1.00
N44    N     0.96043   0.27258   0.60039   0.00000  Uiso   1.00
N45    N     0.25673   0.76027   0.63337   0.00000  Uiso   1.00
N46    N     0.55041   0.16241   0.49787   0.00000  Uiso   1.00
C47    C     0.92077   0.64751   0.65874   0.00000  Uiso   1.00
C48    C     0.00124   0.60125   0.63685   0.00000  Uiso   1.00
C49    C     0.08798   0.53853   0.66701   0.00000  Uiso   1.00
C50    C     0.15217   0.50405   0.63949   0.00000  Uiso   1.00
C51    C     0.28049   0.42808   0.61398   0.00000  Uiso   1.00
C52    C     0.95038   0.73972   0.65803   0.00000  Uiso   1.00
C53    C     0.99434   0.79344   0.70600   0.00000  Uiso   1.00
C54    C     0.01570   0.87554   0.69630   0.00000  Uiso   1.00
C55    C     0.06497   0.01457   0.70367   0.00000  Uiso   1.00
C56    C     0.78311   0.63605   0.61109   0.00000  Uiso   1.00
C57    C     0.68641   0.60261   0.61958   0.00000  Uiso   1.00
C58    C     0.56692   0.59743   0.57036   0.00000  Uiso   1.00
C59    C     0.35648   0.57549   0.50484   0.00000  Uiso   1.00
C60    C     0.88051   0.69781   0.55624   0.00000  Uiso   1.00
C61    C     0.97938   0.62857   0.58118   0.00000  Uiso   1.00
C62    C     0.04345   0.59418   0.55360   0.00000  Uiso   1.00
C63    C     0.13026   0.53142   0.58371   0.00000  Uiso   1.00
C64    C     0.92852   0.76704   0.60236   0.00000  Uiso   1.00
C65    C     0.94981   0.84908   0.59259   0.00000  Uiso   1.00
C66    C     0.99380   0.90291   0.64052   0.00000  Uiso   1.00
C67    C     0.76124   0.66336   0.55541   0.00000  Uiso   1.00
C68    C     0.64188   0.65825   0.50617   0.00000  Uiso   1.00
C69    C     0.54502   0.62480   0.51458   0.00000  Uiso   1.00
H70    H     0.93779   0.62625   0.70209   0.00000  Uiso   1.00
H71    H     0.10488   0.51741   0.71010   0.00000  Uiso   1.00
H72    H     0.01124   0.77228   0.74908   0.00000  Uiso   1.00
H73    H     0.70336   0.58147   0.66267   0.00000  Uiso   1.00
H74    H     0.28052   0.40881   0.69443   0.00000  Uiso   1.00
H75    H     0.08304   0.94622   0.77662   0.00000  Uiso   1.00
H76    H     0.43381   0.54387   0.59442   0.00000  Uiso   1.00
H77    H     0.86349   0.71908   0.51289   0.00000  Uiso   1.00
H78    H     0.02651   0.61533   0.51051   0.00000  Uiso   1.00
H79    H     0.93287   0.87020   0.54950   0.00000  Uiso   1.00
H80    H     0.62499   0.67940   0.46309   0.00000  Uiso   1.00
H81    H     0.21692   0.48829   0.53245   0.00000  Uiso   1.00
H82    H     0.01943   0.02570   0.61463   0.00000  Uiso   1.00
H83    H     0.37021   0.62335   0.43243   0.00000  Uiso   1.00
O84    O     0.35733   0.37864   0.61530   0.00000  Uiso   1.00
O85    O     0.09821   0.08371   0.72312   0.00000  Uiso   1.00
O86    O     0.24645   0.55583   0.48408   0.00000  Uiso   1.00
N87    N     0.24316   0.44174   0.65663   0.00000  Uiso   1.00
N88    N     0.05855   0.94419   0.73347   0.00000  Uiso   1.00
N89    N     0.45157   0.56805   0.56313   0.00000  Uiso   1.00
N90    N     0.20894   0.48451   0.56947   0.00000  Uiso   1.00
N91    N     0.02432   0.98695   0.64631   0.00000  Uiso   1.00
N92    N     0.41734   0.61081   0.47597   0.00000  Uiso   1.00
C93    C     0.58292   0.59483   0.82451   0.00000  Uiso   1.00
C94    C     0.70414   0.64468   0.84239   0.00000  Uiso   1.00
C95    C     0.72352   0.70179   0.80711   0.00000  Uiso   1.00
C96    C     0.84105   0.74090   0.83159   0.00000  Uiso   1.00
C97    C     0.01489   0.82092   0.85057   0.00000  Uiso   1.00
C98    C     0.62250   0.50348   0.83330   0.00000  Uiso   1.00
C99    C     0.57321   0.44188   0.79037   0.00000  Uiso   1.00
C100   C     0.62200   0.36212   0.80720   0.00000  Uiso   1.00
C101   C     0.66902   0.22292   0.81207   0.00000  Uiso   1.00
C102   C     0.54157   0.61433   0.87064   0.00000  Uiso   1.00
C103   C     0.42422   0.64590   0.85911   0.00000  Uiso   1.00
C104   C     0.40487   0.65944   0.90738   0.00000  Uiso   1.00
C105   C     0.32623   0.69234   0.97023   0.00000  Uiso   1.00
C106   C     0.75719   0.56273   0.93074   0.00000  Uiso   1.00
C107   C     0.79879   0.62724   0.90009   0.00000  Uiso   1.00
C108   C     0.91632   0.66628   0.92464   0.00000  Uiso   1.00
C109   C     0.93587   0.72343   0.88939   0.00000  Uiso   1.00
C110   C     0.71715   0.48605   0.89100   0.00000  Uiso   1.00
C111   C     0.76602   0.40636   0.90790   0.00000  Uiso   1.00
C112   C     0.71683   0.34465   0.86500   0.00000  Uiso   1.00
C113   C     0.63622   0.59689   0.92834   0.00000  Uiso   1.00
C114   C     0.61703   0.61038   0.97664   0.00000  Uiso   1.00
C115   C     0.49969   0.64197   0.96518   0.00000  Uiso   1.00
H116   H     0.50923   0.60840   0.77959   0.00000  Uiso   1.00
H117   H     0.65025   0.71526   0.76245   0.00000  Uiso   1.00
H118   H     0.49996   0.45539   0.74572   0.00000  Uiso   1.00
H119   H     0.35100   0.65938   0.81445   0.00000  Uiso   1.00
H120   H     0.84835   0.82602   0.76889   0.00000  Uiso   1.00
H121   H     0.53142   0.27806   0.73361   0.00000  Uiso   1.00
H122   H     0.21731   0.70821   0.87855   0.00000  Uiso   1.00
H123   H     0.83088   0.54916   0.97567   0.00000  Uiso   1.00
H124   H     0.98955   0.65277   0.96929   0.00000  Uiso   1.00
H125   H     0.83926   0.39289   0.95255   0.00000  Uiso   1.00
H126   H     0.69030   0.59689   0.02128   0.00000  Uiso   1.00
H127   H     0.12374   0.77530   0.93677   0.00000  Uiso   1.00
H128   H     0.80681   0.22733   0.90149   0.00000  Uiso   1.00
H129   H     0.49270   0.65749   0.04642   0.00000  Uiso   1.00
O130   O     0.08463   0.86987   0.84509   0.00000  Uiso   1.00
O131   O     0.66881   0.15096   0.79881   0.00000  Uiso   1.00
O132   O     0.25671   0.71532   0.98896   0.00000  Uiso   1.00
N133   N     0.89138   0.79988   0.80928   0.00000  Uiso   1.00
N134   N     0.59508   0.28757   0.77629   0.00000  Uiso   1.00
N135   N     0.30140   0.68970   0.91179   0.00000  Uiso   1.00
N136   N     0.03957   0.77258   0.89961   0.00000  Uiso   1.00
N137   N     0.74327   0.26027   0.86663   0.00000  Uiso   1.00
N138   N     0.44959   0.66241   0.00213   0.00000  Uiso   1.00
C139   C     0.07923   0.14751   0.84126   0.00000  Uiso   1.00
C140   C     0.99876   0.10125   0.86315   0.00000  Uiso   1.00
C141   C     0.91202   0.03853   0.83299   0.00000  Uiso   1.00
C142   C     0.84783   0.00405   0.86051   0.00000  Uiso   1.00
C143   C     0.71951   0.92808   0.88602   0.00000  Uiso   1.00
C144   C     0.04962   0.23972   0.84197   0.00000  Uiso   1.00
C145   C     0.00566   0.29344   0.79400   0.00000  Uiso   1.00
C146   C     0.98430   0.37554   0.80370   0.00000  Uiso   1.00
C147   C     0.93503   0.51457   0.79633   0.00000  Uiso   1.00
C148   C     0.21689   0.13605   0.88891   0.00000  Uiso   1.00
C149   C     0.31359   0.10261   0.88042   0.00000  Uiso   1.00
C150   C     0.43308   0.09743   0.92964   0.00000  Uiso   1.00
C151   C     0.64352   0.07549   0.99516   0.00000  Uiso   1.00
C152   C     0.11949   0.19781   0.94376   0.00000  Uiso   1.00
C153   C     0.02062   0.12857   0.91882   0.00000  Uiso   1.00
C154   C     0.95655   0.09418   0.94640   0.00000  Uiso   1.00
C155   C     0.86974   0.03142   0.91629   0.00000  Uiso   1.00
C156   C     0.07148   0.26704   0.89764   0.00000  Uiso   1.00
C157   C     0.05019   0.34908   0.90741   0.00000  Uiso   1.00
C158   C     0.00620   0.40291   0.85948   0.00000  Uiso   1.00
C159   C     0.23876   0.16336   0.94459   0.00000  Uiso   1.00
C160   C     0.35812   0.15825   0.99383   0.00000  Uiso   1.00
C161   C     0.45498   0.12480   0.98542   0.00000  Uiso   1.00
H162   H     0.06221   0.12625   0.79791   0.00000  Uiso   1.00
H163   H     0.89512   0.01741   0.78990   0.00000  Uiso   1.00
H164   H     0.98876   0.27228   0.75092   0.00000  Uiso   1.00
H165   H     0.29664   0.08147   0.83733   0.00000  Uiso   1.00
H166   H     0.71948   0.90881   0.80557   0.00000  Uiso   1.00
H167   H     0.91696   0.44622   0.72338   0.00000  Uiso   1.00
H168   H     0.56619   0.04387   0.90558   0.00000  Uiso   1.00
H169   H     0.13651   0.21908   0.98711   0.00000  Uiso   1.00
H170   H     0.97349   0.11533   0.98949   0.00000  Uiso   1.00
H171   H     0.06713   0.37020   0.95050   0.00000  Uiso   1.00
H172   H     0.37501   0.17940   0.03691   0.00000  Uiso   1.00
H173   H     0.78308   0.98829   0.96755   0.00000  Uiso   1.00
H174   H     0.98057   0.52570   0.88537   0.00000  Uiso   1.00
H175   H     0.62979   0.12335   0.06757   0.00000  Uiso   1.00
O176   O     0.64267   0.87864   0.88470   0.00000  Uiso   1.00
O177   O     0.90179   0.58371   0.77688   0.00000  Uiso   1.00
O178   O     0.75355   0.05583   0.01592   0.00000  Uiso   1.00
N179   N     0.75684   0.94174   0.84337   0.00000  Uiso   1.00
N180   N     0.94145   0.44419   0.76653   0.00000  Uiso   1.00
N181   N     0.54843   0.06805   0.93687   0.00000  Uiso   1.00
N182   N     0.79106   0.98451   0.93053   0.00000  Uiso   1.00
N183   N     0.97568   0.48695   0.85369   0.00000  Uiso   1.00
N184   N     0.58266   0.11081   0.02403   0.00000  Uiso   1.00
C185   C     0.58292   0.90517   0.32451   0.00000  Uiso   1.00
C186   C     0.70414   0.85532   0.34239   0.00000  Uiso   1.00
C187   C     0.72352   0.79821   0.30711   0.00000  Uiso   1.00
C188   C     0.84105   0.75910   0.33159   0.00000  Uiso   1.00
C189   C     0.01489   0.67908   0.35057   0.00000  Uiso   1.00
C190   C     0.62250   0.99652   0.33330   0.00000  Uiso   1.00
C191   C     0.57321   0.05812   0.29037   0.00000  Uiso   1.00
C192   C     0.62200   0.13788   0.30720   0.00000  Uiso   1.00
C193   C     0.66902   0.27708   0.31207   0.00000  Uiso   1.00
C194   C     0.54157   0.88567   0.37064   0.00000  Uiso   1.00
C195   C     0.42422   0.85410   0.35911   0.00000  Uiso   1.00
C196   C     0.40487   0.84056   0.40738   0.00000  Uiso   1.00
C197   C     0.32623   0.80766   0.47023   0.00000  Uiso   1.00
C198   C     0.75719   0.93727   0.43074   0.00000  Uiso   1.00
C199   C     0.79879   0.87276   0.40009   0.00000  Uiso   1.00
C200   C     0.91632   0.83372   0.42464   0.00000  Uiso   1.00
C201   C     0.93587   0.77657   0.38939   0.00000  Uiso   1.00
C202   C     0.71715   0.01395   0.39100   0.00000  Uiso   1.00
C203   C     0.76602   0.09364   0.40790   0.00000  Uiso   1.00
C204   C     0.71683   0.15535   0.36500   0.00000  Uiso   1.00
C205   C     0.63622   0.90311   0.42834   0.00000  Uiso   1.00
C206   C     0.61703   0.88962   0.47664   0.00000  Uiso   1.00
C207   C     0.49969   0.85803   0.46518   0.00000  Uiso   1.00
H208   H     0.50923   0.89160   0.27959   0.00000  Uiso   1.00
H209   H     0.65025   0.78474   0.26245   0.00000  Uiso   1.00
H210   H     0.49996   0.04461   0.24572   0.00000  Uiso   1.00
H211   H     0.35100   0.84062   0.31445   0.00000  Uiso   1.00
H212   H     0.84835   0.67398   0.26889   0.00000  Uiso   1.00
H213   H     0.53142   0.22194   0.23361   0.00000  Uiso   1.00
H214   H     0.21731   0.79179   0.37855   0.00000  Uiso   1.00
H215   H     0.83088   0.95084   0.47567   0.00000  Uiso   1.00
H216   H     0.98955   0.84723   0.46929   0.00000  Uiso   1.00
H217   H     0.83926   0.10711   0.45255   0.00000  Uiso   1.00
H218   H     0.69030   0.90311   0.52128   0.00000  Uiso   1.00
H219   H     0.12374   0.72470   0.43677   0.00000  Uiso   1.00
H220   H     0.80681   0.27267   0.40149   0.00000  Uiso   1.00
H221   H     0.49270   0.84251   0.54642   0.00000  Uiso   1.00
O222   O     0.08463   0.63013   0.34509   0.00000  Uiso   1.00
O223   O     0.66881   0.34904   0.29881   0.00000  Uiso   1.00
O224   O     0.25671   0.78468   0.48896   0.00000  Uiso   1.00
N225   N     0.89138   0.70012   0.30928   0.00000  Uiso   1.00
N226   N     0.59508   0.21243   0.27629   0.00000  Uiso   1.00
N227   N     0.30140   0.81030   0.41179   0.00000  Uiso   1.00
N228   N     0.03957   0.72742   0.39961   0.00000  Uiso   1.00
N229   N     0.74327   0.23973   0.36663   0.00000  Uiso   1.00
N230   N     0.44959   0.83759   0.50213   0.00000  Uiso   1.00
C231   C     0.07923   0.35249   0.34126   0.00000  Uiso   1.00
C232   C     0.99876   0.39875   0.36315   0.00000  Uiso   1.00
C233   C     0.91202   0.46147   0.33299   0.00000  Uiso   1.00
C234   C     0.84783   0.49595   0.36051   0.00000  Uiso   1.00
C235   C     0.71951   0.57192   0.38602   0.00000  Uiso   1.00
C236   C     0.04962   0.26028   0.34197   0.00000  Uiso   1.00
C237   C     0.00566   0.20656   0.29400   0.00000  Uiso   1.00
C238   C     0.98430   0.12446   0.30370   0.00000  Uiso   1.00
C239   C     0.93503   0.98543   0.29633   0.00000  Uiso   1.00
C240   C     0.21689   0.36395   0.38891   0.00000  Uiso   1.00
C241   C     0.31359   0.39739   0.38042   0.00000  Uiso   1.00
C242   C     0.43308   0.40257   0.42964   0.00000  Uiso   1.00
C243   C     0.64352   0.42451   0.49516   0.00000  Uiso   1.00
C244   C     0.11949   0.30219   0.44376   0.00000  Uiso   1.00
C245   C     0.02062   0.37143   0.41882   0.00000  Uiso   1.00
C246   C     0.95655   0.40582   0.44640   0.00000  Uiso   1.00
C247   C     0.86974   0.46858   0.41629   0.00000  Uiso   1.00
C248   C     0.07148   0.23296   0.39764   0.00000  Uiso   1.00
C249   C     0.05019   0.15092   0.40741   0.00000  Uiso   1.00
C250   C     0.00620   0.09709   0.35948   0.00000  Uiso   1.00
C251   C     0.23876   0.33664   0.44459   0.00000  Uiso   1.00
C252   C     0.35812   0.34175   0.49383   0.00000  Uiso   1.00
C253   C     0.45498   0.37520   0.48542   0.00000  Uiso   1.00
H254   H     0.06221   0.37375   0.29791   0.00000  Uiso   1.00
H255   H     0.89512   0.48259   0.28990   0.00000  Uiso   1.00
H256   H     0.98876   0.22772   0.25092   0.00000  Uiso   1.00
H257   H     0.29664   0.41853   0.33733   0.00000  Uiso   1.00
H258   H     0.71948   0.59119   0.30557   0.00000  Uiso   1.00
H259   H     0.91696   0.05378   0.22338   0.00000  Uiso   1.00
H260   H     0.56619   0.45613   0.40558   0.00000  Uiso   1.00
H261   H     0.13651   0.28092   0.48711   0.00000  Uiso   1.00
H262   H     0.97349   0.38467   0.48949   0.00000  Uiso   1.00
H263   H     0.06713   0.12980   0.45050   0.00000  Uiso   1.00
H264   H     0.37501   0.32060   0.53691   0.00000  Uiso   1.00
H265   H     0.78308   0.51171   0.46755   0.00000  Uiso   1.00
H266   H     0.98057   0.97430   0.38537   0.00000  Uiso   1.00
H267   H     0.62979   0.37665   0.56757   0.00000  Uiso   1.00
O268   O     0.64267   0.62136   0.38470   0.00000  Uiso   1.00
O269   O     0.90179   0.91629   0.27688   0.00000  Uiso   1.00
O270   O     0.75355   0.44417   0.51592   0.00000  Uiso   1.00
N271   N     0.75684   0.55826   0.34337   0.00000  Uiso   1.00
N272   N     0.94145   0.05581   0.26653   0.00000  Uiso   1.00
N273   N     0.54843   0.43195   0.43687   0.00000  Uiso   1.00
N274   N     0.79106   0.51549   0.43053   0.00000  Uiso   1.00
N275   N     0.97568   0.01305   0.35369   0.00000  Uiso   1.00
N276   N     0.58266   0.38919   0.52403   0.00000  Uiso   1.00
C277   C     0.41708   0.40517   0.17549   0.00000  Uiso   1.00
C278   C     0.29586   0.35532   0.15761   0.00000  Uiso   1.00
C279   C     0.27648   0.29821   0.19289   0.00000  Uiso   1.00
C280   C     0.15895   0.25910   0.16841   0.00000  Uiso   1.00
C281   C     0.98511   0.17908   0.14943   0.00000  Uiso   1.00
C282   C     0.37750   0.49652   0.16670   0.00000  Uiso   1.00
C283   C     0.42679   0.55812   0.20963   0.00000  Uiso   1.00
C284   C     0.37800   0.63788   0.19280   0.00000  Uiso   1.00
C285   C     0.33098   0.77708   0.18793   0.00000  Uiso   1.00
C286   C     0.45843   0.38567   0.12936   0.00000  Uiso   1.00
C287   C     0.57578   0.35410   0.14089   0.00000  Uiso   1.00
C288   C     0.59513   0.34056   0.09262   0.00000  Uiso   1.00
C289   C     0.67377   0.30766   0.02977   0.00000  Uiso   1.00
C290   C     0.24281   0.43727   0.06926   0.00000  Uiso   1.00
C291   C     0.20121   0.37276   0.09991   0.00000  Uiso   1.00
C292   C     0.08368   0.33372   0.07536   0.00000  Uiso   1.00
C293   C     0.06413   0.27657   0.11061   0.00000  Uiso   1.00
C294   C     0.28285   0.51395   0.10900   0.00000  Uiso   1.00
C295   C     0.23398   0.59364   0.09210   0.00000  Uiso   1.00
C296   C     0.28317   0.65535   0.13500   0.00000  Uiso   1.00
C297   C     0.36378   0.40311   0.07166   0.00000  Uiso   1.00
C298   C     0.38297   0.38962   0.02336   0.00000  Uiso   1.00
C299   C     0.50031   0.35803   0.03482   0.00000  Uiso   1.00
H300   H     0.49077   0.39160   0.22041   0.00000  Uiso   1.00
H301   H     0.34975   0.28474   0.23755   0.00000  Uiso   1.00
H302   H     0.50004   0.54461   0.25428   0.00000  Uiso   1.00
H303   H     0.64900   0.34062   0.18555   0.00000  Uiso   1.00
H304   H     0.15165   0.17398   0.23111   0.00000  Uiso   1.00
H305   H     0.46858   0.72194   0.26639   0.00000  Uiso   1.00
H306   H     0.78269   0.29179   0.12145   0.00000  Uiso   1.00
H307   H     0.16912   0.45084   0.02433   0.00000  Uiso   1.00
H308   H     0.01045   0.34723   0.03071   0.00000  Uiso   1.00
H309   H     0.16074   0.60711   0.04745   0.00000  Uiso   1.00
H310   H     0.30970   0.40311   0.97872   0.00000  Uiso   1.00
H311   H     0.87626   0.22470   0.06323   0.00000  Uiso   1.00
H312   H     0.19319   0.77267   0.09851   0.00000  Uiso   1.00
H313   H     0.50730   0.34251   0.95358   0.00000  Uiso   1.00
O314   O     0.91537   0.13013   0.15491   0.00000  Uiso   1.00
O315   O     0.33119   0.84904   0.20119   0.00000  Uiso   1.00
O316   O     0.74329   0.28468   0.01104   0.00000  Uiso   1.00
N317   N     0.10862   0.20012   0.19072   0.00000  Uiso   1.00
N318   N     0.40492   0.71243   0.22371   0.00000  Uiso   1.00
N319   N     0.69860   0.31030   0.08821   0.00000  Uiso   1.00
N320   N     0.96043   0.22742   0.10039   0.00000  Uiso   1.00
N321   N     0.25673   0.73973   0.13337   0.00000  Uiso   1.00
N322   N     0.55041   0.33759   0.99787   0.00000  Uiso   1.00
C323   C     0.92077   0.85249   0.15874   0.00000  Uiso   1.00
C324   C     0.00124   0.89875   0.13685   0.00000  Uiso   1.00
C325   C     0.08798   0.96147   0.16701   0.00000  Uiso   1.00
C326   C     0.15217   0.99595   0.13949   0.00000  Uiso   1.00
C327   C     0.28049   0.07192   0.11398   0.00000  Uiso   1.00
C328   C     0.95038   0.76028   0.15803   0.00000  Uiso   1.00
C329   C     0.99434   0.70656   0.20600   0.00000  Uiso   1.00
C330   C     0.01570   0.62446   0.19630   0.00000  Uiso   1.00
C331   C     0.06497   0.48543   0.20367   0.00000  Uiso   1.00
C332   C     0.78311   0.86395   0.11109   0.00000  Uiso   1.00
C333   C     0.68641   0.89739   0.11958   0.00000  Uiso   1.00
C334   C     0.56692   0.90257   0.07036   0.00000  Uiso   1.00
C335   C     0.35648   0.92451   0.00484   0.00000  Uiso   1.00
C336   C     0.88051   0.80219   0.05624   0.00000  Uiso   1.00
C337   C     0.97938   0.87143   0.08118   0.00000  Uiso   1.00
C338   C     0.04345   0.90582   0.05360   0.00000  Uiso   1.00
C339   C     0.13026   0.96858   0.08371   0.00000  Uiso   1.00
C340   C     0.92852   0.73296   0.10236   0.00000  Uiso   1.00
C341   C     0.94981   0.65092   0.09259   0.00000  Uiso   1.00
C342   C     0.99380   0.59709   0.14052   0.00000  Uiso   1.00
C343   C     0.76124   0.83664   0.05541   0.00000  Uiso   1.00
C344   C     0.64188   0.84175   0.00617   0.00000  Uiso   1.00
C345   C     0.54502   0.87520   0.01458   0.00000  Uiso   1.00
H346   H     0.93779   0.87375   0.20209   0.00000  Uiso   1.00
H347   H     0.10488   0.98259   0.21010   0.00000  Uiso   1.00
H348   H     0.01124   0.72772   0.24908   0.00000  Uiso   1.00
H349   H     0.70336   0.91853   0.16267   0.00000  Uiso   1.00
H350   H     0.28052   0.09119   0.19443   0.00000  Uiso   1.00
H351   H     0.08304   0.55378   0.27662   0.00000  Uiso   1.00
H352   H     0.43381   0.95613   0.09442   0.00000  Uiso   1.00
H353   H     0.86349   0.78092   0.01289   0.00000  Uiso   1.00
H354   H     0.02651   0.88467   0.01051   0.00000  Uiso   1.00
H355   H     0.93287   0.62980   0.04950   0.00000  Uiso   1.00
H356   H     0.62499   0.82060   0.96309   0.00000  Uiso   1.00
H357   H     0.21692   0.01171   0.03245   0.00000  Uiso   1.00
H358   H     0.01943   0.47430   0.11463   0.00000  Uiso   1.00
H359   H     0.37021   0.87665   0.93243   0.00000  Uiso   1.00
O360   O     0.35733   0.12136   0.11530   0.00000  Uiso   1.00
O361   O     0.09821   0.41629   0.22312   0.00000  Uiso   1.00
O362   O     0.24645   0.94417   0.98408   0.00000  Uiso   1.00
N363   N     0.24316   0.05826   0.15663   0.00000  Uiso   1.00
N364   N     0.05855   0.55581   0.23347   0.00000  Uiso   1.00
N365   N     0.45157   0.93195   0.06313   0.00000  Uiso   1.00
N366   N     0.20894   0.01549   0.06947   0.00000  Uiso   1.00
N367   N     0.02432   0.51305   0.14631   0.00000  Uiso   1.00
N368   N     0.41734   0.88919   0.97597   0.00000  Uiso   1.00
