data_job_06662
_audit_creation_date              2018-12-19
_audit_creation_method            'Materials Studio'
_symmetry_space_group_name_H-M    'P1'
_symmetry_Int_Tables_number       1
_symmetry_cell_setting            triclinic
loop_
_symmetry_equiv_pos_as_xyz
  x,y,z
_cell_length_a                    16.0621
_cell_length_b                    24.2637
_cell_length_c                    24.3155
_cell_angle_alpha                 114.3480
_cell_angle_beta                  103.9184
_cell_angle_gamma                 100.9406
loop_
_atom_site_label
_atom_site_type_symbol
_atom_site_fract_x
_atom_site_fract_y
_atom_site_fract_z
_atom_site_U_iso_or_equiv
_atom_site_adp_type
_atom_site_occupancy
C1     C     0.77333   0.23963   0.93627   0.00000  Uiso   1.00
C2     C     0.82284   0.31071   0.98291   0.00000  Uiso   1.00
C3     C     0.91286   0.34316   0.99761   0.00000  Uiso   1.00
C4     C     0.94547   0.40811   0.04148   0.00000  Uiso   1.00
C5     C     0.03079   0.51371   0.10965   0.00000  Uiso   1.00
C6     C     0.73647   0.21188   0.97492   0.00000  Uiso   1.00
C7     C     0.75387   0.16125   0.98290   0.00000  Uiso   1.00
C8     C     0.71375   0.14301   0.02004   0.00000  Uiso   1.00
C9     C     0.66492   0.09515   0.07577   0.00000  Uiso   1.00
C10    C     0.69067   0.23580   0.88646   0.00000  Uiso   1.00
C11    C     0.66956   0.20525   0.82005   0.00000  Uiso   1.00
C12    C     0.59087   0.20713   0.78270   0.00000  Uiso   1.00
C13    C     0.47095   0.19640   0.70107   0.00000  Uiso   1.00
C14    C     0.67114   0.29727   0.98803   0.00000  Uiso   1.00
C15    C     0.76733   0.34201   0.01102   0.00000  Uiso   1.00
C16    C     0.79980   0.40693   0.05488   0.00000  Uiso   1.00
C17    C     0.88986   0.43948   0.06965   0.00000  Uiso   1.00
C18    C     0.68096   0.24319   0.00304   0.00000  Uiso   1.00
C19    C     0.64080   0.22501   0.04017   0.00000  Uiso   1.00
C20    C     0.65814   0.17437   0.04821   0.00000  Uiso   1.00
C21    C     0.63517   0.26710   0.91457   0.00000  Uiso   1.00
C22    C     0.55650   0.26902   0.87732   0.00000  Uiso   1.00
C23    C     0.53527   0.23849   0.81086   0.00000  Uiso   1.00
H24    H     0.81655   0.21526   0.91439   0.00000  Uiso   1.00
H25    H     0.95580   0.31892   0.97585   0.00000  Uiso   1.00
H26    H     0.79682   0.13703   0.96114   0.00000  Uiso   1.00
H27    H     0.71252   0.18103   0.79831   0.00000  Uiso   1.00
H28    H     0.08572   0.44765   0.05641   0.00000  Uiso   1.00
H29    H     0.75047   0.06411   0.02537   0.00000  Uiso   1.00
H30    H     0.57272   0.15690   0.68201   0.00000  Uiso   1.00
H31    H     0.62793   0.32164   0.00992   0.00000  Uiso   1.00
H32    H     0.75683   0.43114   0.07663   0.00000  Uiso   1.00
H33    H     0.59785   0.24925   0.06191   0.00000  Uiso   1.00
H34    H     0.51356   0.29325   0.89909   0.00000  Uiso   1.00
H35    H     0.92423   0.53873   0.13821   0.00000  Uiso   1.00
H36    H     0.58898   0.15519   0.10716   0.00000  Uiso   1.00
H37    H     0.41123   0.24798   0.76381   0.00000  Uiso   1.00
O38    O     0.09319   0.56330   0.13949   0.00000  Uiso   1.00
O39    O     0.65334   0.06010   0.09875   0.00000  Uiso   1.00
O40    O     0.42014   0.18184   0.64828   0.00000  Uiso   1.00
N41    N     0.03002   0.45406   0.06650   0.00000  Uiso   1.00
N42    N     0.71659   0.09548   0.03748   0.00000  Uiso   1.00
N43    N     0.55040   0.18221   0.71647   0.00000  Uiso   1.00
N44    N     0.94312   0.50307   0.11051   0.00000  Uiso   1.00
N45    N     0.62970   0.14449   0.08150   0.00000  Uiso   1.00
N46    N     0.46350   0.23123   0.76049   0.00000  Uiso   1.00
C47    C     0.89185   0.04051   0.36308   0.00000  Uiso   1.00
C48    C     0.88764   0.99141   0.38707   0.00000  Uiso   1.00
C49    C     0.96118   0.97674   0.41381   0.00000  Uiso   1.00
C50    C     0.94319   0.93041   0.43277   0.00000  Uiso   1.00
C51    C     0.95010   0.85879   0.47113   0.00000  Uiso   1.00
C52    C     0.82777   0.00447   0.29278   0.00000  Uiso   1.00
C53    C     0.85098   0.00078   0.24025   0.00000  Uiso   1.00
C54    C     0.78258   0.96545   0.17983   0.00000  Uiso   1.00
C55    C     0.69652   0.91414   0.07182   0.00000  Uiso   1.00
C56    C     0.84861   0.08714   0.39987   0.00000  Uiso   1.00
C57    C     0.88933   0.15297   0.43736   0.00000  Uiso   1.00
C58    C     0.83846   0.18725   0.46709   0.00000  Uiso   1.00
C59    C     0.78477   0.26431   0.52535   0.00000  Uiso   1.00
C60    C     0.72912   0.98433   0.34920   0.00000  Uiso   1.00
C61    C     0.79925   0.96090   0.37953   0.00000  Uiso   1.00
C62    C     0.78114   0.91458   0.39845   0.00000  Uiso   1.00
C63    C     0.85464   0.89984   0.42521   0.00000  Uiso   1.00
C64    C     0.73939   0.97395   0.28524   0.00000  Uiso   1.00
C65    C     0.67093   0.93862   0.22488   0.00000  Uiso   1.00
C66    C     0.69403   0.93487   0.17227   0.00000  Uiso   1.00
C67    C     0.76022   0.05663   0.39233   0.00000  Uiso   1.00
C68    C     0.70928   0.09081   0.42200   0.00000  Uiso   1.00
C69    C     0.74991   0.15668   0.45953   0.00000  Uiso   1.00
H70    H     0.96066   0.06427   0.36895   0.00000  Uiso   1.00
H71    H     0.02957   0.00036   0.41964   0.00000  Uiso   1.00
H72    H     0.91938   0.02441   0.24610   0.00000  Uiso   1.00
H73    H     0.95773   0.17657   0.44319   0.00000  Uiso   1.00
H74    H     0.06699   0.91603   0.47248   0.00000  Uiso   1.00
H75    H     0.83464   0.96675   0.10658   0.00000  Uiso   1.00
H76    H     0.91550   0.28763   0.52217   0.00000  Uiso   1.00
H77    H     0.66030   0.96057   0.34332   0.00000  Uiso   1.00
H78    H     0.71273   0.89097   0.39260   0.00000  Uiso   1.00
H79    H     0.60254   0.91501   0.21907   0.00000  Uiso   1.00
H80    H     0.64089   0.06718   0.41615   0.00000  Uiso   1.00
H81    H     0.80983   0.82724   0.45054   0.00000  Uiso   1.00
H82    H     0.57748   0.87796   0.08463   0.00000  Uiso   1.00
H83    H     0.65834   0.19884   0.50023   0.00000  Uiso   1.00
O84    O     0.97832   0.82771   0.49437   0.00000  Uiso   1.00
O85    O     0.67348   0.89426   0.01432   0.00000  Uiso   1.00
O86    O     0.77957   0.31524   0.55957   0.00000  Uiso   1.00
N87    N     0.99928   0.90470   0.46057   0.00000  Uiso   1.00
N88    N     0.78205   0.95211   0.11846   0.00000  Uiso   1.00
N89    N     0.85763   0.25210   0.50700   0.00000  Uiso   1.00
N90    N     0.86090   0.85692   0.44876   0.00000  Uiso   1.00
N91    N     0.64367   0.90433   0.10666   0.00000  Uiso   1.00
N92    N     0.71926   0.20432   0.49519   0.00000  Uiso   1.00
C93    C     0.54973   0.64352   0.72440   0.00000  Uiso   1.00
C94    C     0.51635   0.61857   0.65158   0.00000  Uiso   1.00
C95    C     0.56073   0.59068   0.61064   0.00000  Uiso   1.00
C96    C     0.51906   0.57099   0.54553   0.00000  Uiso   1.00
C97    C     0.47990   0.53107   0.43601   0.00000  Uiso   1.00
C98    C     0.55420   0.71346   0.75474   0.00000  Uiso   1.00
C99    C     0.63038   0.76534   0.80054   0.00000  Uiso   1.00
C100   C     0.62057   0.82553   0.82227   0.00000  Uiso   1.00
C101   C     0.64014   0.93293   0.87294   0.00000  Uiso   1.00
C102   C     0.47385   0.60855   0.73753   0.00000  Uiso   1.00
C103   C     0.48249   0.57224   0.76889   0.00000  Uiso   1.00
C104   C     0.40503   0.54411   0.77615   0.00000  Uiso   1.00
C105   C     0.29985   0.48863   0.80011   0.00000  Uiso   1.00
C106   C     0.39682   0.65815   0.68157   0.00000  Uiso   1.00
C107   C     0.43330   0.62652   0.62832   0.00000  Uiso   1.00
C108   C     0.39156   0.60686   0.56326   0.00000  Uiso   1.00
C109   C     0.43586   0.57894   0.52223   0.00000  Uiso   1.00
C110   C     0.47115   0.72141   0.73148   0.00000  Uiso   1.00
C111   C     0.46121   0.78153   0.75315   0.00000  Uiso   1.00
C112   C     0.53737   0.83349   0.79897   0.00000  Uiso   1.00
C113   C     0.39080   0.61650   0.71427   0.00000  Uiso   1.00
C114   C     0.31331   0.58843   0.72150   0.00000  Uiso   1.00
C115   C     0.32183   0.55208   0.75285   0.00000  Uiso   1.00
H116   H     0.61439   0.63733   0.74251   0.00000  Uiso   1.00
H117   H     0.62500   0.58454   0.62866   0.00000  Uiso   1.00
H118   H     0.69464   0.75918   0.81853   0.00000  Uiso   1.00
H119   H     0.54677   0.56610   0.78688   0.00000  Uiso   1.00
H120   H     0.60016   0.52953   0.49218   0.00000  Uiso   1.00
H121   H     0.74700   0.89776   0.89255   0.00000  Uiso   1.00
H122   H     0.43517   0.49063   0.82581   0.00000  Uiso   1.00
H123   H     0.33216   0.66434   0.66346   0.00000  Uiso   1.00
H124   H     0.32729   0.61302   0.54527   0.00000  Uiso   1.00
H125   H     0.39693   0.78766   0.73514   0.00000  Uiso   1.00
H126   H     0.24905   0.59459   0.70349   0.00000  Uiso   1.00
H127   H     0.35853   0.55265   0.42450   0.00000  Uiso   1.00
H128   H     0.50536   0.92089   0.82488   0.00000  Uiso   1.00
H129   H     0.19353   0.51375   0.75813   0.00000  Uiso   1.00
O130   O     0.48125   0.50687   0.38202   0.00000  Uiso   1.00
O131   O     0.67388   0.98997   0.90730   0.00000  Uiso   1.00
O132   O     0.26477   0.45582   0.81974   0.00000  Uiso   1.00
N133   N     0.54395   0.54201   0.49247   0.00000  Uiso   1.00
N134   N     0.68124   0.88628   0.86679   0.00000  Uiso   1.00
N135   N     0.38971   0.50566   0.80441   0.00000  Uiso   1.00
N136   N     0.41393   0.55445   0.45605   0.00000  Uiso   1.00
N137   N     0.55122   0.89872   0.83037   0.00000  Uiso   1.00
N138   N     0.25969   0.51810   0.76799   0.00000  Uiso   1.00
C139   C     0.28245   0.90718   0.27862   0.00000  Uiso   1.00
C140   C     0.32954   0.95477   0.35044   0.00000  Uiso   1.00
C141   C     0.41982   0.97015   0.38661   0.00000  Uiso   1.00
C142   C     0.44997   0.01484   0.45161   0.00000  Uiso   1.00
C143   C     0.53195   0.08446   0.55890   0.00000  Uiso   1.00
C144   C     0.24326   0.94410   0.24728   0.00000  Uiso   1.00
C145   C     0.26099   0.95050   0.19672   0.00000  Uiso   1.00
C146   C     0.21850   0.98621   0.17487   0.00000  Uiso   1.00
C147   C     0.16648   0.03922   0.12197   0.00000  Uiso   1.00
C148   C     0.20122   0.85832   0.27316   0.00000  Uiso   1.00
C149   C     0.18358   0.79259   0.24434   0.00000  Uiso   1.00
C150   C     0.10567   0.75607   0.24427   0.00000  Uiso   1.00
C151   C     0.98837   0.67590   0.23156   0.00000  Uiso   1.00
C152   C     0.17546   0.95919   0.32973   0.00000  Uiso   1.00
C153   C     0.27143   0.98302   0.37820   0.00000  Uiso   1.00
C154   C     0.30145   0.02769   0.44316   0.00000  Uiso   1.00
C155   C     0.39176   0.04314   0.47943   0.00000  Uiso   1.00
C156   C     0.18515   0.97235   0.27504   0.00000  Uiso   1.00
C157   C     0.14262   0.00805   0.25326   0.00000  Uiso   1.00
C158   C     0.16029   0.01451   0.20268   0.00000  Uiso   1.00
C159   C     0.14311   0.88657   0.30093   0.00000  Uiso   1.00
C160   C     0.06521   0.85014   0.30089   0.00000  Uiso   1.00
C161   C     0.04746   0.78437   0.27208   0.00000  Uiso   1.00
H162   H     0.32769   0.88519   0.25701   0.00000  Uiso   1.00
H163   H     0.46478   0.94828   0.36511   0.00000  Uiso   1.00
H164   H     0.30596   0.92863   0.17524   0.00000  Uiso   1.00
H165   H     0.22856   0.77075   0.22286   0.00000  Uiso   1.00
H166   H     0.59114   0.03071   0.49720   0.00000  Uiso   1.00
H167   H     0.25625   0.98926   0.09684   0.00000  Uiso   1.00
H168   H     0.09304   0.65633   0.19726   0.00000  Uiso   1.00
H169   H     0.13021   0.98118   0.35134   0.00000  Uiso   1.00
H170   H     0.25646   0.04955   0.46463   0.00000  Uiso   1.00
H171   H     0.09765   0.02990   0.27476   0.00000  Uiso   1.00
H172   H     0.02025   0.87201   0.32238   0.00000  Uiso   1.00
H173   H     0.42207   0.11290   0.57798   0.00000  Uiso   1.00
H174   H     0.08717   0.07145   0.17761   0.00000  Uiso   1.00
H175   H     0.92397   0.73852   0.27803   0.00000  Uiso   1.00
O176   O     0.59323   0.11506   0.61041   0.00000  Uiso   1.00
O177   O     0.15385   0.06067   0.08513   0.00000  Uiso   1.00
O178   O     0.93973   0.62387   0.21688   0.00000  Uiso   1.00
N179   N     0.53402   0.04066   0.50067   0.00000  Uiso   1.00
N180   N     0.22093   0.00192   0.12636   0.00000  Uiso   1.00
N181   N     0.06833   0.69065   0.22023   0.00000  Uiso   1.00
N182   N     0.44304   0.08489   0.54413   0.00000  Uiso   1.00
N183   N     0.12995   0.04614   0.16982   0.00000  Uiso   1.00
N184   N     0.97735   0.73488   0.26369   0.00000  Uiso   1.00
C185   C     0.38720   0.32918   0.07817   0.00000  Uiso   1.00
C186   C     0.38495   0.35118   0.02761   0.00000  Uiso   1.00
C187   C     0.45991   0.37669   0.01628   0.00000  Uiso   1.00
C188   C     0.44360   0.39389   0.96785   0.00000  Uiso   1.00
C189   C     0.45350   0.42925   0.89475   0.00000  Uiso   1.00
C190   C     0.32572   0.25955   0.04153   0.00000  Uiso   1.00
C191   C     0.35088   0.20803   0.04192   0.00000  Uiso   1.00
C192   C     0.28471   0.14809   0.00522   0.00000  Uiso   1.00
C193   C     0.20265   0.04120   0.95378   0.00000  Uiso   1.00
C194   C     0.33974   0.36664   0.12025   0.00000  Uiso   1.00
C195   C     0.37668   0.40514   0.18683   0.00000  Uiso   1.00
C196   C     0.32231   0.43535   0.21640   0.00000  Uiso   1.00
C197   C     0.26201   0.49473   0.28718   0.00000  Uiso   1.00
C198   C     0.22494   0.31436   0.01231   0.00000  Uiso   1.00
C199   C     0.29681   0.34313   0.99183   0.00000  Uiso   1.00
C200   C     0.28039   0.36029   0.94341   0.00000  Uiso   1.00
C201   C     0.35531   0.38583   0.93202   0.00000  Uiso   1.00
C202   C     0.23759   0.25150   0.00576   0.00000  Uiso   1.00
C203   C     0.17137   0.19163   0.96905   0.00000  Uiso   1.00
C204   C     0.19642   0.14002   0.96938   0.00000  Uiso   1.00
C205   C     0.25161   0.35859   0.08448   0.00000  Uiso   1.00
C206   C     0.19716   0.38874   0.11396   0.00000  Uiso   1.00
C207   C     0.23401   0.42728   0.18057   0.00000  Uiso   1.00
H208   H     0.45581   0.33544   0.10602   0.00000  Uiso   1.00
H209   H     0.52810   0.38291   0.04397   0.00000  Uiso   1.00
H210   H     0.41909   0.21427   0.06961   0.00000  Uiso   1.00
H211   H     0.44488   0.41136   0.21449   0.00000  Uiso   1.00
H212   H     0.56938   0.43197   0.95938   0.00000  Uiso   1.00
H213   H     0.33951   0.07639   0.01347   0.00000  Uiso   1.00
H214   H     0.39390   0.49197   0.31898   0.00000  Uiso   1.00
H215   H     0.15633   0.30809   0.98446   0.00000  Uiso   1.00
H216   H     0.21218   0.35406   0.91574   0.00000  Uiso   1.00
H217   H     0.10317   0.18542   0.94138   0.00000  Uiso   1.00
H218   H     0.12897   0.38250   0.08626   0.00000  Uiso   1.00
H219   H     0.31296   0.40855   0.85530   0.00000  Uiso   1.00
H220   H     0.08310   0.05296   0.90939   0.00000  Uiso   1.00
H221   H     0.13749   0.46855   0.21490   0.00000  Uiso   1.00
O222   O     0.48331   0.45097   0.86431   0.00000  Uiso   1.00
O223   O     0.18173   0.98447   0.93528   0.00000  Uiso   1.00
O224   O     0.25310   0.52971   0.33610   0.00000  Uiso   1.00
N225   N     0.50136   0.42016   0.94432   0.00000  Uiso   1.00
N226   N     0.28646   0.08771   0.99489   0.00000  Uiso   1.00
N227   N     0.33730   0.47624   0.28051   0.00000  Uiso   1.00
N228   N     0.36339   0.40756   0.88832   0.00000  Uiso   1.00
N229   N     0.14848   0.07511   0.93888   0.00000  Uiso   1.00
N230   N     0.19933   0.46363   0.22451   0.00000  Uiso   1.00
C231   C     0.04747   0.68781   0.68853   0.00000  Uiso   1.00
C232   C     0.01870   0.61529   0.66056   0.00000  Uiso   1.00
C233   C     0.06792   0.57664   0.63509   0.00000  Uiso   1.00
C234   C     0.02995   0.51141   0.61193   0.00000  Uiso   1.00
C235   C     0.99810   0.40271   0.56820   0.00000  Uiso   1.00
C236   C     0.04674   0.71456   0.75716   0.00000  Uiso   1.00
C237   C     0.11952   0.75938   0.81290   0.00000  Uiso   1.00
C238   C     0.10515   0.77772   0.87104   0.00000  Uiso   1.00
C239   C     0.11681   0.82317   0.97727   0.00000  Uiso   1.00
C240   C     0.97079   0.70128   0.65071   0.00000  Uiso   1.00
C241   C     0.97971   0.73495   0.61697   0.00000  Uiso   1.00
C242   C     0.90139   0.74212   0.58551   0.00000  Uiso   1.00
C243   C     0.79512   0.76695   0.52646   0.00000  Uiso   1.00
C244   C     0.89252   0.64069   0.69268   0.00000  Uiso   1.00
C245   C     0.93454   0.58970   0.66283   0.00000  Uiso   1.00
C246   C     0.89648   0.52451   0.63969   0.00000  Uiso   1.00
C247   C     0.94563   0.48577   0.61419   0.00000  Uiso   1.00
C248   C     0.96258   0.68897   0.75942   0.00000  Uiso   1.00
C249   C     0.94809   0.70725   0.81749   0.00000  Uiso   1.00
C250   C     0.02083   0.75208   0.87331   0.00000  Uiso   1.00
C251   C     0.88662   0.67569   0.65297   0.00000  Uiso   1.00
C252   C     0.80827   0.68281   0.62156   0.00000  Uiso   1.00
C253   C     0.81707   0.71648   0.58777   0.00000  Uiso   1.00
H254   H     0.11299   0.70773   0.68677   0.00000  Uiso   1.00
H255   H     0.13305   0.59646   0.63336   0.00000  Uiso   1.00
H256   H     0.18464   0.77918   0.81113   0.00000  Uiso   1.00
H257   H     0.04485   0.75475   0.61523   0.00000  Uiso   1.00
H258   H     0.11818   0.46182   0.57516   0.00000  Uiso   1.00
H259   H     0.22696   0.84710   0.95000   0.00000  Uiso   1.00
H260   H     0.93218   0.79558   0.53691   0.00000  Uiso   1.00
H261   H     0.82699   0.62077   0.69444   0.00000  Uiso   1.00
H262   H     0.83135   0.50472   0.64145   0.00000  Uiso   1.00
H263   H     0.88295   0.68744   0.81922   0.00000  Uiso   1.00
H264   H     0.74316   0.66300   0.62332   0.00000  Uiso   1.00
H265   H     0.87332   0.38736   0.58173   0.00000  Uiso   1.00
H266   H     0.98210   0.77264   0.95657   0.00000  Uiso   1.00
H267   H     0.68731   0.72112   0.54347   0.00000  Uiso   1.00
O268   O     0.00379   0.34982   0.54347   0.00000  Uiso   1.00
O269   O     0.14650   0.85531   0.03524   0.00000  Uiso   1.00
O270   O     0.75976   0.78771   0.49327   0.00000  Uiso   1.00
N271   N     0.05995   0.46022   0.58397   0.00000  Uiso   1.00
N272   N     0.16165   0.82043   0.93442   0.00000  Uiso   1.00
N273   N     0.88606   0.77228   0.54823   0.00000  Uiso   1.00
N274   N     0.92819   0.42015   0.58750   0.00000  Uiso   1.00
N275   N     0.02989   0.78036   0.93795   0.00000  Uiso   1.00
N276   N     0.75430   0.73221   0.55176   0.00000  Uiso   1.00
C277   C     0.32213   0.72091   0.08955   0.00000  Uiso   1.00
C278   C     0.27459   0.64983   0.04201   0.00000  Uiso   1.00
C279   C     0.18441   0.61616   0.02540   0.00000  Uiso   1.00
C280   C     0.15379   0.55143   0.98099   0.00000  Uiso   1.00
C281   C     0.07120   0.44562   0.91122   0.00000  Uiso   1.00
C282   C     0.36064   0.75006   0.05244   0.00000  Uiso   1.00
C283   C     0.34281   0.80066   0.04461   0.00000  Uiso   1.00
C284   C     0.38464   0.82031   0.00898   0.00000  Uiso   1.00
C285   C     0.43569   0.87013   0.95545   0.00000  Uiso   1.00
C286   C     0.40380   0.72510   0.14039   0.00000  Uiso   1.00
C287   C     0.42229   0.75474   0.20651   0.00000  Uiso   1.00
C288   C     0.50048   0.75338   0.24494   0.00000  Uiso   1.00
C289   C     0.61855   0.76445   0.32797   0.00000  Uiso   1.00
C290   C     0.42813   0.66583   0.04023   0.00000  Uiso   1.00
C291   C     0.33216   0.61991   0.01522   0.00000  Uiso   1.00
C292   C     0.30168   0.55522   0.97083   0.00000  Uiso   1.00
C293   C     0.21147   0.52146   0.95415   0.00000  Uiso   1.00
C294   C     0.41821   0.72014   0.02565   0.00000  Uiso   1.00
C295   C     0.46008   0.73972   0.99003   0.00000  Uiso   1.00
C296   C     0.44231   0.79033   0.98214   0.00000  Uiso   1.00
C297   C     0.46138   0.69518   0.11360   0.00000  Uiso   1.00
C298   C     0.53956   0.69378   0.15194   0.00000  Uiso   1.00
C299   C     0.55815   0.72341   0.21810   0.00000  Uiso   1.00
H300   H     0.27731   0.74421   0.11041   0.00000  Uiso   1.00
H301   H     0.13988   0.63934   0.04614   0.00000  Uiso   1.00
H302   H     0.29826   0.82381   0.06535   0.00000  Uiso   1.00
H303   H     0.37773   0.77789   0.22723   0.00000  Uiso   1.00
H304   H     0.01288   0.50988   0.96305   0.00000  Uiso   1.00
H305   H     0.34687   0.89887   0.00357   0.00000  Uiso   1.00
H306   H     0.51444   0.80202   0.34493   0.00000  Uiso   1.00
H307   H     0.47295   0.64253   0.01937   0.00000  Uiso   1.00
H308   H     0.34625   0.53207   0.95010   0.00000  Uiso   1.00
H309   H     0.50463   0.71655   0.96931   0.00000  Uiso   1.00
H310   H     0.58409   0.67062   0.13119   0.00000  Uiso   1.00
H311   H     0.18038   0.42282   0.88510   0.00000  Uiso   1.00
H312   H     0.51436   0.81181   0.92563   0.00000  Uiso   1.00
H313   H     0.68193   0.71496   0.26698   0.00000  Uiso   1.00
O314   O     0.00974   0.39553   0.88014   0.00000  Uiso   1.00
O315   O     0.44793   0.90587   0.93331   0.00000  Uiso   1.00
O316   O     0.66777   0.77881   0.38116   0.00000  Uiso   1.00
N317   N     0.06969   0.50454   0.95422   0.00000  Uiso   1.00
N318   N     0.38194   0.86822   0.99210   0.00000  Uiso   1.00
N319   N     0.53862   0.77769   0.31124   0.00000  Uiso   1.00
N320   N     0.15982   0.45770   0.91228   0.00000  Uiso   1.00
N321   N     0.47207   0.82137   0.95016   0.00000  Uiso   1.00
N322   N     0.62874   0.73085   0.26930   0.00000  Uiso   1.00
C323   C     0.21382   0.90826   0.66227   0.00000  Uiso   1.00
C324   C     0.21546   0.95950   0.64127   0.00000  Uiso   1.00
C325   C     0.14091   0.97557   0.61862   0.00000  Uiso   1.00
C326   C     0.15652   0.02379   0.60188   0.00000  Uiso   1.00
C327   C     0.14583   0.09867   0.56843   0.00000  Uiso   1.00
C328   C     0.28140   0.94191   0.73142   0.00000  Uiso   1.00
C329   C     0.26230   0.94317   0.78456   0.00000  Uiso   1.00
C330   C     0.33343   0.97657   0.84371   0.00000  Uiso   1.00
C331   C     0.42513   0.02409   0.95020   0.00000  Uiso   1.00
C332   C     0.25445   0.86247   0.62138   0.00000  Uiso   1.00
C333   C     0.21270   0.79693   0.58201   0.00000  Uiso   1.00
C334   C     0.26115   0.76345   0.54853   0.00000  Uiso   1.00
C335   C     0.31100   0.68764   0.48417   0.00000  Uiso   1.00
C336   C     0.37411   0.96533   0.67284   0.00000  Uiso   1.00
C337   C     0.30252   0.99051   0.64701   0.00000  Uiso   1.00
C338   C     0.31826   0.03871   0.63031   0.00000  Uiso   1.00
C339   C     0.24375   0.05484   0.60763   0.00000  Uiso   1.00
C340   C     0.36846   0.97291   0.73716   0.00000  Uiso   1.00
C341   C     0.43964   0.00631   0.79625   0.00000  Uiso   1.00
C342   C     0.42065   0.00763   0.84946   0.00000  Uiso   1.00
C343   C     0.34151   0.89347   0.62712   0.00000  Uiso   1.00
C344   C     0.39004   0.86008   0.59370   0.00000  Uiso   1.00
C345   C     0.34837   0.79451   0.55428   0.00000  Uiso   1.00
H346   H     0.14604   0.88412   0.65781   0.00000  Uiso   1.00
H347   H     0.07354   0.95157   0.61419   0.00000  Uiso   1.00
H348   H     0.19491   0.91917   0.78010   0.00000  Uiso   1.00
H349   H     0.14532   0.77296   0.57758   0.00000  Uiso   1.00
H350   H     0.03157   0.04003   0.56837   0.00000  Uiso   1.00
H351   H     0.28750   0.97170   0.91820   0.00000  Uiso   1.00
H352   H     0.18292   0.66339   0.49116   0.00000  Uiso   1.00
H353   H     0.44190   0.98947   0.67731   0.00000  Uiso   1.00
H354   H     0.38564   0.06269   0.63476   0.00000  Uiso   1.00
H355   H     0.50701   0.03029   0.80067   0.00000  Uiso   1.00
H356   H     0.45742   0.88409   0.59815   0.00000  Uiso   1.00
H357   H     0.28488   0.13023   0.58507   0.00000  Uiso   1.00
H358   H     0.54081   0.06189   0.93491   0.00000  Uiso   1.00
H359   H     0.43623   0.75358   0.50786   0.00000  Uiso   1.00
O360   O     0.11588   0.13141   0.54840   0.00000  Uiso   1.00
O361   O     0.45165   0.04175   0.00736   0.00000  Uiso   1.00
O362   O     0.31444   0.63726   0.44708   0.00000  Uiso   1.00
N363   N     0.09890   0.05120   0.57813   0.00000  Uiso   1.00
N364   N     0.33818   0.98732   0.90520   0.00000  Uiso   1.00
N365   N     0.24042   0.69907   0.50596   0.00000  Uiso   1.00
N366   N     0.23521   0.09973   0.58712   0.00000  Uiso   1.00
N367   N     0.47448   0.03585   0.91419   0.00000  Uiso   1.00
N368   N     0.37672   0.74761   0.51495   0.00000  Uiso   1.00
C369   C     0.54428   0.33001   0.28784   0.00000  Uiso   1.00
C370   C     0.57645   0.34757   0.35906   0.00000  Uiso   1.00
C371   C     0.53781   0.37825   0.40315   0.00000  Uiso   1.00
C372   C     0.57719   0.39004   0.46608   0.00000  Uiso   1.00
C373   C     0.61564   0.42005   0.57391   0.00000  Uiso   1.00
C374   C     0.52527   0.25805   0.25020   0.00000  Uiso   1.00
C375   C     0.44361   0.21345   0.20276   0.00000  Uiso   1.00
C376   C     0.43993   0.14988   0.17403   0.00000  Uiso   1.00
C377   C     0.39896   0.04091   0.11282   0.00000  Uiso   1.00
C378   C     0.62613   0.36138   0.27710   0.00000  Uiso   1.00
C379   C     0.62927   0.40366   0.25225   0.00000  Uiso   1.00
C380   C     0.71050   0.42707   0.24615   0.00000  Uiso   1.00
C381   C     0.82613   0.47855   0.22670   0.00000  Uiso   1.00
C382   C     0.68293   0.29640   0.32118   0.00000  Uiso   1.00
C383   C     0.65175   0.32932   0.37717   0.00000  Uiso   1.00
C384   C     0.69121   0.34107   0.44005   0.00000  Uiso   1.00
C385   C     0.65263   0.37175   0.48422   0.00000  Uiso   1.00
C386   C     0.60058   0.23979   0.26831   0.00000  Uiso   1.00
C387   C     0.59701   0.17627   0.23965   0.00000  Uiso   1.00
C388   C     0.51537   0.13159   0.19218   0.00000  Uiso   1.00
C389   C     0.70144   0.34313   0.29521   0.00000  Uiso   1.00
C390   C     0.78268   0.36648   0.28915   0.00000  Uiso   1.00
C391   C     0.78594   0.40879   0.26430   0.00000  Uiso   1.00
H392   H     0.48565   0.34422   0.27373   0.00000  Uiso   1.00
H393   H     0.47952   0.39236   0.38912   0.00000  Uiso   1.00
H394   H     0.38535   0.22759   0.18875   0.00000  Uiso   1.00
H395   H     0.57098   0.41777   0.23824   0.00000  Uiso   1.00
H396   H     0.50592   0.43766   0.52502   0.00000  Uiso   1.00
H397   H     0.30736   0.09024   0.10252   0.00000  Uiso   1.00
H398   H     0.69880   0.49127   0.20687   0.00000  Uiso   1.00
H399   H     0.74156   0.28219   0.33528   0.00000  Uiso   1.00
H400   H     0.74948   0.32693   0.45405   0.00000  Uiso   1.00
H401   H     0.65531   0.16216   0.25368   0.00000  Uiso   1.00
H402   H     0.84094   0.35234   0.30317   0.00000  Uiso   1.00
H403   H     0.72502   0.38456   0.57772   0.00000  Uiso   1.00
H404   H     0.52647   0.03713   0.15521   0.00000  Uiso   1.00
H405   H     0.91791   0.43817   0.25957   0.00000  Uiso   1.00
O406   O     0.61604   0.44164   0.62838   0.00000  Uiso   1.00
O407   O     0.35555   0.98584   0.07406   0.00000  Uiso   1.00
O408   O     0.86911   0.51199   0.21098   0.00000  Uiso   1.00
N409   N     0.55641   0.41904   0.52113   0.00000  Uiso   1.00
N410   N     0.37077   0.09422   0.12612   0.00000  Uiso   1.00
N411   N     0.73672   0.46913   0.22367   0.00000  Uiso   1.00
N412   N     0.67431   0.39046   0.54949   0.00000  Uiso   1.00
N413   N     0.48867   0.06564   0.15447   0.00000  Uiso   1.00
N414   N     0.85462   0.44056   0.25202   0.00000  Uiso   1.00
C415   C     0.81810   0.06043   0.75329   0.00000  Uiso   1.00
C416   C     0.76944   0.01165   0.68194   0.00000  Uiso   1.00
C417   C     0.67865   0.99589   0.64660   0.00000  Uiso   1.00
C418   C     0.64703   0.95007   0.58191   0.00000  Uiso   1.00
C419   C     0.56276   0.87871   0.47542   0.00000  Uiso   1.00
C420   C     0.85867   0.02459   0.78551   0.00000  Uiso   1.00
C421   C     0.84290   0.01972   0.83726   0.00000  Uiso   1.00
C422   C     0.88641   0.98481   0.85975   0.00000  Uiso   1.00
C423   C     0.94072   0.93359   0.91409   0.00000  Uiso   1.00
C424   C     0.89836   0.10851   0.75676   0.00000  Uiso   1.00
C425   C     0.91599   0.17419   0.78436   0.00000  Uiso   1.00
C426   C     0.99292   0.20994   0.78267   0.00000  Uiso   1.00
C427   C     0.10886   0.28899   0.79238   0.00000  Uiso   1.00
C428   C     0.92341   0.00711   0.70123   0.00000  Uiso   1.00
C429   C     0.82665   0.98269   0.65366   0.00000  Uiso   1.00
C430   C     0.79516   0.93689   0.58900   0.00000  Uiso   1.00
C431   C     0.70433   0.92106   0.55358   0.00000  Uiso   1.00
C432   C     0.91587   0.99563   0.75723   0.00000  Uiso   1.00
C433   C     0.95941   0.96073   0.77966   0.00000  Uiso   1.00
C434   C     0.94371   0.95580   0.83143   0.00000  Uiso   1.00
C435   C     0.95556   0.07955   0.72849   0.00000  Uiso   1.00
C436   C     0.03249   0.11519   0.72676   0.00000  Uiso   1.00
C437   C     0.05022   0.18092   0.75435   0.00000  Uiso   1.00
H438   H     0.77357   0.08298   0.77531   0.00000  Uiso   1.00
H439   H     0.63440   0.01831   0.66850   0.00000  Uiso   1.00
H440   H     0.79864   0.04215   0.85913   0.00000  Uiso   1.00
H441   H     0.87171   0.19659   0.80624   0.00000  Uiso   1.00
H442   H     0.50532   0.93381   0.53762   0.00000  Uiso   1.00
H443   H     0.85165   0.98410   0.93959   0.00000  Uiso   1.00
H444   H     0.00573   0.30977   0.82806   0.00000  Uiso   1.00
H445   H     0.96795   0.98456   0.67922   0.00000  Uiso   1.00
H446   H     0.83944   0.91449   0.56714   0.00000  Uiso   1.00
H447   H     0.00368   0.93832   0.75777   0.00000  Uiso   1.00
H448   H     0.07674   0.09277   0.70488   0.00000  Uiso   1.00
H449   H     0.67173   0.84955   0.45535   0.00000  Uiso   1.00
H450   H     0.01807   0.89983   0.85732   0.00000  Uiso   1.00
H451   H     0.17214   0.22550   0.74579   0.00000  Uiso   1.00
O452   O     0.50047   0.84734   0.42449   0.00000  Uiso   1.00
O453   O     0.95486   0.91333   0.95187   0.00000  Uiso   1.00
O454   O     0.15700   0.34060   0.80554   0.00000  Uiso   1.00
N455   N     0.56212   0.92361   0.53364   0.00000  Uiso   1.00
N456   N     0.88592   0.97061   0.90945   0.00000  Uiso   1.00
N457   N     0.02997   0.27509   0.80519   0.00000  Uiso   1.00
N458   N     0.65167   0.87826   0.48937   0.00000  Uiso   1.00
N459   N     0.97546   0.92527   0.86518   0.00000  Uiso   1.00
N460   N     0.11952   0.22975   0.76092   0.00000  Uiso   1.00
C461   C     0.72289   0.62758   0.94114   0.00000  Uiso   1.00
C462   C     0.72640   0.60675   0.99264   0.00000  Uiso   1.00
C463   C     0.65258   0.58434   0.00680   0.00000  Uiso   1.00
C464   C     0.66993   0.56773   0.05562   0.00000  Uiso   1.00
C465   C     0.66200   0.53455   0.13052   0.00000  Uiso   1.00
C466   C     0.78801   0.69606   0.97607   0.00000  Uiso   1.00
C467   C     0.76599   0.74875   0.97629   0.00000  Uiso   1.00
C468   C     0.83520   0.80731   0.01116   0.00000  Uiso   1.00
C469   C     0.92293   0.91279   0.06029   0.00000  Uiso   1.00
C470   C     0.76533   0.58703   0.89689   0.00000  Uiso   1.00
C471   C     0.72426   0.54805   0.83053   0.00000  Uiso   1.00
C472   C     0.77439   0.51484   0.79873   0.00000  Uiso   1.00
C473   C     0.82691   0.45103   0.72493   0.00000  Uiso   1.00
C474   C     0.88497   0.63792   0.00267   0.00000  Uiso   1.00
C475   C     0.81444   0.61236   0.02606   0.00000  Uiso   1.00
C476   C     0.83191   0.59578   0.07487   0.00000  Uiso   1.00
C477   C     0.75813   0.57335   0.08910   0.00000  Uiso   1.00
C478   C     0.87604   0.70168   0.00949   0.00000  Uiso   1.00
C479   C     0.94531   0.76018   0.04436   0.00000  Uiso   1.00
C480   C     0.92340   0.81294   0.04464   0.00000  Uiso   1.00
C481   C     0.85337   0.59264   0.93031   0.00000  Uiso   1.00
C482   C     0.90358   0.55949   0.89861   0.00000  Uiso   1.00
C483   C     0.86259   0.52046   0.83221   0.00000  Uiso   1.00
H484   H     0.65435   0.62322   0.91513   0.00000  Uiso   1.00
H485   H     0.58446   0.58001   0.98093   0.00000  Uiso   1.00
H486   H     0.69786   0.74438   0.95042   0.00000  Uiso   1.00
H487   H     0.65613   0.54372   0.80469   0.00000  Uiso   1.00
H488   H     0.54581   0.53461   0.06864   0.00000  Uiso   1.00
H489   H     0.78491   0.88119   0.00429   0.00000  Uiso   1.00
H490   H     0.69692   0.45806   0.69698   0.00000  Uiso   1.00
H491   H     0.95351   0.64229   0.02869   0.00000  Uiso   1.00
H492   H     0.90004   0.60013   0.10073   0.00000  Uiso   1.00
H493   H     0.01343   0.76451   0.07022   0.00000  Uiso   1.00
H494   H     0.97170   0.56384   0.92448   0.00000  Uiso   1.00
H495   H     0.80194   0.55094   0.16587   0.00000  Uiso   1.00
H496   H     0.04104   0.89753   0.10152   0.00000  Uiso   1.00
H497   H     0.95305   0.47439   0.79421   0.00000  Uiso   1.00
O498   O     0.63331   0.51471   0.16261   0.00000  Uiso   1.00
O499   O     0.94699   0.96942   0.07817   0.00000  Uiso   1.00
O500   O     0.83156   0.41427   0.67499   0.00000  Uiso   1.00
N501   N     0.61343   0.54422   0.08163   0.00000  Uiso   1.00
N502   N     0.83696   0.86827   0.02147   0.00000  Uiso   1.00
N503   N     0.75471   0.47268   0.73416   0.00000  Uiso   1.00
N504   N     0.75125   0.55301   0.13395   0.00000  Uiso   1.00
N505   N     0.97479   0.87705   0.07379   0.00000  Uiso   1.00
N506   N     0.89253   0.48147   0.78648   0.00000  Uiso   1.00
C507   C     0.11452   0.24721   0.35785   0.00000  Uiso   1.00
C508   C     0.13074   0.31755   0.37630   0.00000  Uiso   1.00
C509   C     0.09634   0.35830   0.41700   0.00000  Uiso   1.00
C510   C     0.11898   0.42096   0.42780   0.00000  Uiso   1.00
C511   C     0.13574   0.52695   0.46082   0.00000  Uiso   1.00
C512   C     0.07403   0.21020   0.28425   0.00000  Uiso   1.00
C513   C     0.99197   0.16068   0.24756   0.00000  Uiso   1.00
C514   C     0.96688   0.13297   0.18087   0.00000  Uiso   1.00
C515   C     0.89564   0.07227   0.07098   0.00000  Uiso   1.00
C516   C     0.20826   0.24049   0.37654   0.00000  Uiso   1.00
C517   C     0.23905   0.21642   0.41743   0.00000  Uiso   1.00
C518   C     0.32697   0.21420   0.42843   0.00000  Uiso   1.00
C519   C     0.46414   0.20053   0.46183   0.00000  Uiso   1.00
C520   C     0.21589   0.28603   0.30465   0.00000  Uiso   1.00
C521   C     0.18580   0.33863   0.34740   0.00000  Uiso   1.00
C522   C     0.20850   0.40124   0.35814   0.00000  Uiso   1.00
C523   C     0.17415   0.44208   0.39886   0.00000  Uiso   1.00
C524   C     0.12909   0.23128   0.25535   0.00000  Uiso   1.00
C525   C     0.10412   0.20363   0.18870   0.00000  Uiso   1.00
C526   C     0.02204   0.15409   0.15192   0.00000  Uiso   1.00
C527   C     0.26332   0.26157   0.34764   0.00000  Uiso   1.00
C528   C     0.35121   0.25937   0.35857   0.00000  Uiso   1.00
C529   C     0.38213   0.23532   0.39948   0.00000  Uiso   1.00
H530   H     0.07165   0.23079   0.38034   0.00000  Uiso   1.00
H531   H     0.05372   0.34196   0.43935   0.00000  Uiso   1.00
H532   H     0.94937   0.14437   0.26994   0.00000  Uiso   1.00
H533   H     0.19642   0.20011   0.43979   0.00000  Uiso   1.00
H534   H     0.05811   0.47450   0.49201   0.00000  Uiso   1.00
H535   H     0.83809   0.05786   0.13480   0.00000  Uiso   1.00
H536   H     0.35904   0.17540   0.49295   0.00000  Uiso   1.00
H537   H     0.25876   0.30244   0.28215   0.00000  Uiso   1.00
H538   H     0.25111   0.41754   0.33577   0.00000  Uiso   1.00
H539   H     0.14675   0.21995   0.16636   0.00000  Uiso   1.00
H540   H     0.39380   0.27569   0.33620   0.00000  Uiso   1.00
H541   H     0.21831   0.53585   0.40794   0.00000  Uiso   1.00
H542   H     0.99829   0.11920   0.05072   0.00000  Uiso   1.00
H543   H     0.51924   0.23674   0.40887   0.00000  Uiso   1.00
O544   O     0.12977   0.57959   0.48701   0.00000  Uiso   1.00
O545   O     0.84113   0.03297   0.01835   0.00000  Uiso   1.00
O546   O     0.52459   0.18718   0.48824   0.00000  Uiso   1.00
N547   N     0.09688   0.47315   0.46488   0.00000  Uiso   1.00
N548   N     0.89117   0.08362   0.13090   0.00000  Uiso   1.00
N549   N     0.37820   0.19349   0.46573   0.00000  Uiso   1.00
N550   N     0.18308   0.50616   0.41964   0.00000  Uiso   1.00
N551   N     0.97737   0.11663   0.08566   0.00000  Uiso   1.00
N552   N     0.46440   0.22650   0.42049   0.00000  Uiso   1.00
