data_job_03752
_audit_creation_date              2018-12-19
_audit_creation_method            'Materials Studio'
_symmetry_space_group_name_H-M    'P1'
_symmetry_Int_Tables_number       1
_symmetry_cell_setting            triclinic
loop_
_symmetry_equiv_pos_as_xyz
  x,y,z
_cell_length_a                    11.5473
_cell_length_b                    11.5473
_cell_length_c                    12.8934
_cell_angle_alpha                 72.9586
_cell_angle_beta                  87.6011
_cell_angle_gamma                 83.8403
loop_
_atom_site_label
_atom_site_type_symbol
_atom_site_fract_x
_atom_site_fract_y
_atom_site_fract_z
_atom_site_U_iso_or_equiv
_atom_site_adp_type
_atom_site_occupancy
C1     C     0.35647   0.60223   0.22555   0.00000  Uiso   1.00
C2     C     0.28133   0.68196   0.28307   0.00000  Uiso   1.00
C3     C     0.19416   0.64373   0.35898   0.00000  Uiso   1.00
C4     C     0.13538   0.73059   0.40223   0.00000  Uiso   1.00
C5     C     0.01448   0.83604   0.49631   0.00000  Uiso   1.00
C6     C     0.34034   0.66384   0.10440   0.00000  Uiso   1.00
C7     C     0.30279   0.61037   0.03009   0.00000  Uiso   1.00
C8     C     0.29370   0.68198   0.92293   0.00000  Uiso   1.00
C9     C     0.26449   0.75928   0.73961   0.00000  Uiso   1.00
C10    C     0.48245   0.61319   0.24929   0.00000  Uiso   1.00
C11    C     0.56440   0.51713   0.29678   0.00000  Uiso   1.00
C12    C     0.67497   0.54609   0.31159   0.00000  Uiso   1.00
C13    C     0.86640   0.54474   0.35323   0.00000  Uiso   1.00
C14    C     0.40711   0.82447   0.16736   0.00000  Uiso   1.00
C15    C     0.30884   0.80267   0.25146   0.00000  Uiso   1.00
C16    C     0.25018   0.88961   0.29460   0.00000  Uiso   1.00
C17    C     0.16293   0.85152   0.37057   0.00000  Uiso   1.00
C18    C     0.36784   0.78455   0.07279   0.00000  Uiso   1.00
C19    C     0.35881   0.85626   0.96571   0.00000  Uiso   1.00
C20    C     0.32125   0.80291   0.89126   0.00000  Uiso   1.00
C21    C     0.50995   0.73390   0.21768   0.00000  Uiso   1.00
C22    C     0.62042   0.76302   0.23240   0.00000  Uiso   1.00
C23    C     0.70252   0.66702   0.27992   0.00000  Uiso   1.00
H24    H     0.33506   0.50825   0.25015   0.00000  Uiso   1.00
H25    H     0.17289   0.55030   0.38342   0.00000  Uiso   1.00
H26    H     0.28152   0.51695   0.05458   0.00000  Uiso   1.00
H27    H     0.54308   0.42373   0.32123   0.00000  Uiso   1.00
H28    H     0.00519   0.65017   0.51720   0.00000  Uiso   1.00
H29    H     0.23429   0.57983   0.82381   0.00000  Uiso   1.00
H30    H     0.78585   0.38325   0.38611   0.00000  Uiso   1.00
H31    H     0.42853   0.91846   0.14274   0.00000  Uiso   1.00
H32    H     0.27148   0.98302   0.27012   0.00000  Uiso   1.00
H33    H     0.38011   0.94967   0.94128   0.00000  Uiso   1.00
H34    H     0.64167   0.85644   0.20793   0.00000  Uiso   1.00
H35    H     0.08521   0.00138   0.42524   0.00000  Uiso   1.00
H36    H     0.31431   0.93104   0.73185   0.00000  Uiso   1.00
H37    H     0.86586   0.73446   0.29415   0.00000  Uiso   1.00
O38    O     0.94018   0.86086   0.55692   0.00000  Uiso   1.00
O39    O     0.24076   0.76857   0.64722   0.00000  Uiso   1.00
O40    O     0.96439   0.51066   0.38495   0.00000  Uiso   1.00
N41    N     0.04559   0.72396   0.47809   0.00000  Uiso   1.00
N42    N     0.25976   0.65821   0.82982   0.00000  Uiso   1.00
N43    N     0.77543   0.47442   0.35549   0.00000  Uiso   1.00
N44    N     0.08865   0.91295   0.42861   0.00000  Uiso   1.00
N45    N     0.30282   0.84719   0.78034   0.00000  Uiso   1.00
N46    N     0.81849   0.66340   0.30601   0.00000  Uiso   1.00
C47    C     0.64353   0.39777   0.77445   0.00000  Uiso   1.00
C48    C     0.71867   0.31804   0.71693   0.00000  Uiso   1.00
C49    C     0.80584   0.35627   0.64102   0.00000  Uiso   1.00
C50    C     0.86462   0.26941   0.59777   0.00000  Uiso   1.00
C51    C     0.98552   0.16396   0.50369   0.00000  Uiso   1.00
C52    C     0.65966   0.33616   0.89560   0.00000  Uiso   1.00
C53    C     0.69721   0.38963   0.96991   0.00000  Uiso   1.00
C54    C     0.70630   0.31802   0.07707   0.00000  Uiso   1.00
C55    C     0.73551   0.24072   0.26039   0.00000  Uiso   1.00
C56    C     0.51755   0.38681   0.75071   0.00000  Uiso   1.00
C57    C     0.43560   0.48287   0.70322   0.00000  Uiso   1.00
C58    C     0.32503   0.45391   0.68841   0.00000  Uiso   1.00
C59    C     0.13360   0.45526   0.64677   0.00000  Uiso   1.00
C60    C     0.59289   0.17553   0.83264   0.00000  Uiso   1.00
C61    C     0.69116   0.19733   0.74854   0.00000  Uiso   1.00
C62    C     0.74982   0.11039   0.70540   0.00000  Uiso   1.00
C63    C     0.83707   0.14848   0.62943   0.00000  Uiso   1.00
C64    C     0.63216   0.21545   0.92721   0.00000  Uiso   1.00
C65    C     0.64119   0.14374   0.03429   0.00000  Uiso   1.00
C66    C     0.67875   0.19709   0.10874   0.00000  Uiso   1.00
C67    C     0.49005   0.26610   0.78232   0.00000  Uiso   1.00
C68    C     0.37958   0.23698   0.76760   0.00000  Uiso   1.00
C69    C     0.29748   0.33298   0.72008   0.00000  Uiso   1.00
H70    H     0.66494   0.49175   0.74985   0.00000  Uiso   1.00
H71    H     0.82711   0.44970   0.61658   0.00000  Uiso   1.00
H72    H     0.71848   0.48305   0.94542   0.00000  Uiso   1.00
H73    H     0.45692   0.57627   0.67877   0.00000  Uiso   1.00
H74    H     0.99481   0.34983   0.48280   0.00000  Uiso   1.00
H75    H     0.76571   0.42017   0.17619   0.00000  Uiso   1.00
H76    H     0.21415   0.61675   0.61389   0.00000  Uiso   1.00
H77    H     0.57147   0.08154   0.85726   0.00000  Uiso   1.00
H78    H     0.72852   0.01698   0.72988   0.00000  Uiso   1.00
H79    H     0.61989   0.05033   0.05872   0.00000  Uiso   1.00
H80    H     0.35833   0.14356   0.79207   0.00000  Uiso   1.00
H81    H     0.91479   0.99862   0.57476   0.00000  Uiso   1.00
H82    H     0.68569   0.06896   0.26815   0.00000  Uiso   1.00
H83    H     0.13414   0.26554   0.70585   0.00000  Uiso   1.00
O84    O     0.05982   0.13914   0.44308   0.00000  Uiso   1.00
O85    O     0.75924   0.23143   0.35278   0.00000  Uiso   1.00
O86    O     0.03561   0.48934   0.61505   0.00000  Uiso   1.00
N87    N     0.95441   0.27604   0.52191   0.00000  Uiso   1.00
N88    N     0.74024   0.34179   0.17018   0.00000  Uiso   1.00
N89    N     0.22457   0.52558   0.64451   0.00000  Uiso   1.00
N90    N     0.91135   0.08705   0.57139   0.00000  Uiso   1.00
N91    N     0.69718   0.15281   0.21966   0.00000  Uiso   1.00
N92    N     0.18151   0.33660   0.69399   0.00000  Uiso   1.00
