data_job_03520
_audit_creation_date              2018-12-19
_audit_creation_method            'Materials Studio'
_symmetry_space_group_name_H-M    'P1'
_symmetry_Int_Tables_number       1
_symmetry_cell_setting            triclinic
loop_
_symmetry_equiv_pos_as_xyz
  x,y,z
_cell_length_a                    7.4843
_cell_length_b                    26.3278
_cell_length_c                    15.0031
_cell_angle_alpha                 90.0000
_cell_angle_beta                  90.0000
_cell_angle_gamma                 90.0000
loop_
_atom_site_label
_atom_site_type_symbol
_atom_site_fract_x
_atom_site_fract_y
_atom_site_fract_z
_atom_site_U_iso_or_equiv
_atom_site_adp_type
_atom_site_occupancy
C1     C     0.07161   0.98603   0.41454   0.00000  Uiso   1.00
C2     C     0.24608   0.97351   0.36685   0.00000  Uiso   1.00
C3     C     0.26118   0.94937   0.28497   0.00000  Uiso   1.00
C4     C     0.43272   0.94140   0.25265   0.00000  Uiso   1.00
C5     C     0.68066   0.91962   0.17129   0.00000  Uiso   1.00
C6     C     0.07482   0.04316   0.43113   0.00000  Uiso   1.00
C7     C     0.94591   0.07758   0.40330   0.00000  Uiso   1.00
C8     C     0.97329   0.12824   0.42510   0.00000  Uiso   1.00
C9     C     0.95528   0.21458   0.44359   0.00000  Uiso   1.00
C10    C     0.08431   0.96112   0.50609   0.00000  Uiso   1.00
C11    C     0.96337   0.92657   0.54130   0.00000  Uiso   1.00
C12    C     0.99871   0.90816   0.62621   0.00000  Uiso   1.00
C13    C     0.99545   0.86713   0.76108   0.00000  Uiso   1.00
C14    C     0.34941   0.01480   0.50275   0.00000  Uiso   1.00
C15    C     0.39696   0.98914   0.41476   0.00000  Uiso   1.00
C16    C     0.56853   0.98120   0.38256   0.00000  Uiso   1.00
C17    C     0.58389   0.95705   0.30064   0.00000  Uiso   1.00
C18    C     0.22570   0.05879   0.47904   0.00000  Uiso   1.00
C19    C     0.25327   0.10941   0.50088   0.00000  Uiso   1.00
C20    C     0.12444   0.14390   0.47309   0.00000  Uiso   1.00
C21    C     0.23520   0.97675   0.55400   0.00000  Uiso   1.00
C22    C     0.27073   0.95840   0.63888   0.00000  Uiso   1.00
C23    C     0.14987   0.92382   0.67421   0.00000  Uiso   1.00
H24    H     0.95413   0.97386   0.37725   0.00000  Uiso   1.00
H25    H     0.14437   0.93729   0.24791   0.00000  Uiso   1.00
H26    H     0.82915   0.06548   0.36624   0.00000  Uiso   1.00
H27    H     0.84662   0.91449   0.50420   0.00000  Uiso   1.00
H28    H     0.42183   0.90365   0.12564   0.00000  Uiso   1.00
H29    H     0.75713   0.17393   0.37515   0.00000  Uiso   1.00
H30    H     0.79395   0.85554   0.66609   0.00000  Uiso   1.00
H31    H     0.46689   0.02696   0.54005   0.00000  Uiso   1.00
H32    H     0.68527   0.99330   0.41964   0.00000  Uiso   1.00
H33    H     0.37004   0.12149   0.53796   0.00000  Uiso   1.00
H34    H     0.38751   0.97050   0.67593   0.00000  Uiso   1.00
H35    H     0.86084   0.94911   0.26502   0.00000  Uiso   1.00
H36    H     0.19614   0.21940   0.51453   0.00000  Uiso   1.00
H37    H     0.23297   0.90101   0.80547   0.00000  Uiso   1.00
O38    O     0.77574   0.90329   0.11317   0.00000  Uiso   1.00
O39    O     0.90367   0.25789   0.44054   0.00000  Uiso   1.00
O40    O     0.95198   0.84017   0.82224   0.00000  Uiso   1.00
N41    N     0.49518   0.91896   0.17497   0.00000  Uiso   1.00
N42    N     0.87374   0.17166   0.40824   0.00000  Uiso   1.00
N43    N     0.90814   0.87400   0.68025   0.00000  Uiso   1.00
N44    N     0.73141   0.94342   0.24997   0.00000  Uiso   1.00
N45    N     0.10997   0.19612   0.48324   0.00000  Uiso   1.00
N46    N     0.14437   0.89846   0.75525   0.00000  Uiso   1.00
C47    C     0.42839   0.01397   0.91454   0.00000  Uiso   1.00
C48    C     0.25392   0.02649   0.86685   0.00000  Uiso   1.00
C49    C     0.23882   0.05063   0.78497   0.00000  Uiso   1.00
C50    C     0.06728   0.05860   0.75265   0.00000  Uiso   1.00
C51    C     0.81934   0.08038   0.67129   0.00000  Uiso   1.00
C52    C     0.42518   0.95684   0.93113   0.00000  Uiso   1.00
C53    C     0.55409   0.92242   0.90330   0.00000  Uiso   1.00
C54    C     0.52671   0.87176   0.92510   0.00000  Uiso   1.00
C55    C     0.54472   0.78542   0.94359   0.00000  Uiso   1.00
C56    C     0.41569   0.03888   0.00609   0.00000  Uiso   1.00
C57    C     0.53663   0.07343   0.04130   0.00000  Uiso   1.00
C58    C     0.50129   0.09184   0.12621   0.00000  Uiso   1.00
C59    C     0.50455   0.13287   0.26108   0.00000  Uiso   1.00
C60    C     0.15059   0.98520   0.00275   0.00000  Uiso   1.00
C61    C     0.10304   0.01086   0.91476   0.00000  Uiso   1.00
C62    C     0.93147   0.01880   0.88256   0.00000  Uiso   1.00
C63    C     0.91611   0.04295   0.80064   0.00000  Uiso   1.00
C64    C     0.27430   0.94121   0.97904   0.00000  Uiso   1.00
C65    C     0.24673   0.89059   0.00088   0.00000  Uiso   1.00
C66    C     0.37556   0.85610   0.97309   0.00000  Uiso   1.00
C67    C     0.26480   0.02325   0.05400   0.00000  Uiso   1.00
C68    C     0.22927   0.04160   0.13888   0.00000  Uiso   1.00
C69    C     0.35013   0.07618   0.17421   0.00000  Uiso   1.00
H70    H     0.54587   0.02614   0.87725   0.00000  Uiso   1.00
H71    H     0.35563   0.06271   0.74791   0.00000  Uiso   1.00
H72    H     0.67085   0.93452   0.86624   0.00000  Uiso   1.00
H73    H     0.65338   0.08551   0.00420   0.00000  Uiso   1.00
H74    H     0.07817   0.09635   0.62564   0.00000  Uiso   1.00
H75    H     0.74287   0.82607   0.87515   0.00000  Uiso   1.00
H76    H     0.70605   0.14446   0.16609   0.00000  Uiso   1.00
H77    H     0.03311   0.97304   0.04005   0.00000  Uiso   1.00
H78    H     0.81473   0.00670   0.91964   0.00000  Uiso   1.00
H79    H     0.12996   0.87851   0.03796   0.00000  Uiso   1.00
H80    H     0.11249   0.02950   0.17593   0.00000  Uiso   1.00
H81    H     0.63916   0.05089   0.76502   0.00000  Uiso   1.00
H82    H     0.30386   0.78060   0.01453   0.00000  Uiso   1.00
H83    H     0.26703   0.09899   0.30547   0.00000  Uiso   1.00
O84    O     0.72426   0.09671   0.61317   0.00000  Uiso   1.00
O85    O     0.59633   0.74211   0.94054   0.00000  Uiso   1.00
O86    O     0.54802   0.15983   0.32224   0.00000  Uiso   1.00
N87    N     0.00482   0.08104   0.67497   0.00000  Uiso   1.00
N88    N     0.62626   0.82834   0.90824   0.00000  Uiso   1.00
N89    N     0.59186   0.12600   0.18025   0.00000  Uiso   1.00
N90    N     0.76859   0.05658   0.74997   0.00000  Uiso   1.00
N91    N     0.39003   0.80388   0.98324   0.00000  Uiso   1.00
N92    N     0.35563   0.10154   0.25525   0.00000  Uiso   1.00
C93    C     0.92839   0.48603   0.08546   0.00000  Uiso   1.00
C94    C     0.75392   0.47351   0.13315   0.00000  Uiso   1.00
C95    C     0.73882   0.44937   0.21503   0.00000  Uiso   1.00
C96    C     0.56728   0.44140   0.24735   0.00000  Uiso   1.00
C97    C     0.31934   0.41962   0.32871   0.00000  Uiso   1.00
C98    C     0.92518   0.54316   0.06887   0.00000  Uiso   1.00
C99    C     0.05409   0.57758   0.09670   0.00000  Uiso   1.00
C100   C     0.02671   0.62824   0.07490   0.00000  Uiso   1.00
C101   C     0.04472   0.71458   0.05641   0.00000  Uiso   1.00
C102   C     0.91569   0.46112   0.99391   0.00000  Uiso   1.00
C103   C     0.03663   0.42657   0.95870   0.00000  Uiso   1.00
C104   C     0.00129   0.40816   0.87379   0.00000  Uiso   1.00
C105   C     0.00455   0.36713   0.73892   0.00000  Uiso   1.00
C106   C     0.65059   0.51480   0.99725   0.00000  Uiso   1.00
C107   C     0.60304   0.48914   0.08524   0.00000  Uiso   1.00
C108   C     0.43147   0.48120   0.11744   0.00000  Uiso   1.00
C109   C     0.41611   0.45705   0.19936   0.00000  Uiso   1.00
C110   C     0.77430   0.55879   0.02096   0.00000  Uiso   1.00
C111   C     0.74673   0.60941   0.99912   0.00000  Uiso   1.00
C112   C     0.87556   0.64390   0.02691   0.00000  Uiso   1.00
C113   C     0.76480   0.47675   0.94600   0.00000  Uiso   1.00
C114   C     0.72927   0.45840   0.86112   0.00000  Uiso   1.00
C115   C     0.85013   0.42382   0.82579   0.00000  Uiso   1.00
H116   H     0.04587   0.47386   0.12275   0.00000  Uiso   1.00
H117   H     0.85563   0.43729   0.25209   0.00000  Uiso   1.00
H118   H     0.17085   0.56548   0.13376   0.00000  Uiso   1.00
H119   H     0.15338   0.41449   0.99580   0.00000  Uiso   1.00
H120   H     0.57817   0.40365   0.37436   0.00000  Uiso   1.00
H121   H     0.24287   0.67393   0.12485   0.00000  Uiso   1.00
H122   H     0.20605   0.35554   0.83391   0.00000  Uiso   1.00
H123   H     0.53311   0.52696   0.95995   0.00000  Uiso   1.00
H124   H     0.31473   0.49330   0.08036   0.00000  Uiso   1.00
H125   H     0.62996   0.62149   0.96204   0.00000  Uiso   1.00
H126   H     0.61249   0.47050   0.82407   0.00000  Uiso   1.00
H127   H     0.13916   0.44911   0.23498   0.00000  Uiso   1.00
H128   H     0.80386   0.71940   0.98547   0.00000  Uiso   1.00
H129   H     0.76703   0.40101   0.69453   0.00000  Uiso   1.00
O130   O     0.22426   0.40329   0.38683   0.00000  Uiso   1.00
O131   O     0.09633   0.75789   0.05946   0.00000  Uiso   1.00
O132   O     0.04802   0.34017   0.67776   0.00000  Uiso   1.00
N133   N     0.50482   0.41896   0.32503   0.00000  Uiso   1.00
N134   N     0.12626   0.67166   0.09176   0.00000  Uiso   1.00
N135   N     0.09186   0.37400   0.81975   0.00000  Uiso   1.00
N136   N     0.26859   0.44342   0.25003   0.00000  Uiso   1.00
N137   N     0.89003   0.69612   0.01676   0.00000  Uiso   1.00
N138   N     0.85563   0.39846   0.74475   0.00000  Uiso   1.00
C139   C     0.57161   0.51397   0.58546   0.00000  Uiso   1.00
C140   C     0.74608   0.52649   0.63315   0.00000  Uiso   1.00
C141   C     0.76118   0.55063   0.71503   0.00000  Uiso   1.00
C142   C     0.93272   0.55860   0.74735   0.00000  Uiso   1.00
C143   C     0.18066   0.58038   0.82871   0.00000  Uiso   1.00
C144   C     0.57482   0.45684   0.56887   0.00000  Uiso   1.00
C145   C     0.44591   0.42242   0.59670   0.00000  Uiso   1.00
C146   C     0.47329   0.37176   0.57490   0.00000  Uiso   1.00
C147   C     0.45528   0.28542   0.55641   0.00000  Uiso   1.00
C148   C     0.58431   0.53888   0.49391   0.00000  Uiso   1.00
C149   C     0.46337   0.57343   0.45870   0.00000  Uiso   1.00
C150   C     0.49871   0.59184   0.37379   0.00000  Uiso   1.00
C151   C     0.49545   0.63287   0.23892   0.00000  Uiso   1.00
C152   C     0.84941   0.48520   0.49725   0.00000  Uiso   1.00
C153   C     0.89696   0.51086   0.58524   0.00000  Uiso   1.00
C154   C     0.06853   0.51880   0.61744   0.00000  Uiso   1.00
C155   C     0.08389   0.54295   0.69936   0.00000  Uiso   1.00
C156   C     0.72570   0.44121   0.52096   0.00000  Uiso   1.00
C157   C     0.75327   0.39059   0.49912   0.00000  Uiso   1.00
C158   C     0.62444   0.35610   0.52691   0.00000  Uiso   1.00
C159   C     0.73520   0.52325   0.44600   0.00000  Uiso   1.00
C160   C     0.77073   0.54160   0.36112   0.00000  Uiso   1.00
C161   C     0.64987   0.57618   0.32579   0.00000  Uiso   1.00
H162   H     0.45413   0.52614   0.62275   0.00000  Uiso   1.00
H163   H     0.64437   0.56271   0.75209   0.00000  Uiso   1.00
H164   H     0.32915   0.43452   0.63376   0.00000  Uiso   1.00
H165   H     0.34662   0.58551   0.49580   0.00000  Uiso   1.00
H166   H     0.92183   0.59635   0.87436   0.00000  Uiso   1.00
H167   H     0.25713   0.32607   0.62485   0.00000  Uiso   1.00
H168   H     0.29395   0.64446   0.33391   0.00000  Uiso   1.00
H169   H     0.96689   0.47304   0.45995   0.00000  Uiso   1.00
H170   H     0.18527   0.50670   0.58036   0.00000  Uiso   1.00
H171   H     0.87004   0.37851   0.46204   0.00000  Uiso   1.00
H172   H     0.88751   0.52950   0.32407   0.00000  Uiso   1.00
H173   H     0.36084   0.55089   0.73498   0.00000  Uiso   1.00
H174   H     0.69614   0.28060   0.48547   0.00000  Uiso   1.00
H175   H     0.73297   0.59899   0.19453   0.00000  Uiso   1.00
O176   O     0.27574   0.59671   0.88683   0.00000  Uiso   1.00
O177   O     0.40367   0.24211   0.55946   0.00000  Uiso   1.00
O178   O     0.45198   0.65983   0.17776   0.00000  Uiso   1.00
N179   N     0.99518   0.58104   0.82503   0.00000  Uiso   1.00
N180   N     0.37374   0.32834   0.59176   0.00000  Uiso   1.00
N181   N     0.40814   0.62600   0.31975   0.00000  Uiso   1.00
N182   N     0.23141   0.55658   0.75003   0.00000  Uiso   1.00
N183   N     0.60997   0.30388   0.51676   0.00000  Uiso   1.00
N184   N     0.64437   0.60154   0.24475   0.00000  Uiso   1.00
