data_job_04766
_audit_creation_date              2018-12-19
_audit_creation_method            'Materials Studio'
_symmetry_space_group_name_H-M    'P1'
_symmetry_Int_Tables_number       1
_symmetry_cell_setting            triclinic
loop_
_symmetry_equiv_pos_as_xyz
  x,y,z
_cell_length_a                    31.6549
_cell_length_b                    8.6743
_cell_length_c                    20.2817
_cell_angle_alpha                 90.0000
_cell_angle_beta                  116.1550
_cell_angle_gamma                 90.0000
loop_
_atom_site_label
_atom_site_type_symbol
_atom_site_fract_x
_atom_site_fract_y
_atom_site_fract_z
_atom_site_U_iso_or_equiv
_atom_site_adp_type
_atom_site_occupancy
C1     C     0.86204   0.96225   0.06397   0.00000  Uiso   1.00
C2     C     0.86797   0.03902   0.13518   0.00000  Uiso   1.00
C3     C     0.84336   0.00146   0.17513   0.00000  Uiso   1.00
C4     C     0.85389   0.08525   0.23880   0.00000  Uiso   1.00
C5     C     0.85791   0.18668   0.34587   0.00000  Uiso   1.00
C6     C     0.85023   0.09144   0.00761   0.00000  Uiso   1.00
C7     C     0.81072   0.09793   0.94030   0.00000  Uiso   1.00
C8     C     0.80632   0.22584   0.89659   0.00000  Uiso   1.00
C9     C     0.78283   0.40860   0.80559   0.00000  Uiso   1.00
C10    C     0.91073   0.90406   0.07794   0.00000  Uiso   1.00
C11    C     0.92207   0.75302   0.06973   0.00000  Uiso   1.00
C12    C     0.96861   0.72317   0.08521   0.00000  Uiso   1.00
C13    C     0.03904   0.61500   0.10339   0.00000  Uiso   1.00
C14    C     0.92450   0.17785   0.10602   0.00000  Uiso   1.00
C15    C     0.90189   0.15612   0.15801   0.00000  Uiso   1.00
C16    C     0.91247   0.23999   0.22165   0.00000  Uiso   1.00
C17    C     0.88788   0.20255   0.26168   0.00000  Uiso   1.00
C18    C     0.88416   0.20854   0.03045   0.00000  Uiso   1.00
C19    C     0.87982   0.33646   0.98682   0.00000  Uiso   1.00
C20    C     0.84031   0.34315   0.91946   0.00000  Uiso   1.00
C21    C     0.94465   0.02116   0.10077   0.00000  Uiso   1.00
C22    C     0.99118   0.99155   0.11626   0.00000  Uiso   1.00
C23    C     0.00259   0.84049   0.10808   0.00000  Uiso   1.00
H24    H     0.83563   0.87109   0.04619   0.00000  Uiso   1.00
H25    H     0.81710   0.91084   0.15743   0.00000  Uiso   1.00
H26    H     0.78447   0.00729   0.92264   0.00000  Uiso   1.00
H27    H     0.89581   0.66243   0.05206   0.00000  Uiso   1.00
H28    H     0.81151   0.00658   0.29083   0.00000  Uiso   1.00
H29    H     0.74271   0.20993   0.79574   0.00000  Uiso   1.00
H30    H     0.97749   0.48272   0.06864   0.00000  Uiso   1.00
H31    H     0.95092   0.26902   0.12379   0.00000  Uiso   1.00
H32    H     0.93872   0.33060   0.23930   0.00000  Uiso   1.00
H33    H     0.90609   0.42705   0.00451   0.00000  Uiso   1.00
H34    H     0.01742   0.08219   0.13393   0.00000  Uiso   1.00
H35    H     0.91022   0.34728   0.35727   0.00000  Uiso   1.00
H36    H     0.84142   0.55062   0.86218   0.00000  Uiso   1.00
H37    H     0.07620   0.82342   0.13509   0.00000  Uiso   1.00
O38    O     0.85075   0.21030   0.39862   0.00000  Uiso   1.00
O39    O     0.76049   0.47706   0.74908   0.00000  Uiso   1.00
O40    O     0.06852   0.52298   0.10713   0.00000  Uiso   1.00
N41    N     0.83643   0.07829   0.29062   0.00000  Uiso   1.00
N42    N     0.77210   0.26842   0.82775   0.00000  Uiso   1.00
N43    N     0.99159   0.58855   0.08287   0.00000  Uiso   1.00
N44    N     0.88954   0.26162   0.32637   0.00000  Uiso   1.00
N45    N     0.82521   0.45175   0.86351   0.00000  Uiso   1.00
N46    N     0.04471   0.77188   0.11862   0.00000  Uiso   1.00
C47    C     0.36204   0.46225   0.06397   0.00000  Uiso   1.00
C48    C     0.36797   0.53902   0.13518   0.00000  Uiso   1.00
C49    C     0.34336   0.50146   0.17513   0.00000  Uiso   1.00
C50    C     0.35389   0.58525   0.23880   0.00000  Uiso   1.00
C51    C     0.35791   0.68668   0.34587   0.00000  Uiso   1.00
C52    C     0.35023   0.59144   0.00761   0.00000  Uiso   1.00
C53    C     0.31072   0.59793   0.94030   0.00000  Uiso   1.00
C54    C     0.30632   0.72584   0.89659   0.00000  Uiso   1.00
C55    C     0.28283   0.90860   0.80559   0.00000  Uiso   1.00
C56    C     0.41073   0.40406   0.07794   0.00000  Uiso   1.00
C57    C     0.42207   0.25302   0.06973   0.00000  Uiso   1.00
C58    C     0.46861   0.22317   0.08521   0.00000  Uiso   1.00
C59    C     0.53904   0.11500   0.10339   0.00000  Uiso   1.00
C60    C     0.42450   0.67785   0.10602   0.00000  Uiso   1.00
C61    C     0.40189   0.65612   0.15801   0.00000  Uiso   1.00
C62    C     0.41247   0.73999   0.22165   0.00000  Uiso   1.00
C63    C     0.38788   0.70255   0.26168   0.00000  Uiso   1.00
C64    C     0.38416   0.70854   0.03045   0.00000  Uiso   1.00
C65    C     0.37982   0.83646   0.98682   0.00000  Uiso   1.00
C66    C     0.34031   0.84315   0.91946   0.00000  Uiso   1.00
C67    C     0.44465   0.52116   0.10077   0.00000  Uiso   1.00
C68    C     0.49118   0.49155   0.11626   0.00000  Uiso   1.00
C69    C     0.50259   0.34049   0.10808   0.00000  Uiso   1.00
H70    H     0.33563   0.37109   0.04619   0.00000  Uiso   1.00
H71    H     0.31710   0.41084   0.15743   0.00000  Uiso   1.00
H72    H     0.28447   0.50729   0.92264   0.00000  Uiso   1.00
H73    H     0.39581   0.16243   0.05206   0.00000  Uiso   1.00
H74    H     0.31151   0.50658   0.29083   0.00000  Uiso   1.00
H75    H     0.24271   0.70993   0.79574   0.00000  Uiso   1.00
H76    H     0.47749   0.98272   0.06864   0.00000  Uiso   1.00
H77    H     0.45092   0.76902   0.12379   0.00000  Uiso   1.00
H78    H     0.43872   0.83060   0.23930   0.00000  Uiso   1.00
H79    H     0.40609   0.92705   0.00451   0.00000  Uiso   1.00
H80    H     0.51742   0.58219   0.13393   0.00000  Uiso   1.00
H81    H     0.41022   0.84728   0.35727   0.00000  Uiso   1.00
H82    H     0.34142   0.05062   0.86218   0.00000  Uiso   1.00
H83    H     0.57620   0.32342   0.13509   0.00000  Uiso   1.00
O84    O     0.35075   0.71030   0.39862   0.00000  Uiso   1.00
O85    O     0.26049   0.97706   0.74908   0.00000  Uiso   1.00
O86    O     0.56852   0.02298   0.10713   0.00000  Uiso   1.00
N87    N     0.33643   0.57829   0.29062   0.00000  Uiso   1.00
N88    N     0.27210   0.76842   0.82775   0.00000  Uiso   1.00
N89    N     0.49159   0.08855   0.08287   0.00000  Uiso   1.00
N90    N     0.38954   0.76162   0.32637   0.00000  Uiso   1.00
N91    N     0.32521   0.95175   0.86351   0.00000  Uiso   1.00
N92    N     0.54471   0.27188   0.11862   0.00000  Uiso   1.00
C93    C     0.13796   0.96225   0.43603   0.00000  Uiso   1.00
C94    C     0.13203   0.03902   0.36482   0.00000  Uiso   1.00
C95    C     0.15664   0.00146   0.32487   0.00000  Uiso   1.00
C96    C     0.14611   0.08525   0.26120   0.00000  Uiso   1.00
C97    C     0.14209   0.18668   0.15413   0.00000  Uiso   1.00
C98    C     0.14977   0.09144   0.49239   0.00000  Uiso   1.00
C99    C     0.18928   0.09793   0.55970   0.00000  Uiso   1.00
C100   C     0.19368   0.22584   0.60341   0.00000  Uiso   1.00
C101   C     0.21717   0.40860   0.69441   0.00000  Uiso   1.00
C102   C     0.08927   0.90406   0.42206   0.00000  Uiso   1.00
C103   C     0.07793   0.75302   0.43027   0.00000  Uiso   1.00
C104   C     0.03139   0.72317   0.41479   0.00000  Uiso   1.00
C105   C     0.96096   0.61500   0.39661   0.00000  Uiso   1.00
C106   C     0.07550   0.17785   0.39398   0.00000  Uiso   1.00
C107   C     0.09811   0.15612   0.34199   0.00000  Uiso   1.00
C108   C     0.08753   0.23999   0.27835   0.00000  Uiso   1.00
C109   C     0.11212   0.20255   0.23832   0.00000  Uiso   1.00
C110   C     0.11584   0.20854   0.46955   0.00000  Uiso   1.00
C111   C     0.12018   0.33646   0.51318   0.00000  Uiso   1.00
C112   C     0.15969   0.34315   0.58054   0.00000  Uiso   1.00
C113   C     0.05535   0.02116   0.39923   0.00000  Uiso   1.00
C114   C     0.00882   0.99155   0.38374   0.00000  Uiso   1.00
C115   C     0.99741   0.84049   0.39192   0.00000  Uiso   1.00
H116   H     0.16437   0.87109   0.45381   0.00000  Uiso   1.00
H117   H     0.18290   0.91084   0.34257   0.00000  Uiso   1.00
H118   H     0.21553   0.00729   0.57736   0.00000  Uiso   1.00
H119   H     0.10419   0.66243   0.44794   0.00000  Uiso   1.00
H120   H     0.18849   0.00658   0.20917   0.00000  Uiso   1.00
H121   H     0.25729   0.20993   0.70426   0.00000  Uiso   1.00
H122   H     0.02251   0.48272   0.43136   0.00000  Uiso   1.00
H123   H     0.04908   0.26902   0.37621   0.00000  Uiso   1.00
H124   H     0.06128   0.33060   0.26070   0.00000  Uiso   1.00
H125   H     0.09391   0.42705   0.49549   0.00000  Uiso   1.00
H126   H     0.98258   0.08219   0.36607   0.00000  Uiso   1.00
H127   H     0.08978   0.34728   0.14273   0.00000  Uiso   1.00
H128   H     0.15858   0.55062   0.63782   0.00000  Uiso   1.00
H129   H     0.92380   0.82342   0.36491   0.00000  Uiso   1.00
O130   O     0.14925   0.21030   0.10138   0.00000  Uiso   1.00
O131   O     0.23951   0.47706   0.75092   0.00000  Uiso   1.00
O132   O     0.93148   0.52298   0.39287   0.00000  Uiso   1.00
N133   N     0.16357   0.07829   0.20938   0.00000  Uiso   1.00
N134   N     0.22790   0.26842   0.67225   0.00000  Uiso   1.00
N135   N     0.00841   0.58855   0.41713   0.00000  Uiso   1.00
N136   N     0.11046   0.26162   0.17363   0.00000  Uiso   1.00
N137   N     0.17479   0.45175   0.63649   0.00000  Uiso   1.00
N138   N     0.95529   0.77188   0.38138   0.00000  Uiso   1.00
C139   C     0.63796   0.46225   0.43603   0.00000  Uiso   1.00
C140   C     0.63203   0.53902   0.36482   0.00000  Uiso   1.00
C141   C     0.65664   0.50146   0.32487   0.00000  Uiso   1.00
C142   C     0.64611   0.58525   0.26120   0.00000  Uiso   1.00
C143   C     0.64209   0.68668   0.15413   0.00000  Uiso   1.00
C144   C     0.64977   0.59144   0.49239   0.00000  Uiso   1.00
C145   C     0.68928   0.59793   0.55970   0.00000  Uiso   1.00
C146   C     0.69368   0.72584   0.60341   0.00000  Uiso   1.00
C147   C     0.71717   0.90860   0.69441   0.00000  Uiso   1.00
C148   C     0.58927   0.40406   0.42206   0.00000  Uiso   1.00
C149   C     0.57793   0.25302   0.43027   0.00000  Uiso   1.00
C150   C     0.53139   0.22317   0.41479   0.00000  Uiso   1.00
C151   C     0.46096   0.11500   0.39661   0.00000  Uiso   1.00
C152   C     0.57550   0.67785   0.39398   0.00000  Uiso   1.00
C153   C     0.59811   0.65612   0.34199   0.00000  Uiso   1.00
C154   C     0.58753   0.73999   0.27835   0.00000  Uiso   1.00
C155   C     0.61212   0.70255   0.23832   0.00000  Uiso   1.00
C156   C     0.61584   0.70854   0.46955   0.00000  Uiso   1.00
C157   C     0.62018   0.83646   0.51318   0.00000  Uiso   1.00
C158   C     0.65969   0.84315   0.58054   0.00000  Uiso   1.00
C159   C     0.55535   0.52116   0.39923   0.00000  Uiso   1.00
C160   C     0.50882   0.49155   0.38374   0.00000  Uiso   1.00
C161   C     0.49741   0.34049   0.39192   0.00000  Uiso   1.00
H162   H     0.66437   0.37109   0.45381   0.00000  Uiso   1.00
H163   H     0.68290   0.41084   0.34257   0.00000  Uiso   1.00
H164   H     0.71553   0.50729   0.57736   0.00000  Uiso   1.00
H165   H     0.60419   0.16243   0.44794   0.00000  Uiso   1.00
H166   H     0.68849   0.50658   0.20917   0.00000  Uiso   1.00
H167   H     0.75729   0.70993   0.70426   0.00000  Uiso   1.00
H168   H     0.52251   0.98272   0.43136   0.00000  Uiso   1.00
H169   H     0.54908   0.76902   0.37621   0.00000  Uiso   1.00
H170   H     0.56128   0.83060   0.26070   0.00000  Uiso   1.00
H171   H     0.59391   0.92705   0.49549   0.00000  Uiso   1.00
H172   H     0.48258   0.58219   0.36607   0.00000  Uiso   1.00
H173   H     0.58978   0.84728   0.14273   0.00000  Uiso   1.00
H174   H     0.65858   0.05062   0.63782   0.00000  Uiso   1.00
H175   H     0.42380   0.32342   0.36491   0.00000  Uiso   1.00
O176   O     0.64925   0.71030   0.10138   0.00000  Uiso   1.00
O177   O     0.73951   0.97706   0.75092   0.00000  Uiso   1.00
O178   O     0.43148   0.02298   0.39287   0.00000  Uiso   1.00
N179   N     0.66357   0.57829   0.20938   0.00000  Uiso   1.00
N180   N     0.72790   0.76842   0.67225   0.00000  Uiso   1.00
N181   N     0.50841   0.08855   0.41713   0.00000  Uiso   1.00
N182   N     0.61046   0.76162   0.17363   0.00000  Uiso   1.00
N183   N     0.67479   0.95175   0.63649   0.00000  Uiso   1.00
N184   N     0.45529   0.27188   0.38138   0.00000  Uiso   1.00
C185   C     0.13796   0.03775   0.93603   0.00000  Uiso   1.00
C186   C     0.13203   0.96098   0.86482   0.00000  Uiso   1.00
C187   C     0.15664   0.99854   0.82487   0.00000  Uiso   1.00
C188   C     0.14611   0.91475   0.76120   0.00000  Uiso   1.00
C189   C     0.14209   0.81332   0.65413   0.00000  Uiso   1.00
C190   C     0.14977   0.90856   0.99239   0.00000  Uiso   1.00
C191   C     0.18928   0.90207   0.05970   0.00000  Uiso   1.00
C192   C     0.19368   0.77416   0.10341   0.00000  Uiso   1.00
C193   C     0.21717   0.59140   0.19441   0.00000  Uiso   1.00
C194   C     0.08927   0.09594   0.92206   0.00000  Uiso   1.00
C195   C     0.07793   0.24698   0.93027   0.00000  Uiso   1.00
C196   C     0.03139   0.27683   0.91479   0.00000  Uiso   1.00
C197   C     0.96096   0.38500   0.89661   0.00000  Uiso   1.00
C198   C     0.07550   0.82215   0.89398   0.00000  Uiso   1.00
C199   C     0.09811   0.84388   0.84199   0.00000  Uiso   1.00
C200   C     0.08753   0.76001   0.77835   0.00000  Uiso   1.00
C201   C     0.11212   0.79745   0.73832   0.00000  Uiso   1.00
C202   C     0.11584   0.79146   0.96955   0.00000  Uiso   1.00
C203   C     0.12018   0.66354   0.01318   0.00000  Uiso   1.00
C204   C     0.15969   0.65685   0.08054   0.00000  Uiso   1.00
C205   C     0.05535   0.97884   0.89923   0.00000  Uiso   1.00
C206   C     0.00882   0.00845   0.88374   0.00000  Uiso   1.00
C207   C     0.99741   0.15951   0.89192   0.00000  Uiso   1.00
H208   H     0.16437   0.12891   0.95381   0.00000  Uiso   1.00
H209   H     0.18290   0.08916   0.84257   0.00000  Uiso   1.00
H210   H     0.21553   0.99271   0.07736   0.00000  Uiso   1.00
H211   H     0.10419   0.33757   0.94794   0.00000  Uiso   1.00
H212   H     0.18849   0.99342   0.70917   0.00000  Uiso   1.00
H213   H     0.25729   0.79007   0.20426   0.00000  Uiso   1.00
H214   H     0.02251   0.51728   0.93136   0.00000  Uiso   1.00
H215   H     0.04908   0.73098   0.87621   0.00000  Uiso   1.00
H216   H     0.06128   0.66940   0.76070   0.00000  Uiso   1.00
H217   H     0.09391   0.57295   0.99549   0.00000  Uiso   1.00
H218   H     0.98258   0.91781   0.86607   0.00000  Uiso   1.00
H219   H     0.08978   0.65272   0.64273   0.00000  Uiso   1.00
H220   H     0.15858   0.44938   0.13782   0.00000  Uiso   1.00
H221   H     0.92380   0.17658   0.86491   0.00000  Uiso   1.00
O222   O     0.14925   0.78970   0.60138   0.00000  Uiso   1.00
O223   O     0.23951   0.52294   0.25092   0.00000  Uiso   1.00
O224   O     0.93148   0.47702   0.89287   0.00000  Uiso   1.00
N225   N     0.16357   0.92171   0.70938   0.00000  Uiso   1.00
N226   N     0.22790   0.73158   0.17225   0.00000  Uiso   1.00
N227   N     0.00841   0.41145   0.91713   0.00000  Uiso   1.00
N228   N     0.11046   0.73838   0.67363   0.00000  Uiso   1.00
N229   N     0.17479   0.54825   0.13649   0.00000  Uiso   1.00
N230   N     0.95529   0.22812   0.88138   0.00000  Uiso   1.00
C231   C     0.63796   0.53775   0.93603   0.00000  Uiso   1.00
C232   C     0.63203   0.46098   0.86482   0.00000  Uiso   1.00
C233   C     0.65664   0.49854   0.82487   0.00000  Uiso   1.00
C234   C     0.64611   0.41475   0.76120   0.00000  Uiso   1.00
C235   C     0.64209   0.31332   0.65413   0.00000  Uiso   1.00
C236   C     0.64977   0.40856   0.99239   0.00000  Uiso   1.00
C237   C     0.68928   0.40207   0.05970   0.00000  Uiso   1.00
C238   C     0.69368   0.27416   0.10341   0.00000  Uiso   1.00
C239   C     0.71717   0.09140   0.19441   0.00000  Uiso   1.00
C240   C     0.58927   0.59594   0.92206   0.00000  Uiso   1.00
C241   C     0.57793   0.74698   0.93027   0.00000  Uiso   1.00
C242   C     0.53139   0.77683   0.91479   0.00000  Uiso   1.00
C243   C     0.46096   0.88500   0.89661   0.00000  Uiso   1.00
C244   C     0.57550   0.32215   0.89398   0.00000  Uiso   1.00
C245   C     0.59811   0.34388   0.84199   0.00000  Uiso   1.00
C246   C     0.58753   0.26001   0.77835   0.00000  Uiso   1.00
C247   C     0.61212   0.29745   0.73832   0.00000  Uiso   1.00
C248   C     0.61584   0.29146   0.96955   0.00000  Uiso   1.00
C249   C     0.62018   0.16354   0.01318   0.00000  Uiso   1.00
C250   C     0.65969   0.15685   0.08054   0.00000  Uiso   1.00
C251   C     0.55535   0.47884   0.89923   0.00000  Uiso   1.00
C252   C     0.50882   0.50845   0.88374   0.00000  Uiso   1.00
C253   C     0.49741   0.65951   0.89192   0.00000  Uiso   1.00
H254   H     0.66437   0.62891   0.95381   0.00000  Uiso   1.00
H255   H     0.68290   0.58916   0.84257   0.00000  Uiso   1.00
H256   H     0.71553   0.49271   0.07736   0.00000  Uiso   1.00
H257   H     0.60419   0.83757   0.94794   0.00000  Uiso   1.00
H258   H     0.68849   0.49342   0.70917   0.00000  Uiso   1.00
H259   H     0.75729   0.29007   0.20426   0.00000  Uiso   1.00
H260   H     0.52251   0.01728   0.93136   0.00000  Uiso   1.00
H261   H     0.54908   0.23098   0.87621   0.00000  Uiso   1.00
H262   H     0.56128   0.16940   0.76070   0.00000  Uiso   1.00
H263   H     0.59391   0.07295   0.99549   0.00000  Uiso   1.00
H264   H     0.48258   0.41781   0.86607   0.00000  Uiso   1.00
H265   H     0.58978   0.15272   0.64273   0.00000  Uiso   1.00
H266   H     0.65858   0.94938   0.13782   0.00000  Uiso   1.00
H267   H     0.42380   0.67658   0.86491   0.00000  Uiso   1.00
O268   O     0.64925   0.28970   0.60138   0.00000  Uiso   1.00
O269   O     0.73951   0.02294   0.25092   0.00000  Uiso   1.00
O270   O     0.43148   0.97702   0.89287   0.00000  Uiso   1.00
N271   N     0.66357   0.42171   0.70938   0.00000  Uiso   1.00
N272   N     0.72790   0.23158   0.17225   0.00000  Uiso   1.00
N273   N     0.50841   0.91145   0.91713   0.00000  Uiso   1.00
N274   N     0.61046   0.23838   0.67363   0.00000  Uiso   1.00
N275   N     0.67479   0.04825   0.13649   0.00000  Uiso   1.00
N276   N     0.45529   0.72812   0.88138   0.00000  Uiso   1.00
C277   C     0.86204   0.03775   0.56397   0.00000  Uiso   1.00
C278   C     0.86797   0.96098   0.63518   0.00000  Uiso   1.00
C279   C     0.84336   0.99854   0.67513   0.00000  Uiso   1.00
C280   C     0.85389   0.91475   0.73880   0.00000  Uiso   1.00
C281   C     0.85791   0.81332   0.84587   0.00000  Uiso   1.00
C282   C     0.85023   0.90856   0.50761   0.00000  Uiso   1.00
C283   C     0.81072   0.90207   0.44030   0.00000  Uiso   1.00
C284   C     0.80632   0.77416   0.39659   0.00000  Uiso   1.00
C285   C     0.78283   0.59140   0.30559   0.00000  Uiso   1.00
C286   C     0.91073   0.09594   0.57794   0.00000  Uiso   1.00
C287   C     0.92207   0.24698   0.56973   0.00000  Uiso   1.00
C288   C     0.96861   0.27683   0.58521   0.00000  Uiso   1.00
C289   C     0.03904   0.38500   0.60339   0.00000  Uiso   1.00
C290   C     0.92450   0.82215   0.60602   0.00000  Uiso   1.00
C291   C     0.90189   0.84388   0.65801   0.00000  Uiso   1.00
C292   C     0.91247   0.76001   0.72165   0.00000  Uiso   1.00
C293   C     0.88788   0.79745   0.76168   0.00000  Uiso   1.00
C294   C     0.88416   0.79146   0.53045   0.00000  Uiso   1.00
C295   C     0.87982   0.66354   0.48682   0.00000  Uiso   1.00
C296   C     0.84031   0.65685   0.41946   0.00000  Uiso   1.00
C297   C     0.94465   0.97884   0.60077   0.00000  Uiso   1.00
C298   C     0.99118   0.00845   0.61626   0.00000  Uiso   1.00
C299   C     0.00259   0.15951   0.60808   0.00000  Uiso   1.00
H300   H     0.83563   0.12891   0.54619   0.00000  Uiso   1.00
H301   H     0.81710   0.08916   0.65743   0.00000  Uiso   1.00
H302   H     0.78447   0.99271   0.42264   0.00000  Uiso   1.00
H303   H     0.89581   0.33757   0.55206   0.00000  Uiso   1.00
H304   H     0.81151   0.99342   0.79083   0.00000  Uiso   1.00
H305   H     0.74271   0.79007   0.29574   0.00000  Uiso   1.00
H306   H     0.97749   0.51728   0.56864   0.00000  Uiso   1.00
H307   H     0.95092   0.73098   0.62379   0.00000  Uiso   1.00
H308   H     0.93872   0.66940   0.73930   0.00000  Uiso   1.00
H309   H     0.90609   0.57295   0.50451   0.00000  Uiso   1.00
H310   H     0.01742   0.91781   0.63393   0.00000  Uiso   1.00
H311   H     0.91022   0.65272   0.85727   0.00000  Uiso   1.00
H312   H     0.84142   0.44938   0.36218   0.00000  Uiso   1.00
H313   H     0.07620   0.17658   0.63509   0.00000  Uiso   1.00
O314   O     0.85075   0.78970   0.89862   0.00000  Uiso   1.00
O315   O     0.76049   0.52294   0.24908   0.00000  Uiso   1.00
O316   O     0.06852   0.47702   0.60713   0.00000  Uiso   1.00
N317   N     0.83643   0.92171   0.79062   0.00000  Uiso   1.00
N318   N     0.77210   0.73158   0.32775   0.00000  Uiso   1.00
N319   N     0.99159   0.41145   0.58287   0.00000  Uiso   1.00
N320   N     0.88954   0.73838   0.82637   0.00000  Uiso   1.00
N321   N     0.82521   0.54825   0.36351   0.00000  Uiso   1.00
N322   N     0.04471   0.22812   0.61862   0.00000  Uiso   1.00
C323   C     0.36204   0.53775   0.56397   0.00000  Uiso   1.00
C324   C     0.36797   0.46098   0.63518   0.00000  Uiso   1.00
C325   C     0.34336   0.49854   0.67513   0.00000  Uiso   1.00
C326   C     0.35389   0.41475   0.73880   0.00000  Uiso   1.00
C327   C     0.35791   0.31332   0.84587   0.00000  Uiso   1.00
C328   C     0.35023   0.40856   0.50761   0.00000  Uiso   1.00
C329   C     0.31072   0.40207   0.44030   0.00000  Uiso   1.00
C330   C     0.30632   0.27416   0.39659   0.00000  Uiso   1.00
C331   C     0.28283   0.09140   0.30559   0.00000  Uiso   1.00
C332   C     0.41073   0.59594   0.57794   0.00000  Uiso   1.00
C333   C     0.42207   0.74698   0.56973   0.00000  Uiso   1.00
C334   C     0.46861   0.77683   0.58521   0.00000  Uiso   1.00
C335   C     0.53904   0.88500   0.60339   0.00000  Uiso   1.00
C336   C     0.42450   0.32215   0.60602   0.00000  Uiso   1.00
C337   C     0.40189   0.34388   0.65801   0.00000  Uiso   1.00
C338   C     0.41247   0.26001   0.72165   0.00000  Uiso   1.00
C339   C     0.38788   0.29745   0.76168   0.00000  Uiso   1.00
C340   C     0.38416   0.29146   0.53045   0.00000  Uiso   1.00
C341   C     0.37982   0.16354   0.48682   0.00000  Uiso   1.00
C342   C     0.34031   0.15685   0.41946   0.00000  Uiso   1.00
C343   C     0.44465   0.47884   0.60077   0.00000  Uiso   1.00
C344   C     0.49118   0.50845   0.61626   0.00000  Uiso   1.00
C345   C     0.50259   0.65951   0.60808   0.00000  Uiso   1.00
H346   H     0.33563   0.62891   0.54619   0.00000  Uiso   1.00
H347   H     0.31710   0.58916   0.65743   0.00000  Uiso   1.00
H348   H     0.28447   0.49271   0.42264   0.00000  Uiso   1.00
H349   H     0.39581   0.83757   0.55206   0.00000  Uiso   1.00
H350   H     0.31151   0.49342   0.79083   0.00000  Uiso   1.00
H351   H     0.24271   0.29007   0.29574   0.00000  Uiso   1.00
H352   H     0.47749   0.01728   0.56864   0.00000  Uiso   1.00
H353   H     0.45092   0.23098   0.62379   0.00000  Uiso   1.00
H354   H     0.43872   0.16940   0.73930   0.00000  Uiso   1.00
H355   H     0.40609   0.07295   0.50451   0.00000  Uiso   1.00
H356   H     0.51742   0.41781   0.63393   0.00000  Uiso   1.00
H357   H     0.41022   0.15272   0.85727   0.00000  Uiso   1.00
H358   H     0.34142   0.94938   0.36218   0.00000  Uiso   1.00
H359   H     0.57620   0.67658   0.63509   0.00000  Uiso   1.00
O360   O     0.35075   0.28970   0.89862   0.00000  Uiso   1.00
O361   O     0.26049   0.02294   0.24908   0.00000  Uiso   1.00
O362   O     0.56852   0.97702   0.60713   0.00000  Uiso   1.00
N363   N     0.33643   0.42171   0.79062   0.00000  Uiso   1.00
N364   N     0.27210   0.23158   0.32775   0.00000  Uiso   1.00
N365   N     0.49159   0.91145   0.58287   0.00000  Uiso   1.00
N366   N     0.38954   0.23838   0.82637   0.00000  Uiso   1.00
N367   N     0.32521   0.04825   0.36351   0.00000  Uiso   1.00
N368   N     0.54471   0.72812   0.61862   0.00000  Uiso   1.00
