data_job_02684
_audit_creation_date              2018-12-19
_audit_creation_method            'Materials Studio'
_symmetry_space_group_name_H-M    'P1'
_symmetry_Int_Tables_number       1
_symmetry_cell_setting            triclinic
loop_
_symmetry_equiv_pos_as_xyz
  x,y,z
_cell_length_a                    18.8589
_cell_length_b                    18.8589
_cell_length_c                    11.4711
_cell_angle_alpha                 90.0000
_cell_angle_beta                  90.0000
_cell_angle_gamma                 90.0000
loop_
_atom_site_label
_atom_site_type_symbol
_atom_site_fract_x
_atom_site_fract_y
_atom_site_fract_z
_atom_site_U_iso_or_equiv
_atom_site_adp_type
_atom_site_occupancy
C1     C     0.76464   0.99694   0.96996   0.00000  Uiso   1.00
C2     C     0.80669   0.01680   0.07871   0.00000  Uiso   1.00
C3     C     0.87467   0.04497   0.08013   0.00000  Uiso   1.00
C4     C     0.90396   0.05951   0.18856   0.00000  Uiso   1.00
C5     C     0.97497   0.09231   0.34172   0.00000  Uiso   1.00
C6     C     0.74472   0.91906   0.98432   0.00000  Uiso   1.00
C7     C     0.76058   0.86506   0.90636   0.00000  Uiso   1.00
C8     C     0.73770   0.79734   0.93533   0.00000  Uiso   1.00
C9     C     0.71245   0.67841   0.94191   0.00000  Uiso   1.00
C10    C     0.69532   0.03834   0.97708   0.00000  Uiso   1.00
C11    C     0.66963   0.08462   0.89303   0.00000  Uiso   1.00
C12    C     0.60514   0.11731   0.91590   0.00000  Uiso   1.00
C13    C     0.50318   0.18359   0.91124   0.00000  Uiso   1.00
C14    C     0.69578   0.97269   0.16000   0.00000  Uiso   1.00
C15    C     0.76929   0.00362   0.18193   0.00000  Uiso   1.00
C16    C     0.79849   0.01813   0.29039   0.00000  Uiso   1.00
C17    C     0.86650   0.04632   0.29197   0.00000  Uiso   1.00
C18    C     0.70732   0.90589   0.08754   0.00000  Uiso   1.00
C19    C     0.68441   0.83823   0.11662   0.00000  Uiso   1.00
C20    C     0.70024   0.78414   0.03874   0.00000  Uiso   1.00
C21    C     0.65792   0.02517   0.08031   0.00000  Uiso   1.00
C22    C     0.59346   0.05779   0.10330   0.00000  Uiso   1.00
C23    C     0.56768   0.10411   0.01931   0.00000  Uiso   1.00
H24    H     0.79375   0.00719   0.88959   0.00000  Uiso   1.00
H25    H     0.90359   0.05515   0.00022   0.00000  Uiso   1.00
H26    H     0.78952   0.87528   0.82649   0.00000  Uiso   1.00
H27    H     0.69858   0.09480   0.81317   0.00000  Uiso   1.00
H28    H     0.00889   0.10248   0.16840   0.00000  Uiso   1.00
H29    H     0.76834   0.72321   0.80205   0.00000  Uiso   1.00
H30    H     0.57658   0.18613   0.77395   0.00000  Uiso   1.00
H31    H     0.66667   0.96243   0.24037   0.00000  Uiso   1.00
H32    H     0.76954   0.00793   0.37025   0.00000  Uiso   1.00
H33    H     0.65547   0.82805   0.19651   0.00000  Uiso   1.00
H34    H     0.56453   0.04758   0.18319   0.00000  Uiso   1.00
H35    H     0.90009   0.06415   0.46873   0.00000  Uiso   1.00
H36    H     0.65954   0.68488   0.10237   0.00000  Uiso   1.00
H37    H     0.46778   0.14780   0.07428   0.00000  Uiso   1.00
O38    O     0.02447   0.11403   0.39768   0.00000  Uiso   1.00
O39    O     0.70886   0.61645   0.91702   0.00000  Uiso   1.00
O40    O     0.45728   0.22379   0.88017   0.00000  Uiso   1.00
N41    N     0.96916   0.08723   0.22126   0.00000  Uiso   1.00
N42    N     0.74427   0.73263   0.87875   0.00000  Uiso   1.00
N43    N     0.56498   0.16541   0.85247   0.00000  Uiso   1.00
N44    N     0.91062   0.06660   0.38286   0.00000  Uiso   1.00
N45    N     0.68573   0.71201   0.04035   0.00000  Uiso   1.00
N46    N     0.50644   0.14478   0.01407   0.00000  Uiso   1.00
C47    C     0.26464   0.49694   0.46996   0.00000  Uiso   1.00
C48    C     0.30669   0.51680   0.57871   0.00000  Uiso   1.00
C49    C     0.37467   0.54497   0.58013   0.00000  Uiso   1.00
C50    C     0.40396   0.55951   0.68856   0.00000  Uiso   1.00
C51    C     0.47497   0.59231   0.84172   0.00000  Uiso   1.00
C52    C     0.24472   0.41906   0.48432   0.00000  Uiso   1.00
C53    C     0.26058   0.36506   0.40636   0.00000  Uiso   1.00
C54    C     0.23770   0.29734   0.43533   0.00000  Uiso   1.00
C55    C     0.21245   0.17841   0.44191   0.00000  Uiso   1.00
C56    C     0.19532   0.53834   0.47708   0.00000  Uiso   1.00
C57    C     0.16963   0.58462   0.39303   0.00000  Uiso   1.00
C58    C     0.10514   0.61731   0.41590   0.00000  Uiso   1.00
C59    C     0.00318   0.68359   0.41124   0.00000  Uiso   1.00
C60    C     0.19578   0.47269   0.66000   0.00000  Uiso   1.00
C61    C     0.26929   0.50362   0.68193   0.00000  Uiso   1.00
C62    C     0.29849   0.51813   0.79039   0.00000  Uiso   1.00
C63    C     0.36650   0.54632   0.79197   0.00000  Uiso   1.00
C64    C     0.20732   0.40589   0.58754   0.00000  Uiso   1.00
C65    C     0.18441   0.33823   0.61662   0.00000  Uiso   1.00
C66    C     0.20024   0.28414   0.53874   0.00000  Uiso   1.00
C67    C     0.15792   0.52517   0.58031   0.00000  Uiso   1.00
C68    C     0.09346   0.55779   0.60330   0.00000  Uiso   1.00
C69    C     0.06768   0.60411   0.51931   0.00000  Uiso   1.00
H70    H     0.29375   0.50719   0.38959   0.00000  Uiso   1.00
H71    H     0.40359   0.55515   0.50022   0.00000  Uiso   1.00
H72    H     0.28952   0.37528   0.32649   0.00000  Uiso   1.00
H73    H     0.19858   0.59480   0.31317   0.00000  Uiso   1.00
H74    H     0.50889   0.60248   0.66840   0.00000  Uiso   1.00
H75    H     0.26834   0.22321   0.30205   0.00000  Uiso   1.00
H76    H     0.07658   0.68613   0.27395   0.00000  Uiso   1.00
H77    H     0.16667   0.46243   0.74037   0.00000  Uiso   1.00
H78    H     0.26954   0.50793   0.87025   0.00000  Uiso   1.00
H79    H     0.15547   0.32805   0.69651   0.00000  Uiso   1.00
H80    H     0.06453   0.54758   0.68319   0.00000  Uiso   1.00
H81    H     0.40009   0.56415   0.96873   0.00000  Uiso   1.00
H82    H     0.15954   0.18488   0.60237   0.00000  Uiso   1.00
H83    H     0.96778   0.64780   0.57428   0.00000  Uiso   1.00
O84    O     0.52447   0.61403   0.89768   0.00000  Uiso   1.00
O85    O     0.20886   0.11645   0.41702   0.00000  Uiso   1.00
O86    O     0.95728   0.72379   0.38017   0.00000  Uiso   1.00
N87    N     0.46916   0.58723   0.72126   0.00000  Uiso   1.00
N88    N     0.24427   0.23263   0.37875   0.00000  Uiso   1.00
N89    N     0.06498   0.66541   0.35247   0.00000  Uiso   1.00
N90    N     0.41062   0.56660   0.88286   0.00000  Uiso   1.00
N91    N     0.18573   0.21201   0.54035   0.00000  Uiso   1.00
N92    N     0.00644   0.64478   0.51407   0.00000  Uiso   1.00
C93    C     0.23536   0.00306   0.96996   0.00000  Uiso   1.00
C94    C     0.19331   0.98320   0.07871   0.00000  Uiso   1.00
C95    C     0.12533   0.95503   0.08013   0.00000  Uiso   1.00
C96    C     0.09604   0.94049   0.18856   0.00000  Uiso   1.00
C97    C     0.02503   0.90769   0.34172   0.00000  Uiso   1.00
C98    C     0.25528   0.08094   0.98432   0.00000  Uiso   1.00
C99    C     0.23942   0.13494   0.90636   0.00000  Uiso   1.00
C100   C     0.26230   0.20266   0.93533   0.00000  Uiso   1.00
C101   C     0.28755   0.32159   0.94191   0.00000  Uiso   1.00
C102   C     0.30468   0.96166   0.97708   0.00000  Uiso   1.00
C103   C     0.33037   0.91538   0.89303   0.00000  Uiso   1.00
C104   C     0.39486   0.88269   0.91590   0.00000  Uiso   1.00
C105   C     0.49682   0.81641   0.91124   0.00000  Uiso   1.00
C106   C     0.30422   0.02731   0.16000   0.00000  Uiso   1.00
C107   C     0.23071   0.99638   0.18193   0.00000  Uiso   1.00
C108   C     0.20151   0.98187   0.29039   0.00000  Uiso   1.00
C109   C     0.13350   0.95368   0.29197   0.00000  Uiso   1.00
C110   C     0.29268   0.09411   0.08754   0.00000  Uiso   1.00
C111   C     0.31559   0.16177   0.11662   0.00000  Uiso   1.00
C112   C     0.29976   0.21586   0.03874   0.00000  Uiso   1.00
C113   C     0.34208   0.97483   0.08031   0.00000  Uiso   1.00
C114   C     0.40654   0.94221   0.10330   0.00000  Uiso   1.00
C115   C     0.43232   0.89589   0.01931   0.00000  Uiso   1.00
H116   H     0.20625   0.99281   0.88959   0.00000  Uiso   1.00
H117   H     0.09641   0.94485   0.00022   0.00000  Uiso   1.00
H118   H     0.21048   0.12472   0.82649   0.00000  Uiso   1.00
H119   H     0.30142   0.90520   0.81317   0.00000  Uiso   1.00
H120   H     0.99111   0.89752   0.16840   0.00000  Uiso   1.00
H121   H     0.23166   0.27679   0.80205   0.00000  Uiso   1.00
H122   H     0.42342   0.81387   0.77395   0.00000  Uiso   1.00
H123   H     0.33333   0.03757   0.24037   0.00000  Uiso   1.00
H124   H     0.23046   0.99207   0.37025   0.00000  Uiso   1.00
H125   H     0.34453   0.17195   0.19651   0.00000  Uiso   1.00
H126   H     0.43547   0.95242   0.18319   0.00000  Uiso   1.00
H127   H     0.09991   0.93585   0.46873   0.00000  Uiso   1.00
H128   H     0.34046   0.31512   0.10237   0.00000  Uiso   1.00
H129   H     0.53222   0.85220   0.07428   0.00000  Uiso   1.00
O130   O     0.97553   0.88597   0.39768   0.00000  Uiso   1.00
O131   O     0.29114   0.38355   0.91702   0.00000  Uiso   1.00
O132   O     0.54272   0.77621   0.88017   0.00000  Uiso   1.00
N133   N     0.03084   0.91277   0.22126   0.00000  Uiso   1.00
N134   N     0.25573   0.26737   0.87875   0.00000  Uiso   1.00
N135   N     0.43502   0.83459   0.85247   0.00000  Uiso   1.00
N136   N     0.08938   0.93340   0.38286   0.00000  Uiso   1.00
N137   N     0.31427   0.28799   0.04035   0.00000  Uiso   1.00
N138   N     0.49356   0.85522   0.01407   0.00000  Uiso   1.00
C139   C     0.73536   0.50306   0.46996   0.00000  Uiso   1.00
C140   C     0.69331   0.48320   0.57871   0.00000  Uiso   1.00
C141   C     0.62533   0.45503   0.58013   0.00000  Uiso   1.00
C142   C     0.59604   0.44049   0.68856   0.00000  Uiso   1.00
C143   C     0.52503   0.40769   0.84172   0.00000  Uiso   1.00
C144   C     0.75528   0.58094   0.48432   0.00000  Uiso   1.00
C145   C     0.73942   0.63494   0.40636   0.00000  Uiso   1.00
C146   C     0.76230   0.70266   0.43533   0.00000  Uiso   1.00
C147   C     0.78755   0.82159   0.44191   0.00000  Uiso   1.00
C148   C     0.80468   0.46166   0.47708   0.00000  Uiso   1.00
C149   C     0.83037   0.41538   0.39303   0.00000  Uiso   1.00
C150   C     0.89486   0.38269   0.41590   0.00000  Uiso   1.00
C151   C     0.99682   0.31641   0.41124   0.00000  Uiso   1.00
C152   C     0.80422   0.52731   0.66000   0.00000  Uiso   1.00
C153   C     0.73071   0.49638   0.68193   0.00000  Uiso   1.00
C154   C     0.70151   0.48187   0.79039   0.00000  Uiso   1.00
C155   C     0.63350   0.45368   0.79197   0.00000  Uiso   1.00
C156   C     0.79268   0.59411   0.58754   0.00000  Uiso   1.00
C157   C     0.81559   0.66177   0.61662   0.00000  Uiso   1.00
C158   C     0.79976   0.71586   0.53874   0.00000  Uiso   1.00
C159   C     0.84208   0.47483   0.58031   0.00000  Uiso   1.00
C160   C     0.90654   0.44221   0.60330   0.00000  Uiso   1.00
C161   C     0.93232   0.39589   0.51931   0.00000  Uiso   1.00
H162   H     0.70625   0.49281   0.38959   0.00000  Uiso   1.00
H163   H     0.59641   0.44485   0.50022   0.00000  Uiso   1.00
H164   H     0.71048   0.62472   0.32649   0.00000  Uiso   1.00
H165   H     0.80142   0.40520   0.31317   0.00000  Uiso   1.00
H166   H     0.49111   0.39752   0.66840   0.00000  Uiso   1.00
H167   H     0.73166   0.77679   0.30205   0.00000  Uiso   1.00
H168   H     0.92342   0.31387   0.27395   0.00000  Uiso   1.00
H169   H     0.83333   0.53757   0.74037   0.00000  Uiso   1.00
H170   H     0.73046   0.49207   0.87025   0.00000  Uiso   1.00
H171   H     0.84453   0.67195   0.69651   0.00000  Uiso   1.00
H172   H     0.93547   0.45242   0.68319   0.00000  Uiso   1.00
H173   H     0.59991   0.43585   0.96873   0.00000  Uiso   1.00
H174   H     0.84046   0.81512   0.60237   0.00000  Uiso   1.00
H175   H     0.03222   0.35220   0.57428   0.00000  Uiso   1.00
O176   O     0.47553   0.38597   0.89768   0.00000  Uiso   1.00
O177   O     0.79114   0.88355   0.41702   0.00000  Uiso   1.00
O178   O     0.04272   0.27621   0.38017   0.00000  Uiso   1.00
N179   N     0.53084   0.41277   0.72126   0.00000  Uiso   1.00
N180   N     0.75573   0.76737   0.37875   0.00000  Uiso   1.00
N181   N     0.93502   0.33459   0.35247   0.00000  Uiso   1.00
N182   N     0.58938   0.43340   0.88286   0.00000  Uiso   1.00
N183   N     0.81427   0.78799   0.54035   0.00000  Uiso   1.00
N184   N     0.99356   0.35522   0.51407   0.00000  Uiso   1.00
C185   C     0.99694   0.23536   0.03004   0.00000  Uiso   1.00
C186   C     0.01680   0.19331   0.92129   0.00000  Uiso   1.00
C187   C     0.04497   0.12533   0.91987   0.00000  Uiso   1.00
C188   C     0.05951   0.09604   0.81144   0.00000  Uiso   1.00
C189   C     0.09231   0.02503   0.65828   0.00000  Uiso   1.00
C190   C     0.91906   0.25528   0.01568   0.00000  Uiso   1.00
C191   C     0.86506   0.23942   0.09364   0.00000  Uiso   1.00
C192   C     0.79734   0.26230   0.06467   0.00000  Uiso   1.00
C193   C     0.67841   0.28755   0.05809   0.00000  Uiso   1.00
C194   C     0.03834   0.30468   0.02292   0.00000  Uiso   1.00
C195   C     0.08462   0.33037   0.10697   0.00000  Uiso   1.00
C196   C     0.11731   0.39486   0.08410   0.00000  Uiso   1.00
C197   C     0.18359   0.49682   0.08876   0.00000  Uiso   1.00
C198   C     0.97269   0.30422   0.84000   0.00000  Uiso   1.00
C199   C     0.00362   0.23071   0.81807   0.00000  Uiso   1.00
C200   C     0.01813   0.20151   0.70961   0.00000  Uiso   1.00
C201   C     0.04632   0.13350   0.70803   0.00000  Uiso   1.00
C202   C     0.90589   0.29268   0.91246   0.00000  Uiso   1.00
C203   C     0.83823   0.31559   0.88338   0.00000  Uiso   1.00
C204   C     0.78414   0.29976   0.96126   0.00000  Uiso   1.00
C205   C     0.02517   0.34208   0.91969   0.00000  Uiso   1.00
C206   C     0.05779   0.40654   0.89670   0.00000  Uiso   1.00
C207   C     0.10411   0.43232   0.98069   0.00000  Uiso   1.00
H208   H     0.00719   0.20625   0.11041   0.00000  Uiso   1.00
H209   H     0.05515   0.09641   0.99978   0.00000  Uiso   1.00
H210   H     0.87528   0.21048   0.17351   0.00000  Uiso   1.00
H211   H     0.09480   0.30142   0.18683   0.00000  Uiso   1.00
H212   H     0.10248   0.99111   0.83160   0.00000  Uiso   1.00
H213   H     0.72321   0.23166   0.19795   0.00000  Uiso   1.00
H214   H     0.18613   0.42342   0.22605   0.00000  Uiso   1.00
H215   H     0.96243   0.33333   0.75963   0.00000  Uiso   1.00
H216   H     0.00793   0.23046   0.62975   0.00000  Uiso   1.00
H217   H     0.82805   0.34453   0.80349   0.00000  Uiso   1.00
H218   H     0.04758   0.43547   0.81681   0.00000  Uiso   1.00
H219   H     0.06415   0.09991   0.53127   0.00000  Uiso   1.00
H220   H     0.68488   0.34046   0.89763   0.00000  Uiso   1.00
H221   H     0.14780   0.53222   0.92572   0.00000  Uiso   1.00
O222   O     0.11403   0.97553   0.60232   0.00000  Uiso   1.00
O223   O     0.61645   0.29114   0.08298   0.00000  Uiso   1.00
O224   O     0.22379   0.54272   0.11983   0.00000  Uiso   1.00
N225   N     0.08723   0.03084   0.77874   0.00000  Uiso   1.00
N226   N     0.73263   0.25573   0.12125   0.00000  Uiso   1.00
N227   N     0.16541   0.43502   0.14753   0.00000  Uiso   1.00
N228   N     0.06660   0.08938   0.61714   0.00000  Uiso   1.00
N229   N     0.71201   0.31427   0.95965   0.00000  Uiso   1.00
N230   N     0.14478   0.49356   0.98593   0.00000  Uiso   1.00
C231   C     0.49694   0.73536   0.53004   0.00000  Uiso   1.00
C232   C     0.51680   0.69331   0.42129   0.00000  Uiso   1.00
C233   C     0.54497   0.62533   0.41987   0.00000  Uiso   1.00
C234   C     0.55951   0.59604   0.31144   0.00000  Uiso   1.00
C235   C     0.59231   0.52503   0.15828   0.00000  Uiso   1.00
C236   C     0.41906   0.75528   0.51568   0.00000  Uiso   1.00
C237   C     0.36506   0.73942   0.59364   0.00000  Uiso   1.00
C238   C     0.29734   0.76230   0.56467   0.00000  Uiso   1.00
C239   C     0.17841   0.78755   0.55809   0.00000  Uiso   1.00
C240   C     0.53834   0.80468   0.52292   0.00000  Uiso   1.00
C241   C     0.58462   0.83037   0.60697   0.00000  Uiso   1.00
C242   C     0.61731   0.89486   0.58410   0.00000  Uiso   1.00
C243   C     0.68359   0.99682   0.58876   0.00000  Uiso   1.00
C244   C     0.47269   0.80422   0.34000   0.00000  Uiso   1.00
C245   C     0.50362   0.73071   0.31807   0.00000  Uiso   1.00
C246   C     0.51813   0.70151   0.20961   0.00000  Uiso   1.00
C247   C     0.54632   0.63350   0.20803   0.00000  Uiso   1.00
C248   C     0.40589   0.79268   0.41246   0.00000  Uiso   1.00
C249   C     0.33823   0.81559   0.38338   0.00000  Uiso   1.00
C250   C     0.28414   0.79976   0.46126   0.00000  Uiso   1.00
C251   C     0.52517   0.84208   0.41969   0.00000  Uiso   1.00
C252   C     0.55779   0.90654   0.39670   0.00000  Uiso   1.00
C253   C     0.60411   0.93232   0.48069   0.00000  Uiso   1.00
H254   H     0.50719   0.70625   0.61041   0.00000  Uiso   1.00
H255   H     0.55515   0.59641   0.49978   0.00000  Uiso   1.00
H256   H     0.37528   0.71048   0.67351   0.00000  Uiso   1.00
H257   H     0.59480   0.80142   0.68683   0.00000  Uiso   1.00
H258   H     0.60248   0.49111   0.33160   0.00000  Uiso   1.00
H259   H     0.22321   0.73166   0.69795   0.00000  Uiso   1.00
H260   H     0.68613   0.92342   0.72605   0.00000  Uiso   1.00
H261   H     0.46243   0.83333   0.25963   0.00000  Uiso   1.00
H262   H     0.50793   0.73046   0.12975   0.00000  Uiso   1.00
H263   H     0.32805   0.84453   0.30349   0.00000  Uiso   1.00
H264   H     0.54758   0.93547   0.31681   0.00000  Uiso   1.00
H265   H     0.56415   0.59991   0.03127   0.00000  Uiso   1.00
H266   H     0.18488   0.84046   0.39763   0.00000  Uiso   1.00
H267   H     0.64780   0.03222   0.42572   0.00000  Uiso   1.00
O268   O     0.61403   0.47553   0.10232   0.00000  Uiso   1.00
O269   O     0.11645   0.79114   0.58298   0.00000  Uiso   1.00
O270   O     0.72379   0.04272   0.61983   0.00000  Uiso   1.00
N271   N     0.58723   0.53084   0.27874   0.00000  Uiso   1.00
N272   N     0.23263   0.75573   0.62125   0.00000  Uiso   1.00
N273   N     0.66541   0.93502   0.64753   0.00000  Uiso   1.00
N274   N     0.56660   0.58938   0.11714   0.00000  Uiso   1.00
N275   N     0.21201   0.81427   0.45965   0.00000  Uiso   1.00
N276   N     0.64478   0.99356   0.48593   0.00000  Uiso   1.00
C277   C     0.00306   0.76464   0.03004   0.00000  Uiso   1.00
C278   C     0.98320   0.80669   0.92129   0.00000  Uiso   1.00
C279   C     0.95503   0.87467   0.91987   0.00000  Uiso   1.00
C280   C     0.94049   0.90396   0.81144   0.00000  Uiso   1.00
C281   C     0.90769   0.97497   0.65828   0.00000  Uiso   1.00
C282   C     0.08094   0.74472   0.01568   0.00000  Uiso   1.00
C283   C     0.13494   0.76058   0.09364   0.00000  Uiso   1.00
C284   C     0.20266   0.73770   0.06467   0.00000  Uiso   1.00
C285   C     0.32159   0.71245   0.05809   0.00000  Uiso   1.00
C286   C     0.96166   0.69532   0.02292   0.00000  Uiso   1.00
C287   C     0.91538   0.66963   0.10697   0.00000  Uiso   1.00
C288   C     0.88269   0.60514   0.08410   0.00000  Uiso   1.00
C289   C     0.81641   0.50318   0.08876   0.00000  Uiso   1.00
C290   C     0.02731   0.69578   0.84000   0.00000  Uiso   1.00
C291   C     0.99638   0.76929   0.81807   0.00000  Uiso   1.00
C292   C     0.98187   0.79849   0.70961   0.00000  Uiso   1.00
C293   C     0.95368   0.86650   0.70803   0.00000  Uiso   1.00
C294   C     0.09411   0.70732   0.91246   0.00000  Uiso   1.00
C295   C     0.16177   0.68441   0.88338   0.00000  Uiso   1.00
C296   C     0.21586   0.70024   0.96126   0.00000  Uiso   1.00
C297   C     0.97483   0.65792   0.91969   0.00000  Uiso   1.00
C298   C     0.94221   0.59346   0.89670   0.00000  Uiso   1.00
C299   C     0.89589   0.56768   0.98069   0.00000  Uiso   1.00
H300   H     0.99281   0.79375   0.11041   0.00000  Uiso   1.00
H301   H     0.94485   0.90359   0.99978   0.00000  Uiso   1.00
H302   H     0.12472   0.78952   0.17351   0.00000  Uiso   1.00
H303   H     0.90520   0.69858   0.18683   0.00000  Uiso   1.00
H304   H     0.89752   0.00889   0.83160   0.00000  Uiso   1.00
H305   H     0.27679   0.76834   0.19795   0.00000  Uiso   1.00
H306   H     0.81387   0.57658   0.22605   0.00000  Uiso   1.00
H307   H     0.03757   0.66667   0.75963   0.00000  Uiso   1.00
H308   H     0.99207   0.76954   0.62975   0.00000  Uiso   1.00
H309   H     0.17195   0.65547   0.80349   0.00000  Uiso   1.00
H310   H     0.95242   0.56453   0.81681   0.00000  Uiso   1.00
H311   H     0.93585   0.90009   0.53127   0.00000  Uiso   1.00
H312   H     0.31512   0.65954   0.89763   0.00000  Uiso   1.00
H313   H     0.85220   0.46778   0.92572   0.00000  Uiso   1.00
O314   O     0.88597   0.02447   0.60232   0.00000  Uiso   1.00
O315   O     0.38355   0.70886   0.08298   0.00000  Uiso   1.00
O316   O     0.77621   0.45728   0.11983   0.00000  Uiso   1.00
N317   N     0.91277   0.96916   0.77874   0.00000  Uiso   1.00
N318   N     0.26737   0.74427   0.12125   0.00000  Uiso   1.00
N319   N     0.83459   0.56498   0.14753   0.00000  Uiso   1.00
N320   N     0.93340   0.91062   0.61714   0.00000  Uiso   1.00
N321   N     0.28799   0.68573   0.95965   0.00000  Uiso   1.00
N322   N     0.85522   0.50644   0.98593   0.00000  Uiso   1.00
C323   C     0.50306   0.26464   0.53004   0.00000  Uiso   1.00
C324   C     0.48320   0.30669   0.42129   0.00000  Uiso   1.00
C325   C     0.45503   0.37467   0.41987   0.00000  Uiso   1.00
C326   C     0.44049   0.40396   0.31144   0.00000  Uiso   1.00
C327   C     0.40769   0.47497   0.15828   0.00000  Uiso   1.00
C328   C     0.58094   0.24472   0.51568   0.00000  Uiso   1.00
C329   C     0.63494   0.26058   0.59364   0.00000  Uiso   1.00
C330   C     0.70266   0.23770   0.56467   0.00000  Uiso   1.00
C331   C     0.82159   0.21245   0.55809   0.00000  Uiso   1.00
C332   C     0.46166   0.19532   0.52292   0.00000  Uiso   1.00
C333   C     0.41538   0.16963   0.60697   0.00000  Uiso   1.00
C334   C     0.38269   0.10514   0.58410   0.00000  Uiso   1.00
C335   C     0.31641   0.00318   0.58876   0.00000  Uiso   1.00
C336   C     0.52731   0.19578   0.34000   0.00000  Uiso   1.00
C337   C     0.49638   0.26929   0.31807   0.00000  Uiso   1.00
C338   C     0.48187   0.29849   0.20961   0.00000  Uiso   1.00
C339   C     0.45368   0.36650   0.20803   0.00000  Uiso   1.00
C340   C     0.59411   0.20732   0.41246   0.00000  Uiso   1.00
C341   C     0.66177   0.18441   0.38338   0.00000  Uiso   1.00
C342   C     0.71586   0.20024   0.46126   0.00000  Uiso   1.00
C343   C     0.47483   0.15792   0.41969   0.00000  Uiso   1.00
C344   C     0.44221   0.09346   0.39670   0.00000  Uiso   1.00
C345   C     0.39589   0.06768   0.48069   0.00000  Uiso   1.00
H346   H     0.49281   0.29375   0.61041   0.00000  Uiso   1.00
H347   H     0.44485   0.40359   0.49978   0.00000  Uiso   1.00
H348   H     0.62472   0.28952   0.67351   0.00000  Uiso   1.00
H349   H     0.40520   0.19858   0.68683   0.00000  Uiso   1.00
H350   H     0.39752   0.50889   0.33160   0.00000  Uiso   1.00
H351   H     0.77679   0.26834   0.69795   0.00000  Uiso   1.00
H352   H     0.31387   0.07658   0.72605   0.00000  Uiso   1.00
H353   H     0.53757   0.16667   0.25963   0.00000  Uiso   1.00
H354   H     0.49207   0.26954   0.12975   0.00000  Uiso   1.00
H355   H     0.67195   0.15547   0.30349   0.00000  Uiso   1.00
H356   H     0.45242   0.06453   0.31681   0.00000  Uiso   1.00
H357   H     0.43585   0.40009   0.03127   0.00000  Uiso   1.00
H358   H     0.81512   0.15954   0.39763   0.00000  Uiso   1.00
H359   H     0.35220   0.96778   0.42572   0.00000  Uiso   1.00
O360   O     0.38597   0.52447   0.10232   0.00000  Uiso   1.00
O361   O     0.88355   0.20886   0.58298   0.00000  Uiso   1.00
O362   O     0.27621   0.95728   0.61983   0.00000  Uiso   1.00
N363   N     0.41277   0.46916   0.27874   0.00000  Uiso   1.00
N364   N     0.76737   0.24427   0.62125   0.00000  Uiso   1.00
N365   N     0.33459   0.06498   0.64753   0.00000  Uiso   1.00
N366   N     0.43340   0.41062   0.11714   0.00000  Uiso   1.00
N367   N     0.78799   0.18573   0.45965   0.00000  Uiso   1.00
N368   N     0.35522   0.00644   0.48593   0.00000  Uiso   1.00
