data_job_05231
_audit_creation_date              2018-12-19
_audit_creation_method            'Materials Studio'
_symmetry_space_group_name_H-M    'P1'
_symmetry_Int_Tables_number       1
_symmetry_cell_setting            triclinic
loop_
_symmetry_equiv_pos_as_xyz
  x,y,z
_cell_length_a                    21.1423
_cell_length_b                    11.1728
_cell_length_c                    12.0236
_cell_angle_alpha                 90.0000
_cell_angle_beta                  90.0000
_cell_angle_gamma                 90.0000
loop_
_atom_site_label
_atom_site_type_symbol
_atom_site_fract_x
_atom_site_fract_y
_atom_site_fract_z
_atom_site_U_iso_or_equiv
_atom_site_adp_type
_atom_site_occupancy
C1     C     0.05179   0.59687   0.89441   0.00000  Uiso   1.00
C2     C     0.09198   0.65634   0.80476   0.00000  Uiso   1.00
C3     C     0.10307   0.61130   0.69898   0.00000  Uiso   1.00
C4     C     0.14114   0.67920   0.62919   0.00000  Uiso   1.00
C5     C     0.19956   0.75499   0.48466   0.00000  Uiso   1.00
C6     C     0.00157   0.68842   0.92681   0.00000  Uiso   1.00
C7     C     0.93665   0.67034   0.92366   0.00000  Uiso   1.00
C8     C     0.89862   0.76524   0.95663   0.00000  Uiso   1.00
C9     C     0.81668   0.89081   0.00166   0.00000  Uiso   1.00
C10    C     0.09464   0.58336   0.99565   0.00000  Uiso   1.00
C11    C     0.10797   0.47696   0.05040   0.00000  Uiso   1.00
C12    C     0.14830   0.48341   0.14135   0.00000  Uiso   1.00
C13    C     0.21087   0.44587   0.29326   0.00000  Uiso   1.00
C14    C     0.09969   0.79753   0.95859   0.00000  Uiso   1.00
C15    C     0.11799   0.76534   0.83962   0.00000  Uiso   1.00
C16    C     0.15606   0.83332   0.76997   0.00000  Uiso   1.00
C17    C     0.16721   0.78839   0.66411   0.00000  Uiso   1.00
C18    C     0.02758   0.79741   0.96166   0.00000  Uiso   1.00
C19    C     0.98965   0.89236   0.99466   0.00000  Uiso   1.00
C20    C     0.92469   0.87443   0.99155   0.00000  Uiso   1.00
C21    C     0.12066   0.69236   0.03050   0.00000  Uiso   1.00
C22    C     0.16097   0.69898   0.12139   0.00000  Uiso   1.00
C23    C     0.17436   0.59261   0.17626   0.00000  Uiso   1.00
H24    H     0.03153   0.51201   0.86728   0.00000  Uiso   1.00
H25    H     0.08292   0.52695   0.67203   0.00000  Uiso   1.00
H26    H     0.91653   0.58598   0.89669   0.00000  Uiso   1.00
H27    H     0.08783   0.39263   0.02340   0.00000  Uiso   1.00
H28    H     0.15135   0.59161   0.47092   0.00000  Uiso   1.00
H29    H     0.80051   0.71606   0.94466   0.00000  Uiso   1.00
H30    H     0.16172   0.30834   0.21186   0.00000  Uiso   1.00
H31    H     0.11995   0.88239   0.98573   0.00000  Uiso   1.00
H32    H     0.17619   0.91766   0.79697   0.00000  Uiso   1.00
H33    H     0.00980   0.97669   0.02163   0.00000  Uiso   1.00
H34    H     0.18110   0.78334   0.14834   0.00000  Uiso   1.00
H35    H     0.22705   0.90872   0.57232   0.00000  Uiso   1.00
H36    H     0.87620   0.03317   0.04607   0.00000  Uiso   1.00
H37    H     0.23742   0.62545   0.31327   0.00000  Uiso   1.00
O38    O     0.22458   0.76670   0.39530   0.00000  Uiso   1.00
O39    O     0.76430   0.92996   0.01685   0.00000  Uiso   1.00
O40    O     0.23820   0.39505   0.36741   0.00000  Uiso   1.00
N41    N     0.16146   0.66139   0.52069   0.00000  Uiso   1.00
N42    N     0.83344   0.77775   0.96360   0.00000  Uiso   1.00
N43    N     0.17113   0.39657   0.21343   0.00000  Uiso   1.00
N44    N     0.20219   0.83202   0.57526   0.00000  Uiso   1.00
N45    N     0.87417   0.94839   0.01816   0.00000  Uiso   1.00
N46    N     0.21187   0.56721   0.26799   0.00000  Uiso   1.00
C47    C     0.94821   0.40313   0.39441   0.00000  Uiso   1.00
C48    C     0.90802   0.34366   0.30476   0.00000  Uiso   1.00
C49    C     0.89693   0.38870   0.19898   0.00000  Uiso   1.00
C50    C     0.85886   0.32080   0.12919   0.00000  Uiso   1.00
C51    C     0.80044   0.24501   0.98466   0.00000  Uiso   1.00
C52    C     0.99843   0.31158   0.42681   0.00000  Uiso   1.00
C53    C     0.06335   0.32966   0.42366   0.00000  Uiso   1.00
C54    C     0.10138   0.23476   0.45663   0.00000  Uiso   1.00
C55    C     0.18332   0.10919   0.50166   0.00000  Uiso   1.00
C56    C     0.90536   0.41664   0.49565   0.00000  Uiso   1.00
C57    C     0.89203   0.52304   0.55040   0.00000  Uiso   1.00
C58    C     0.85170   0.51659   0.64135   0.00000  Uiso   1.00
C59    C     0.78913   0.55413   0.79326   0.00000  Uiso   1.00
C60    C     0.90031   0.20247   0.45859   0.00000  Uiso   1.00
C61    C     0.88201   0.23466   0.33962   0.00000  Uiso   1.00
C62    C     0.84394   0.16668   0.26997   0.00000  Uiso   1.00
C63    C     0.83279   0.21161   0.16411   0.00000  Uiso   1.00
C64    C     0.97242   0.20259   0.46166   0.00000  Uiso   1.00
C65    C     0.01035   0.10764   0.49466   0.00000  Uiso   1.00
C66    C     0.07531   0.12557   0.49155   0.00000  Uiso   1.00
C67    C     0.87934   0.30764   0.53050   0.00000  Uiso   1.00
C68    C     0.83903   0.30102   0.62139   0.00000  Uiso   1.00
C69    C     0.82564   0.40739   0.67626   0.00000  Uiso   1.00
H70    H     0.96847   0.48799   0.36728   0.00000  Uiso   1.00
H71    H     0.91708   0.47305   0.17203   0.00000  Uiso   1.00
H72    H     0.08347   0.41402   0.39669   0.00000  Uiso   1.00
H73    H     0.91217   0.60737   0.52340   0.00000  Uiso   1.00
H74    H     0.84865   0.40839   0.97092   0.00000  Uiso   1.00
H75    H     0.19949   0.28394   0.44466   0.00000  Uiso   1.00
H76    H     0.83828   0.69166   0.71186   0.00000  Uiso   1.00
H77    H     0.88005   0.11761   0.48573   0.00000  Uiso   1.00
H78    H     0.82381   0.08234   0.29697   0.00000  Uiso   1.00
H79    H     0.99020   0.02331   0.52163   0.00000  Uiso   1.00
H80    H     0.81890   0.21666   0.64834   0.00000  Uiso   1.00
H81    H     0.77295   0.09128   0.07232   0.00000  Uiso   1.00
H82    H     0.12380   0.96683   0.54607   0.00000  Uiso   1.00
H83    H     0.76258   0.37455   0.81327   0.00000  Uiso   1.00
O84    O     0.77542   0.23330   0.89530   0.00000  Uiso   1.00
O85    O     0.23570   0.07004   0.51685   0.00000  Uiso   1.00
O86    O     0.76180   0.60495   0.86741   0.00000  Uiso   1.00
N87    N     0.83854   0.33861   0.02069   0.00000  Uiso   1.00
N88    N     0.16656   0.22225   0.46360   0.00000  Uiso   1.00
N89    N     0.82887   0.60343   0.71343   0.00000  Uiso   1.00
N90    N     0.79781   0.16798   0.07526   0.00000  Uiso   1.00
N91    N     0.12583   0.05161   0.51816   0.00000  Uiso   1.00
N92    N     0.78813   0.43279   0.76799   0.00000  Uiso   1.00
C93    C     0.55179   0.40313   0.89441   0.00000  Uiso   1.00
C94    C     0.59198   0.34366   0.80476   0.00000  Uiso   1.00
C95    C     0.60307   0.38870   0.69898   0.00000  Uiso   1.00
C96    C     0.64114   0.32080   0.62919   0.00000  Uiso   1.00
C97    C     0.69956   0.24501   0.48466   0.00000  Uiso   1.00
C98    C     0.50157   0.31158   0.92681   0.00000  Uiso   1.00
C99    C     0.43665   0.32966   0.92366   0.00000  Uiso   1.00
C100   C     0.39862   0.23476   0.95663   0.00000  Uiso   1.00
C101   C     0.31668   0.10919   0.00166   0.00000  Uiso   1.00
C102   C     0.59464   0.41664   0.99565   0.00000  Uiso   1.00
C103   C     0.60797   0.52304   0.05040   0.00000  Uiso   1.00
C104   C     0.64830   0.51659   0.14135   0.00000  Uiso   1.00
C105   C     0.71087   0.55413   0.29326   0.00000  Uiso   1.00
C106   C     0.59969   0.20247   0.95859   0.00000  Uiso   1.00
C107   C     0.61799   0.23466   0.83962   0.00000  Uiso   1.00
C108   C     0.65606   0.16668   0.76997   0.00000  Uiso   1.00
C109   C     0.66721   0.21161   0.66411   0.00000  Uiso   1.00
C110   C     0.52758   0.20259   0.96166   0.00000  Uiso   1.00
C111   C     0.48965   0.10764   0.99466   0.00000  Uiso   1.00
C112   C     0.42469   0.12557   0.99155   0.00000  Uiso   1.00
C113   C     0.62066   0.30764   0.03050   0.00000  Uiso   1.00
C114   C     0.66097   0.30102   0.12139   0.00000  Uiso   1.00
C115   C     0.67436   0.40739   0.17626   0.00000  Uiso   1.00
H116   H     0.53153   0.48799   0.86728   0.00000  Uiso   1.00
H117   H     0.58292   0.47305   0.67203   0.00000  Uiso   1.00
H118   H     0.41653   0.41402   0.89669   0.00000  Uiso   1.00
H119   H     0.58783   0.60737   0.02340   0.00000  Uiso   1.00
H120   H     0.65135   0.40839   0.47092   0.00000  Uiso   1.00
H121   H     0.30051   0.28394   0.94466   0.00000  Uiso   1.00
H122   H     0.66172   0.69166   0.21186   0.00000  Uiso   1.00
H123   H     0.61995   0.11761   0.98573   0.00000  Uiso   1.00
H124   H     0.67619   0.08234   0.79697   0.00000  Uiso   1.00
H125   H     0.50980   0.02331   0.02163   0.00000  Uiso   1.00
H126   H     0.68110   0.21666   0.14834   0.00000  Uiso   1.00
H127   H     0.72705   0.09128   0.57232   0.00000  Uiso   1.00
H128   H     0.37620   0.96683   0.04607   0.00000  Uiso   1.00
H129   H     0.73742   0.37455   0.31327   0.00000  Uiso   1.00
O130   O     0.72458   0.23330   0.39530   0.00000  Uiso   1.00
O131   O     0.26430   0.07004   0.01685   0.00000  Uiso   1.00
O132   O     0.73820   0.60495   0.36741   0.00000  Uiso   1.00
N133   N     0.66146   0.33861   0.52069   0.00000  Uiso   1.00
N134   N     0.33344   0.22225   0.96360   0.00000  Uiso   1.00
N135   N     0.67113   0.60343   0.21343   0.00000  Uiso   1.00
N136   N     0.70219   0.16798   0.57526   0.00000  Uiso   1.00
N137   N     0.37417   0.05161   0.01816   0.00000  Uiso   1.00
N138   N     0.71187   0.43279   0.26799   0.00000  Uiso   1.00
C139   C     0.44821   0.59687   0.39441   0.00000  Uiso   1.00
C140   C     0.40802   0.65634   0.30476   0.00000  Uiso   1.00
C141   C     0.39693   0.61130   0.19898   0.00000  Uiso   1.00
C142   C     0.35886   0.67920   0.12919   0.00000  Uiso   1.00
C143   C     0.30044   0.75499   0.98466   0.00000  Uiso   1.00
C144   C     0.49843   0.68842   0.42681   0.00000  Uiso   1.00
C145   C     0.56335   0.67034   0.42366   0.00000  Uiso   1.00
C146   C     0.60138   0.76524   0.45663   0.00000  Uiso   1.00
C147   C     0.68332   0.89081   0.50166   0.00000  Uiso   1.00
C148   C     0.40536   0.58336   0.49565   0.00000  Uiso   1.00
C149   C     0.39203   0.47696   0.55040   0.00000  Uiso   1.00
C150   C     0.35170   0.48341   0.64135   0.00000  Uiso   1.00
C151   C     0.28913   0.44587   0.79326   0.00000  Uiso   1.00
C152   C     0.40031   0.79753   0.45859   0.00000  Uiso   1.00
C153   C     0.38201   0.76534   0.33962   0.00000  Uiso   1.00
C154   C     0.34394   0.83332   0.26997   0.00000  Uiso   1.00
C155   C     0.33279   0.78839   0.16411   0.00000  Uiso   1.00
C156   C     0.47242   0.79741   0.46166   0.00000  Uiso   1.00
C157   C     0.51035   0.89236   0.49466   0.00000  Uiso   1.00
C158   C     0.57531   0.87443   0.49155   0.00000  Uiso   1.00
C159   C     0.37934   0.69236   0.53050   0.00000  Uiso   1.00
C160   C     0.33903   0.69898   0.62139   0.00000  Uiso   1.00
C161   C     0.32564   0.59261   0.67626   0.00000  Uiso   1.00
H162   H     0.46847   0.51201   0.36728   0.00000  Uiso   1.00
H163   H     0.41708   0.52695   0.17203   0.00000  Uiso   1.00
H164   H     0.58347   0.58598   0.39669   0.00000  Uiso   1.00
H165   H     0.41217   0.39263   0.52340   0.00000  Uiso   1.00
H166   H     0.34865   0.59161   0.97092   0.00000  Uiso   1.00
H167   H     0.69949   0.71606   0.44466   0.00000  Uiso   1.00
H168   H     0.33828   0.30834   0.71186   0.00000  Uiso   1.00
H169   H     0.38005   0.88239   0.48573   0.00000  Uiso   1.00
H170   H     0.32381   0.91766   0.29697   0.00000  Uiso   1.00
H171   H     0.49020   0.97669   0.52163   0.00000  Uiso   1.00
H172   H     0.31890   0.78334   0.64834   0.00000  Uiso   1.00
H173   H     0.27295   0.90872   0.07232   0.00000  Uiso   1.00
H174   H     0.62380   0.03317   0.54607   0.00000  Uiso   1.00
H175   H     0.26258   0.62545   0.81327   0.00000  Uiso   1.00
O176   O     0.27542   0.76670   0.89530   0.00000  Uiso   1.00
O177   O     0.73570   0.92996   0.51685   0.00000  Uiso   1.00
O178   O     0.26180   0.39505   0.86741   0.00000  Uiso   1.00
N179   N     0.33854   0.66139   0.02069   0.00000  Uiso   1.00
N180   N     0.66656   0.77775   0.46360   0.00000  Uiso   1.00
N181   N     0.32887   0.39657   0.71343   0.00000  Uiso   1.00
N182   N     0.29781   0.83202   0.07526   0.00000  Uiso   1.00
N183   N     0.62583   0.94839   0.51816   0.00000  Uiso   1.00
N184   N     0.28813   0.56721   0.76799   0.00000  Uiso   1.00
