data_job_02572
_audit_creation_date              2018-12-19
_audit_creation_method            'Materials Studio'
_symmetry_space_group_name_H-M    'P1'
_symmetry_Int_Tables_number       1
_symmetry_cell_setting            triclinic
loop_
_symmetry_equiv_pos_as_xyz
  x,y,z
_cell_length_a                    18.5922
_cell_length_b                    12.1170
_cell_length_c                    22.8834
_cell_angle_alpha                 90.0000
_cell_angle_beta                  90.0000
_cell_angle_gamma                 90.0000
loop_
_atom_site_label
_atom_site_type_symbol
_atom_site_fract_x
_atom_site_fract_y
_atom_site_fract_z
_atom_site_U_iso_or_equiv
_atom_site_adp_type
_atom_site_occupancy
C1     C     0.80169   0.16681   0.34859   0.00000  Uiso   1.00
C2     C     0.83130   0.26977   0.37841   0.00000  Uiso   1.00
C3     C     0.80023   0.32390   0.42552   0.00000  Uiso   1.00
C4     C     0.83564   0.41668   0.44649   0.00000  Uiso   1.00
C5     C     0.87184   0.57093   0.49663   0.00000  Uiso   1.00
C6     C     0.79314   0.19661   0.28422   0.00000  Uiso   1.00
C7     C     0.72998   0.18921   0.25213   0.00000  Uiso   1.00
C8     C     0.73327   0.22039   0.19381   0.00000  Uiso   1.00
C9     C     0.71023   0.26098   0.09769   0.00000  Uiso   1.00
C10    C     0.86160   0.08100   0.35125   0.00000  Uiso   1.00
C11    C     0.85600   0.97637   0.37550   0.00000  Uiso   1.00
C12    C     0.91693   0.91020   0.37360   0.00000  Uiso   1.00
C13    C     0.00018   0.77129   0.38155   0.00000  Uiso   1.00
C14    C     0.91984   0.23533   0.30207   0.00000  Uiso   1.00
C15    C     0.89547   0.30699   0.35314   0.00000  Uiso   1.00
C16    C     0.93094   0.39971   0.37405   0.00000  Uiso   1.00
C17    C     0.89993   0.45396   0.42118   0.00000  Uiso   1.00
C18    C     0.85731   0.23383   0.25895   0.00000  Uiso   1.00
C19    C     0.86070   0.26502   0.20066   0.00000  Uiso   1.00
C20    C     0.79756   0.25767   0.16849   0.00000  Uiso   1.00
C21    C     0.92577   0.11822   0.32598   0.00000  Uiso   1.00
C22    C     0.98672   0.05219   0.32403   0.00000  Uiso   1.00
C23    C     0.98121   0.94749   0.34828   0.00000  Uiso   1.00
H24    H     0.75173   0.13783   0.36826   0.00000  Uiso   1.00
H25    H     0.75056   0.29508   0.44506   0.00000  Uiso   1.00
H26    H     0.68033   0.16040   0.27169   0.00000  Uiso   1.00
H27    H     0.80633   0.94760   0.39505   0.00000  Uiso   1.00
H28    H     0.77756   0.48584   0.51905   0.00000  Uiso   1.00
H29    H     0.62947   0.20183   0.15350   0.00000  Uiso   1.00
H30    H     0.89517   0.75311   0.41361   0.00000  Uiso   1.00
H31    H     0.96980   0.26430   0.28239   0.00000  Uiso   1.00
H32    H     0.98060   0.42849   0.35449   0.00000  Uiso   1.00
H33    H     0.91037   0.29381   0.18112   0.00000  Uiso   1.00
H34    H     0.03637   0.08102   0.30447   0.00000  Uiso   1.00
H35    H     0.96426   0.59413   0.44554   0.00000  Uiso   1.00
H36    H     0.81617   0.31011   0.07998   0.00000  Uiso   1.00
H37    H     0.08187   0.86139   0.34010   0.00000  Uiso   1.00
O38    O     0.87407   0.64573   0.53126   0.00000  Uiso   1.00
O39    O     0.67979   0.27310   0.05166   0.00000  Uiso   1.00
O40    O     0.02837   0.68439   0.39293   0.00000  Uiso   1.00
N41    N     0.82002   0.48878   0.49187   0.00000  Uiso   1.00
N42    N     0.68157   0.22327   0.15009   0.00000  Uiso   1.00
N43    N     0.92997   0.80374   0.39327   0.00000  Uiso   1.00
N44    N     0.92049   0.54705   0.45231   0.00000  Uiso   1.00
N45    N     0.78203   0.28153   0.11054   0.00000  Uiso   1.00
N46    N     0.03043   0.86200   0.35371   0.00000  Uiso   1.00
C47    C     0.69831   0.33319   0.84859   0.00000  Uiso   1.00
C48    C     0.66870   0.23023   0.87841   0.00000  Uiso   1.00
C49    C     0.69977   0.17610   0.92552   0.00000  Uiso   1.00
C50    C     0.66436   0.08332   0.94649   0.00000  Uiso   1.00
C51    C     0.62816   0.92907   0.99663   0.00000  Uiso   1.00
C52    C     0.70686   0.30339   0.78422   0.00000  Uiso   1.00
C53    C     0.77002   0.31079   0.75213   0.00000  Uiso   1.00
C54    C     0.76673   0.27961   0.69381   0.00000  Uiso   1.00
C55    C     0.78977   0.23902   0.59769   0.00000  Uiso   1.00
C56    C     0.63840   0.41900   0.85125   0.00000  Uiso   1.00
C57    C     0.64400   0.52363   0.87550   0.00000  Uiso   1.00
C58    C     0.58307   0.58980   0.87360   0.00000  Uiso   1.00
C59    C     0.49982   0.72871   0.88155   0.00000  Uiso   1.00
C60    C     0.58016   0.26467   0.80207   0.00000  Uiso   1.00
C61    C     0.60453   0.19301   0.85314   0.00000  Uiso   1.00
C62    C     0.56906   0.10029   0.87405   0.00000  Uiso   1.00
C63    C     0.60007   0.04604   0.92118   0.00000  Uiso   1.00
C64    C     0.64269   0.26617   0.75895   0.00000  Uiso   1.00
C65    C     0.63930   0.23498   0.70066   0.00000  Uiso   1.00
C66    C     0.70244   0.24233   0.66849   0.00000  Uiso   1.00
C67    C     0.57423   0.38178   0.82598   0.00000  Uiso   1.00
C68    C     0.51328   0.44781   0.82403   0.00000  Uiso   1.00
C69    C     0.51879   0.55251   0.84828   0.00000  Uiso   1.00
H70    H     0.74827   0.36217   0.86826   0.00000  Uiso   1.00
H71    H     0.74944   0.20492   0.94506   0.00000  Uiso   1.00
H72    H     0.81967   0.33960   0.77169   0.00000  Uiso   1.00
H73    H     0.69367   0.55240   0.89505   0.00000  Uiso   1.00
H74    H     0.72244   0.01416   0.01905   0.00000  Uiso   1.00
H75    H     0.87053   0.29817   0.65350   0.00000  Uiso   1.00
H76    H     0.60483   0.74689   0.91361   0.00000  Uiso   1.00
H77    H     0.53020   0.23570   0.78239   0.00000  Uiso   1.00
H78    H     0.51940   0.07151   0.85449   0.00000  Uiso   1.00
H79    H     0.58963   0.20619   0.68112   0.00000  Uiso   1.00
H80    H     0.46363   0.41898   0.80447   0.00000  Uiso   1.00
H81    H     0.53574   0.90587   0.94554   0.00000  Uiso   1.00
H82    H     0.68383   0.18989   0.57998   0.00000  Uiso   1.00
H83    H     0.41813   0.63861   0.84010   0.00000  Uiso   1.00
O84    O     0.62593   0.85427   0.03126   0.00000  Uiso   1.00
O85    O     0.82021   0.22690   0.55166   0.00000  Uiso   1.00
O86    O     0.47163   0.81561   0.89293   0.00000  Uiso   1.00
N87    N     0.67998   0.01122   0.99187   0.00000  Uiso   1.00
N88    N     0.81843   0.27673   0.65009   0.00000  Uiso   1.00
N89    N     0.57003   0.69626   0.89327   0.00000  Uiso   1.00
N90    N     0.57951   0.95295   0.95231   0.00000  Uiso   1.00
N91    N     0.71797   0.21847   0.61054   0.00000  Uiso   1.00
N92    N     0.46957   0.63800   0.85371   0.00000  Uiso   1.00
C93    C     0.19831   0.16681   0.15141   0.00000  Uiso   1.00
C94    C     0.16870   0.26977   0.12159   0.00000  Uiso   1.00
C95    C     0.19977   0.32390   0.07448   0.00000  Uiso   1.00
C96    C     0.16436   0.41668   0.05351   0.00000  Uiso   1.00
C97    C     0.12816   0.57093   0.00337   0.00000  Uiso   1.00
C98    C     0.20686   0.19661   0.21578   0.00000  Uiso   1.00
C99    C     0.27002   0.18921   0.24787   0.00000  Uiso   1.00
C100   C     0.26673   0.22039   0.30619   0.00000  Uiso   1.00
C101   C     0.28977   0.26098   0.40231   0.00000  Uiso   1.00
C102   C     0.13840   0.08100   0.14875   0.00000  Uiso   1.00
C103   C     0.14400   0.97637   0.12450   0.00000  Uiso   1.00
C104   C     0.08307   0.91020   0.12640   0.00000  Uiso   1.00
C105   C     0.99982   0.77129   0.11845   0.00000  Uiso   1.00
C106   C     0.08016   0.23533   0.19793   0.00000  Uiso   1.00
C107   C     0.10453   0.30699   0.14686   0.00000  Uiso   1.00
C108   C     0.06906   0.39971   0.12595   0.00000  Uiso   1.00
C109   C     0.10007   0.45396   0.07882   0.00000  Uiso   1.00
C110   C     0.14269   0.23383   0.24105   0.00000  Uiso   1.00
C111   C     0.13930   0.26502   0.29934   0.00000  Uiso   1.00
C112   C     0.20244   0.25767   0.33151   0.00000  Uiso   1.00
C113   C     0.07423   0.11822   0.17402   0.00000  Uiso   1.00
C114   C     0.01328   0.05219   0.17597   0.00000  Uiso   1.00
C115   C     0.01879   0.94749   0.15172   0.00000  Uiso   1.00
H116   H     0.24827   0.13783   0.13174   0.00000  Uiso   1.00
H117   H     0.24944   0.29508   0.05494   0.00000  Uiso   1.00
H118   H     0.31967   0.16040   0.22831   0.00000  Uiso   1.00
H119   H     0.19367   0.94760   0.10495   0.00000  Uiso   1.00
H120   H     0.22244   0.48584   0.98095   0.00000  Uiso   1.00
H121   H     0.37053   0.20183   0.34650   0.00000  Uiso   1.00
H122   H     0.10483   0.75311   0.08639   0.00000  Uiso   1.00
H123   H     0.03020   0.26430   0.21761   0.00000  Uiso   1.00
H124   H     0.01940   0.42849   0.14551   0.00000  Uiso   1.00
H125   H     0.08963   0.29381   0.31888   0.00000  Uiso   1.00
H126   H     0.96363   0.08102   0.19553   0.00000  Uiso   1.00
H127   H     0.03574   0.59413   0.05446   0.00000  Uiso   1.00
H128   H     0.18383   0.31011   0.42002   0.00000  Uiso   1.00
H129   H     0.91813   0.86139   0.15990   0.00000  Uiso   1.00
O130   O     0.12593   0.64573   0.96874   0.00000  Uiso   1.00
O131   O     0.32021   0.27310   0.44834   0.00000  Uiso   1.00
O132   O     0.97163   0.68439   0.10707   0.00000  Uiso   1.00
N133   N     0.17998   0.48878   0.00813   0.00000  Uiso   1.00
N134   N     0.31843   0.22327   0.34991   0.00000  Uiso   1.00
N135   N     0.07003   0.80374   0.10673   0.00000  Uiso   1.00
N136   N     0.07951   0.54705   0.04769   0.00000  Uiso   1.00
N137   N     0.21797   0.28153   0.38946   0.00000  Uiso   1.00
N138   N     0.96957   0.86200   0.14629   0.00000  Uiso   1.00
C139   C     0.30169   0.33319   0.65141   0.00000  Uiso   1.00
C140   C     0.33130   0.23023   0.62159   0.00000  Uiso   1.00
C141   C     0.30023   0.17610   0.57448   0.00000  Uiso   1.00
C142   C     0.33564   0.08332   0.55351   0.00000  Uiso   1.00
C143   C     0.37184   0.92907   0.50337   0.00000  Uiso   1.00
C144   C     0.29314   0.30339   0.71578   0.00000  Uiso   1.00
C145   C     0.22998   0.31079   0.74787   0.00000  Uiso   1.00
C146   C     0.23327   0.27961   0.80619   0.00000  Uiso   1.00
C147   C     0.21023   0.23902   0.90231   0.00000  Uiso   1.00
C148   C     0.36160   0.41900   0.64875   0.00000  Uiso   1.00
C149   C     0.35600   0.52363   0.62450   0.00000  Uiso   1.00
C150   C     0.41693   0.58980   0.62640   0.00000  Uiso   1.00
C151   C     0.50018   0.72871   0.61845   0.00000  Uiso   1.00
C152   C     0.41984   0.26467   0.69793   0.00000  Uiso   1.00
C153   C     0.39547   0.19301   0.64686   0.00000  Uiso   1.00
C154   C     0.43094   0.10029   0.62595   0.00000  Uiso   1.00
C155   C     0.39993   0.04604   0.57882   0.00000  Uiso   1.00
C156   C     0.35731   0.26617   0.74105   0.00000  Uiso   1.00
C157   C     0.36070   0.23498   0.79934   0.00000  Uiso   1.00
C158   C     0.29756   0.24233   0.83151   0.00000  Uiso   1.00
C159   C     0.42577   0.38178   0.67402   0.00000  Uiso   1.00
C160   C     0.48672   0.44781   0.67597   0.00000  Uiso   1.00
C161   C     0.48121   0.55251   0.65172   0.00000  Uiso   1.00
H162   H     0.25173   0.36217   0.63174   0.00000  Uiso   1.00
H163   H     0.25056   0.20492   0.55494   0.00000  Uiso   1.00
H164   H     0.18033   0.33960   0.72831   0.00000  Uiso   1.00
H165   H     0.30633   0.55240   0.60495   0.00000  Uiso   1.00
H166   H     0.27756   0.01416   0.48095   0.00000  Uiso   1.00
H167   H     0.12947   0.29817   0.84650   0.00000  Uiso   1.00
H168   H     0.39517   0.74689   0.58639   0.00000  Uiso   1.00
H169   H     0.46980   0.23570   0.71761   0.00000  Uiso   1.00
H170   H     0.48060   0.07151   0.64551   0.00000  Uiso   1.00
H171   H     0.41037   0.20619   0.81888   0.00000  Uiso   1.00
H172   H     0.53637   0.41898   0.69553   0.00000  Uiso   1.00
H173   H     0.46426   0.90587   0.55446   0.00000  Uiso   1.00
H174   H     0.31617   0.18989   0.92002   0.00000  Uiso   1.00
H175   H     0.58187   0.63861   0.65990   0.00000  Uiso   1.00
O176   O     0.37407   0.85427   0.46874   0.00000  Uiso   1.00
O177   O     0.17979   0.22690   0.94834   0.00000  Uiso   1.00
O178   O     0.52837   0.81561   0.60707   0.00000  Uiso   1.00
N179   N     0.32002   0.01122   0.50813   0.00000  Uiso   1.00
N180   N     0.18157   0.27673   0.84991   0.00000  Uiso   1.00
N181   N     0.42997   0.69626   0.60673   0.00000  Uiso   1.00
N182   N     0.42049   0.95295   0.54769   0.00000  Uiso   1.00
N183   N     0.28203   0.21847   0.88946   0.00000  Uiso   1.00
N184   N     0.53043   0.63800   0.64629   0.00000  Uiso   1.00
C185   C     0.19831   0.83319   0.65141   0.00000  Uiso   1.00
C186   C     0.16870   0.73023   0.62159   0.00000  Uiso   1.00
C187   C     0.19977   0.67610   0.57448   0.00000  Uiso   1.00
C188   C     0.16436   0.58332   0.55351   0.00000  Uiso   1.00
C189   C     0.12816   0.42907   0.50337   0.00000  Uiso   1.00
C190   C     0.20686   0.80339   0.71578   0.00000  Uiso   1.00
C191   C     0.27002   0.81079   0.74787   0.00000  Uiso   1.00
C192   C     0.26673   0.77961   0.80619   0.00000  Uiso   1.00
C193   C     0.28977   0.73902   0.90231   0.00000  Uiso   1.00
C194   C     0.13840   0.91900   0.64875   0.00000  Uiso   1.00
C195   C     0.14400   0.02363   0.62450   0.00000  Uiso   1.00
C196   C     0.08307   0.08980   0.62640   0.00000  Uiso   1.00
C197   C     0.99982   0.22871   0.61845   0.00000  Uiso   1.00
C198   C     0.08016   0.76467   0.69793   0.00000  Uiso   1.00
C199   C     0.10453   0.69301   0.64686   0.00000  Uiso   1.00
C200   C     0.06906   0.60029   0.62595   0.00000  Uiso   1.00
C201   C     0.10007   0.54604   0.57882   0.00000  Uiso   1.00
C202   C     0.14269   0.76617   0.74105   0.00000  Uiso   1.00
C203   C     0.13930   0.73498   0.79934   0.00000  Uiso   1.00
C204   C     0.20244   0.74233   0.83151   0.00000  Uiso   1.00
C205   C     0.07423   0.88178   0.67402   0.00000  Uiso   1.00
C206   C     0.01328   0.94781   0.67597   0.00000  Uiso   1.00
C207   C     0.01879   0.05251   0.65172   0.00000  Uiso   1.00
H208   H     0.24827   0.86217   0.63174   0.00000  Uiso   1.00
H209   H     0.24944   0.70492   0.55494   0.00000  Uiso   1.00
H210   H     0.31967   0.83960   0.72831   0.00000  Uiso   1.00
H211   H     0.19367   0.05240   0.60495   0.00000  Uiso   1.00
H212   H     0.22244   0.51416   0.48095   0.00000  Uiso   1.00
H213   H     0.37053   0.79817   0.84650   0.00000  Uiso   1.00
H214   H     0.10483   0.24689   0.58639   0.00000  Uiso   1.00
H215   H     0.03020   0.73570   0.71761   0.00000  Uiso   1.00
H216   H     0.01940   0.57151   0.64551   0.00000  Uiso   1.00
H217   H     0.08963   0.70619   0.81888   0.00000  Uiso   1.00
H218   H     0.96363   0.91898   0.69553   0.00000  Uiso   1.00
H219   H     0.03574   0.40587   0.55446   0.00000  Uiso   1.00
H220   H     0.18383   0.68989   0.92002   0.00000  Uiso   1.00
H221   H     0.91813   0.13861   0.65990   0.00000  Uiso   1.00
O222   O     0.12593   0.35427   0.46874   0.00000  Uiso   1.00
O223   O     0.32021   0.72690   0.94834   0.00000  Uiso   1.00
O224   O     0.97163   0.31561   0.60707   0.00000  Uiso   1.00
N225   N     0.17998   0.51122   0.50813   0.00000  Uiso   1.00
N226   N     0.31843   0.77673   0.84991   0.00000  Uiso   1.00
N227   N     0.07003   0.19626   0.60673   0.00000  Uiso   1.00
N228   N     0.07951   0.45295   0.54769   0.00000  Uiso   1.00
N229   N     0.21797   0.71847   0.88946   0.00000  Uiso   1.00
N230   N     0.96957   0.13800   0.64629   0.00000  Uiso   1.00
C231   C     0.30169   0.66681   0.15141   0.00000  Uiso   1.00
C232   C     0.33130   0.76977   0.12159   0.00000  Uiso   1.00
C233   C     0.30023   0.82390   0.07448   0.00000  Uiso   1.00
C234   C     0.33564   0.91668   0.05351   0.00000  Uiso   1.00
C235   C     0.37184   0.07093   0.00337   0.00000  Uiso   1.00
C236   C     0.29314   0.69661   0.21578   0.00000  Uiso   1.00
C237   C     0.22998   0.68921   0.24787   0.00000  Uiso   1.00
C238   C     0.23327   0.72039   0.30619   0.00000  Uiso   1.00
C239   C     0.21023   0.76098   0.40231   0.00000  Uiso   1.00
C240   C     0.36160   0.58100   0.14875   0.00000  Uiso   1.00
C241   C     0.35600   0.47637   0.12450   0.00000  Uiso   1.00
C242   C     0.41693   0.41020   0.12640   0.00000  Uiso   1.00
C243   C     0.50018   0.27129   0.11845   0.00000  Uiso   1.00
C244   C     0.41984   0.73533   0.19793   0.00000  Uiso   1.00
C245   C     0.39547   0.80699   0.14686   0.00000  Uiso   1.00
C246   C     0.43094   0.89971   0.12595   0.00000  Uiso   1.00
C247   C     0.39993   0.95396   0.07882   0.00000  Uiso   1.00
C248   C     0.35731   0.73383   0.24105   0.00000  Uiso   1.00
C249   C     0.36070   0.76502   0.29934   0.00000  Uiso   1.00
C250   C     0.29756   0.75767   0.33151   0.00000  Uiso   1.00
C251   C     0.42577   0.61822   0.17402   0.00000  Uiso   1.00
C252   C     0.48672   0.55219   0.17597   0.00000  Uiso   1.00
C253   C     0.48121   0.44749   0.15172   0.00000  Uiso   1.00
H254   H     0.25173   0.63783   0.13174   0.00000  Uiso   1.00
H255   H     0.25056   0.79508   0.05494   0.00000  Uiso   1.00
H256   H     0.18033   0.66040   0.22831   0.00000  Uiso   1.00
H257   H     0.30633   0.44760   0.10495   0.00000  Uiso   1.00
H258   H     0.27756   0.98584   0.98095   0.00000  Uiso   1.00
H259   H     0.12947   0.70183   0.34650   0.00000  Uiso   1.00
H260   H     0.39517   0.25311   0.08639   0.00000  Uiso   1.00
H261   H     0.46980   0.76430   0.21761   0.00000  Uiso   1.00
H262   H     0.48060   0.92849   0.14551   0.00000  Uiso   1.00
H263   H     0.41037   0.79381   0.31888   0.00000  Uiso   1.00
H264   H     0.53637   0.58102   0.19553   0.00000  Uiso   1.00
H265   H     0.46426   0.09413   0.05446   0.00000  Uiso   1.00
H266   H     0.31617   0.81011   0.42002   0.00000  Uiso   1.00
H267   H     0.58187   0.36139   0.15990   0.00000  Uiso   1.00
O268   O     0.37407   0.14573   0.96874   0.00000  Uiso   1.00
O269   O     0.17979   0.77310   0.44834   0.00000  Uiso   1.00
O270   O     0.52837   0.18439   0.10707   0.00000  Uiso   1.00
N271   N     0.32002   0.98878   0.00813   0.00000  Uiso   1.00
N272   N     0.18157   0.72327   0.34991   0.00000  Uiso   1.00
N273   N     0.42997   0.30374   0.10673   0.00000  Uiso   1.00
N274   N     0.42049   0.04705   0.04769   0.00000  Uiso   1.00
N275   N     0.28203   0.78153   0.38946   0.00000  Uiso   1.00
N276   N     0.53043   0.36200   0.14629   0.00000  Uiso   1.00
C277   C     0.80169   0.83319   0.84859   0.00000  Uiso   1.00
C278   C     0.83130   0.73023   0.87841   0.00000  Uiso   1.00
C279   C     0.80023   0.67610   0.92552   0.00000  Uiso   1.00
C280   C     0.83564   0.58332   0.94649   0.00000  Uiso   1.00
C281   C     0.87184   0.42907   0.99663   0.00000  Uiso   1.00
C282   C     0.79314   0.80339   0.78422   0.00000  Uiso   1.00
C283   C     0.72998   0.81079   0.75213   0.00000  Uiso   1.00
C284   C     0.73327   0.77961   0.69381   0.00000  Uiso   1.00
C285   C     0.71023   0.73902   0.59769   0.00000  Uiso   1.00
C286   C     0.86160   0.91900   0.85125   0.00000  Uiso   1.00
C287   C     0.85600   0.02363   0.87550   0.00000  Uiso   1.00
C288   C     0.91693   0.08980   0.87360   0.00000  Uiso   1.00
C289   C     0.00018   0.22871   0.88155   0.00000  Uiso   1.00
C290   C     0.91984   0.76467   0.80207   0.00000  Uiso   1.00
C291   C     0.89547   0.69301   0.85314   0.00000  Uiso   1.00
C292   C     0.93094   0.60029   0.87405   0.00000  Uiso   1.00
C293   C     0.89993   0.54604   0.92118   0.00000  Uiso   1.00
C294   C     0.85731   0.76617   0.75895   0.00000  Uiso   1.00
C295   C     0.86070   0.73498   0.70066   0.00000  Uiso   1.00
C296   C     0.79756   0.74233   0.66849   0.00000  Uiso   1.00
C297   C     0.92577   0.88178   0.82598   0.00000  Uiso   1.00
C298   C     0.98672   0.94781   0.82403   0.00000  Uiso   1.00
C299   C     0.98121   0.05251   0.84828   0.00000  Uiso   1.00
H300   H     0.75173   0.86217   0.86826   0.00000  Uiso   1.00
H301   H     0.75056   0.70492   0.94506   0.00000  Uiso   1.00
H302   H     0.68033   0.83960   0.77169   0.00000  Uiso   1.00
H303   H     0.80633   0.05240   0.89505   0.00000  Uiso   1.00
H304   H     0.77756   0.51416   0.01905   0.00000  Uiso   1.00
H305   H     0.62947   0.79817   0.65350   0.00000  Uiso   1.00
H306   H     0.89517   0.24689   0.91361   0.00000  Uiso   1.00
H307   H     0.96980   0.73570   0.78239   0.00000  Uiso   1.00
H308   H     0.98060   0.57151   0.85449   0.00000  Uiso   1.00
H309   H     0.91037   0.70619   0.68112   0.00000  Uiso   1.00
H310   H     0.03637   0.91898   0.80447   0.00000  Uiso   1.00
H311   H     0.96426   0.40587   0.94554   0.00000  Uiso   1.00
H312   H     0.81617   0.68989   0.57998   0.00000  Uiso   1.00
H313   H     0.08187   0.13861   0.84010   0.00000  Uiso   1.00
O314   O     0.87407   0.35427   0.03126   0.00000  Uiso   1.00
O315   O     0.67979   0.72690   0.55166   0.00000  Uiso   1.00
O316   O     0.02837   0.31561   0.89293   0.00000  Uiso   1.00
N317   N     0.82002   0.51122   0.99187   0.00000  Uiso   1.00
N318   N     0.68157   0.77673   0.65009   0.00000  Uiso   1.00
N319   N     0.92997   0.19626   0.89327   0.00000  Uiso   1.00
N320   N     0.92049   0.45295   0.95231   0.00000  Uiso   1.00
N321   N     0.78203   0.71847   0.61054   0.00000  Uiso   1.00
N322   N     0.03043   0.13800   0.85371   0.00000  Uiso   1.00
C323   C     0.69831   0.66681   0.34859   0.00000  Uiso   1.00
C324   C     0.66870   0.76977   0.37841   0.00000  Uiso   1.00
C325   C     0.69977   0.82390   0.42552   0.00000  Uiso   1.00
C326   C     0.66436   0.91668   0.44649   0.00000  Uiso   1.00
C327   C     0.62816   0.07093   0.49663   0.00000  Uiso   1.00
C328   C     0.70686   0.69661   0.28422   0.00000  Uiso   1.00
C329   C     0.77002   0.68921   0.25213   0.00000  Uiso   1.00
C330   C     0.76673   0.72039   0.19381   0.00000  Uiso   1.00
C331   C     0.78977   0.76098   0.09769   0.00000  Uiso   1.00
C332   C     0.63840   0.58100   0.35125   0.00000  Uiso   1.00
C333   C     0.64400   0.47637   0.37550   0.00000  Uiso   1.00
C334   C     0.58307   0.41020   0.37360   0.00000  Uiso   1.00
C335   C     0.49982   0.27129   0.38155   0.00000  Uiso   1.00
C336   C     0.58016   0.73533   0.30207   0.00000  Uiso   1.00
C337   C     0.60453   0.80699   0.35314   0.00000  Uiso   1.00
C338   C     0.56906   0.89971   0.37405   0.00000  Uiso   1.00
C339   C     0.60007   0.95396   0.42118   0.00000  Uiso   1.00
C340   C     0.64269   0.73383   0.25895   0.00000  Uiso   1.00
C341   C     0.63930   0.76502   0.20066   0.00000  Uiso   1.00
C342   C     0.70244   0.75767   0.16849   0.00000  Uiso   1.00
C343   C     0.57423   0.61822   0.32598   0.00000  Uiso   1.00
C344   C     0.51328   0.55219   0.32403   0.00000  Uiso   1.00
C345   C     0.51879   0.44749   0.34828   0.00000  Uiso   1.00
H346   H     0.74827   0.63783   0.36826   0.00000  Uiso   1.00
H347   H     0.74944   0.79508   0.44506   0.00000  Uiso   1.00
H348   H     0.81967   0.66040   0.27169   0.00000  Uiso   1.00
H349   H     0.69367   0.44760   0.39505   0.00000  Uiso   1.00
H350   H     0.72244   0.98584   0.51905   0.00000  Uiso   1.00
H351   H     0.87053   0.70183   0.15350   0.00000  Uiso   1.00
H352   H     0.60483   0.25311   0.41361   0.00000  Uiso   1.00
H353   H     0.53020   0.76430   0.28239   0.00000  Uiso   1.00
H354   H     0.51940   0.92849   0.35449   0.00000  Uiso   1.00
H355   H     0.58963   0.79381   0.18112   0.00000  Uiso   1.00
H356   H     0.46363   0.58102   0.30447   0.00000  Uiso   1.00
H357   H     0.53574   0.09413   0.44554   0.00000  Uiso   1.00
H358   H     0.68383   0.81011   0.07998   0.00000  Uiso   1.00
H359   H     0.41813   0.36139   0.34010   0.00000  Uiso   1.00
O360   O     0.62593   0.14573   0.53126   0.00000  Uiso   1.00
O361   O     0.82021   0.77310   0.05166   0.00000  Uiso   1.00
O362   O     0.47163   0.18439   0.39293   0.00000  Uiso   1.00
N363   N     0.67998   0.98878   0.49187   0.00000  Uiso   1.00
N364   N     0.81843   0.72327   0.15009   0.00000  Uiso   1.00
N365   N     0.57003   0.30374   0.39327   0.00000  Uiso   1.00
N366   N     0.57951   0.04705   0.45231   0.00000  Uiso   1.00
N367   N     0.71797   0.78153   0.11054   0.00000  Uiso   1.00
N368   N     0.46957   0.36200   0.35371   0.00000  Uiso   1.00
