data_job_06175
_audit_creation_date              2018-12-19
_audit_creation_method            'Materials Studio'
_symmetry_space_group_name_H-M    'P1'
_symmetry_Int_Tables_number       1
_symmetry_cell_setting            triclinic
loop_
_symmetry_equiv_pos_as_xyz
  x,y,z
_cell_length_a                    16.5030
_cell_length_b                    16.1977
_cell_length_c                    15.5346
_cell_angle_alpha                 105.9620
_cell_angle_beta                  105.3440
_cell_angle_gamma                 103.4210
loop_
_atom_site_label
_atom_site_type_symbol
_atom_site_fract_x
_atom_site_fract_y
_atom_site_fract_z
_atom_site_U_iso_or_equiv
_atom_site_adp_type
_atom_site_occupancy
C1     C     0.36165   0.01482   0.34379   0.00000  Uiso   1.00
C2     C     0.29365   0.93642   0.34917   0.00000  Uiso   1.00
C3     C     0.31291   0.88062   0.39970   0.00000  Uiso   1.00
C4     C     0.24134   0.81273   0.39562   0.00000  Uiso   1.00
C5     C     0.14908   0.69278   0.41203   0.00000  Uiso   1.00
C6     C     0.33500   0.09870   0.37791   0.00000  Uiso   1.00
C7     C     0.38903   0.17936   0.45261   0.00000  Uiso   1.00
C8     C     0.35225   0.24808   0.47272   0.00000  Uiso   1.00
C9     C     0.32421   0.38011   0.53371   0.00000  Uiso   1.00
C10    C     0.34572   0.99472   0.23774   0.00000  Uiso   1.00
C11    C     0.40877   0.98795   0.19458   0.00000  Uiso   1.00
C12    C     0.38103   0.96915   0.09666   0.00000  Uiso   1.00
C13    C     0.36963   0.93972   0.94002   0.00000  Uiso   1.00
C14    C     0.20028   0.99348   0.24666   0.00000  Uiso   1.00
C15    C     0.20600   0.92483   0.29641   0.00000  Uiso   1.00
C16    C     0.13437   0.85700   0.29225   0.00000  Uiso   1.00
C17    C     0.15353   0.80111   0.34277   0.00000  Uiso   1.00
C18    C     0.24735   0.08712   0.32516   0.00000  Uiso   1.00
C19    C     0.21049   0.15574   0.34515   0.00000  Uiso   1.00
C20    C     0.26445   0.23647   0.41987   0.00000  Uiso   1.00
C21    C     0.25807   0.98312   0.18498   0.00000  Uiso   1.00
C22    C     0.23022   0.96433   0.08712   0.00000  Uiso   1.00
C23    C     0.29322   0.95754   0.04381   0.00000  Uiso   1.00
H24    H     0.42989   0.02385   0.38487   0.00000  Uiso   1.00
H25    H     0.38076   0.88962   0.44053   0.00000  Uiso   1.00
H26    H     0.45686   0.18831   0.49342   0.00000  Uiso   1.00
H27    H     0.47659   0.99693   0.23542   0.00000  Uiso   1.00
H28    H     0.28762   0.73570   0.47901   0.00000  Uiso   1.00
H29    H     0.44810   0.36552   0.59051   0.00000  Uiso   1.00
H30    H     0.48972   0.96197   0.04648   0.00000  Uiso   1.00
H31    H     0.13203   0.98445   0.20559   0.00000  Uiso   1.00
H32    H     0.06655   0.84805   0.25142   0.00000  Uiso   1.00
H33    H     0.14266   0.14675   0.30431   0.00000  Uiso   1.00
H34    H     0.16239   0.95537   0.04632   0.00000  Uiso   1.00
H35    H     0.03260   0.70197   0.32552   0.00000  Uiso   1.00
H36    H     0.19308   0.33179   0.43702   0.00000  Uiso   1.00
H37    H     0.23469   0.92823   0.89299   0.00000  Uiso   1.00
O38    O     0.12241   0.62984   0.43567   0.00000  Uiso   1.00
O39    O     0.33296   0.45614   0.58194   0.00000  Uiso   1.00
O40    O     0.38755   0.92668   0.86819   0.00000  Uiso   1.00
N41    N     0.23659   0.74647   0.43658   0.00000  Uiso   1.00
N42    N     0.38662   0.33531   0.54084   0.00000  Uiso   1.00
N43    N     0.42554   0.95804   0.03222   0.00000  Uiso   1.00
N44    N     0.09937   0.72832   0.35399   0.00000  Uiso   1.00
N45    N     0.24940   0.31716   0.45824   0.00000  Uiso   1.00
N46    N     0.28831   0.93989   0.94962   0.00000  Uiso   1.00
C47    C     0.36039   0.35166   0.99003   0.00000  Uiso   1.00
C48    C     0.36632   0.28040   0.90637   0.00000  Uiso   1.00
C49    C     0.41336   0.29793   0.84777   0.00000  Uiso   1.00
C50    C     0.41049   0.22343   0.77515   0.00000  Uiso   1.00
C51    C     0.42706   0.12629   0.64732   0.00000  Uiso   1.00
C52    C     0.39255   0.32568   0.07711   0.00000  Uiso   1.00
C53    C     0.46164   0.38128   0.16207   0.00000  Uiso   1.00
C54    C     0.48083   0.34489   0.23318   0.00000  Uiso   1.00
C55    C     0.53808   0.31806   0.37045   0.00000  Uiso   1.00
C56    C     0.26148   0.33685   0.96965   0.00000  Uiso   1.00
C57    C     0.22037   0.40186   0.96428   0.00000  Uiso   1.00
C58    C     0.12921   0.37488   0.94493   0.00000  Uiso   1.00
C59    C     0.98296   0.36540   0.91536   0.00000  Uiso   1.00
C60    C     0.27162   0.18816   0.96526   0.00000  Uiso   1.00
C61    C     0.31811   0.19160   0.89292   0.00000  Uiso   1.00
C62    C     0.31515   0.11705   0.82036   0.00000  Uiso   1.00
C63    C     0.36218   0.13447   0.76166   0.00000  Uiso   1.00
C64    C     0.34434   0.23688   0.06366   0.00000  Uiso   1.00
C65    C     0.36343   0.20039   0.13466   0.00000  Uiso   1.00
C66    C     0.43253   0.25592   0.21970   0.00000  Uiso   1.00
C67    C     0.21327   0.24805   0.95619   0.00000  Uiso   1.00
C68    C     0.12215   0.22096   0.93686   0.00000  Uiso   1.00
C69    C     0.08091   0.28591   0.93146   0.00000  Uiso   1.00
H70    H     0.39793   0.42080   0.00051   0.00000  Uiso   1.00
H71    H     0.45068   0.36667   0.85821   0.00000  Uiso   1.00
H72    H     0.49893   0.45000   0.17246   0.00000  Uiso   1.00
H73    H     0.25770   0.47057   0.97469   0.00000  Uiso   1.00
H74    H     0.48792   0.26749   0.69453   0.00000  Uiso   1.00
H75    H     0.58965   0.44322   0.35716   0.00000  Uiso   1.00
H76    H     0.08096   0.48659   0.94013   0.00000  Uiso   1.00
H77    H     0.23409   0.11902   0.95479   0.00000  Uiso   1.00
H78    H     0.27783   0.04833   0.80997   0.00000  Uiso   1.00
H79    H     0.32610   0.13167   0.12423   0.00000  Uiso   1.00
H80    H     0.08486   0.15224   0.92646   0.00000  Uiso   1.00
H81    H     0.34763   0.00912   0.65538   0.00000  Uiso   1.00
H82    H     0.44937   0.18485   0.31801   0.00000  Uiso   1.00
H83    H     0.94068   0.22822   0.90098   0.00000  Uiso   1.00
O84    O     0.44954   0.09725   0.58054   0.00000  Uiso   1.00
O85    O     0.58299   0.32780   0.44988   0.00000  Uiso   1.00
O86    O     0.91561   0.38471   0.90274   0.00000  Uiso   1.00
N87    N     0.44888   0.21639   0.70518   0.00000  Uiso   1.00
N88    N     0.54401   0.38068   0.32469   0.00000  Uiso   1.00
N89    N     0.06843   0.42123   0.93483   0.00000  Uiso   1.00
N90    N     0.37339   0.07736   0.68411   0.00000  Uiso   1.00
N91    N     0.46852   0.24165   0.30362   0.00000  Uiso   1.00
N92    N     0.99294   0.28221   0.91376   0.00000  Uiso   1.00
C93    C     0.02795   0.36281   0.34464   0.00000  Uiso   1.00
C94    C     0.94973   0.36879   0.27086   0.00000  Uiso   1.00
C95    C     0.89437   0.41826   0.29077   0.00000  Uiso   1.00
C96    C     0.82658   0.41499   0.21329   0.00000  Uiso   1.00
C97    C     0.70698   0.43207   0.11302   0.00000  Uiso   1.00
C98    C     0.10896   0.39350   0.31722   0.00000  Uiso   1.00
C99    C     0.18747   0.46374   0.37612   0.00000  Uiso   1.00
C100   C     0.25373   0.48126   0.33767   0.00000  Uiso   1.00
C101   C     0.38135   0.53666   0.30940   0.00000  Uiso   1.00
C102   C     0.01013   0.26186   0.32727   0.00000  Uiso   1.00
C103   C     0.00557   0.22140   0.39463   0.00000  Uiso   1.00
C104   C     0.98864   0.12808   0.36465   0.00000  Uiso   1.00
C105   C     0.96281   0.97908   0.35199   0.00000  Uiso   1.00
C106   C     0.00602   0.26901   0.17162   0.00000  Uiso   1.00
C107   C     0.93783   0.31785   0.17688   0.00000  Uiso   1.00
C108   C     0.87011   0.31449   0.09935   0.00000  Uiso   1.00
C109   C     0.81465   0.36395   0.11915   0.00000  Uiso   1.00
C110   C     0.09705   0.34256   0.22324   0.00000  Uiso   1.00
C111   C     0.16321   0.35997   0.18469   0.00000  Uiso   1.00
C112   C     0.24180   0.43022   0.24352   0.00000  Uiso   1.00
C113   C     0.99822   0.21091   0.23329   0.00000  Uiso   1.00
C114   C     0.98130   0.11763   0.20320   0.00000  Uiso   1.00
C115   C     0.97671   0.07704   0.27050   0.00000  Uiso   1.00
H116   H     0.03722   0.40247   0.41780   0.00000  Uiso   1.00
H117   H     0.90361   0.45769   0.36351   0.00000  Uiso   1.00
H118   H     0.19667   0.50315   0.44885   0.00000  Uiso   1.00
H119   H     0.01479   0.26085   0.46735   0.00000  Uiso   1.00
H120   H     0.75024   0.49647   0.26187   0.00000  Uiso   1.00
H121   H     0.36818   0.59230   0.44182   0.00000  Uiso   1.00
H122   H     0.98465   0.08136   0.48084   0.00000  Uiso   1.00
H123   H     0.99675   0.22935   0.09845   0.00000  Uiso   1.00
H124   H     0.86091   0.27506   0.02663   0.00000  Uiso   1.00
H125   H     0.15397   0.32053   0.11197   0.00000  Uiso   1.00
H126   H     0.97209   0.07823   0.13047   0.00000  Uiso   1.00
H127   H     0.71559   0.34824   0.98845   0.00000  Uiso   1.00
H128   H     0.33353   0.44408   0.16840   0.00000  Uiso   1.00
H129   H     0.95000   0.93314   0.20741   0.00000  Uiso   1.00
O130   O     0.64430   0.45558   0.08368   0.00000  Uiso   1.00
O131   O     0.45502   0.58130   0.31977   0.00000  Uiso   1.00
O132   O     0.95184   0.91096   0.37096   0.00000  Uiso   1.00
N133   N     0.76072   0.45529   0.20738   0.00000  Uiso   1.00
N134   N     0.33845   0.54491   0.37562   0.00000  Uiso   1.00
N135   N     0.97991   0.06722   0.41210   0.00000  Uiso   1.00
N136   N     0.74207   0.37553   0.06025   0.00000  Uiso   1.00
N137   N     0.31980   0.46515   0.22849   0.00000  Uiso   1.00
N138   N     0.96126   0.98747   0.26497   0.00000  Uiso   1.00
C139   C     0.63835   0.98518   0.65621   0.00000  Uiso   1.00
C140   C     0.70635   0.06358   0.65083   0.00000  Uiso   1.00
C141   C     0.68709   0.11938   0.60030   0.00000  Uiso   1.00
C142   C     0.75866   0.18727   0.60438   0.00000  Uiso   1.00
C143   C     0.85092   0.30722   0.58797   0.00000  Uiso   1.00
C144   C     0.66500   0.90129   0.62209   0.00000  Uiso   1.00
C145   C     0.61097   0.82064   0.54739   0.00000  Uiso   1.00
C146   C     0.64774   0.75192   0.52728   0.00000  Uiso   1.00
C147   C     0.67579   0.61988   0.46629   0.00000  Uiso   1.00
C148   C     0.65428   0.00528   0.76226   0.00000  Uiso   1.00
C149   C     0.59123   0.01205   0.80542   0.00000  Uiso   1.00
C150   C     0.61897   0.03085   0.90334   0.00000  Uiso   1.00
C151   C     0.63037   0.06028   0.05998   0.00000  Uiso   1.00
C152   C     0.79972   0.00652   0.75334   0.00000  Uiso   1.00
C153   C     0.79400   0.07517   0.70359   0.00000  Uiso   1.00
C154   C     0.86563   0.14300   0.70775   0.00000  Uiso   1.00
C155   C     0.84647   0.19889   0.65723   0.00000  Uiso   1.00
C156   C     0.75265   0.91288   0.67484   0.00000  Uiso   1.00
C157   C     0.78951   0.84426   0.65485   0.00000  Uiso   1.00
C158   C     0.73555   0.76353   0.58013   0.00000  Uiso   1.00
C159   C     0.74193   0.01688   0.81502   0.00000  Uiso   1.00
C160   C     0.76978   0.03567   0.91288   0.00000  Uiso   1.00
C161   C     0.70678   0.04246   0.95619   0.00000  Uiso   1.00
H162   H     0.57011   0.97615   0.61513   0.00000  Uiso   1.00
H163   H     0.61924   0.11038   0.55947   0.00000  Uiso   1.00
H164   H     0.54314   0.81169   0.50658   0.00000  Uiso   1.00
H165   H     0.52341   0.00307   0.76458   0.00000  Uiso   1.00
H166   H     0.71238   0.26430   0.52099   0.00000  Uiso   1.00
H167   H     0.55190   0.63448   0.40949   0.00000  Uiso   1.00
H168   H     0.51028   0.03803   0.95352   0.00000  Uiso   1.00
H169   H     0.86796   0.01555   0.79441   0.00000  Uiso   1.00
H170   H     0.93345   0.15195   0.74858   0.00000  Uiso   1.00
H171   H     0.85734   0.85325   0.69569   0.00000  Uiso   1.00
H172   H     0.83761   0.04463   0.95368   0.00000  Uiso   1.00
H173   H     0.96740   0.29803   0.67448   0.00000  Uiso   1.00
H174   H     0.80692   0.66821   0.56298   0.00000  Uiso   1.00
H175   H     0.76531   0.07177   0.10701   0.00000  Uiso   1.00
O176   O     0.87759   0.37016   0.56433   0.00000  Uiso   1.00
O177   O     0.66704   0.54386   0.41806   0.00000  Uiso   1.00
O178   O     0.61245   0.07332   0.13181   0.00000  Uiso   1.00
N179   N     0.76341   0.25353   0.56342   0.00000  Uiso   1.00
N180   N     0.61338   0.66469   0.45916   0.00000  Uiso   1.00
N181   N     0.57446   0.04196   0.96778   0.00000  Uiso   1.00
N182   N     0.90063   0.27168   0.64601   0.00000  Uiso   1.00
N183   N     0.75060   0.68284   0.54176   0.00000  Uiso   1.00
N184   N     0.71169   0.06011   0.05038   0.00000  Uiso   1.00
C185   C     0.63961   0.64834   0.00997   0.00000  Uiso   1.00
C186   C     0.63368   0.71960   0.09363   0.00000  Uiso   1.00
C187   C     0.58664   0.70207   0.15223   0.00000  Uiso   1.00
C188   C     0.58951   0.77657   0.22485   0.00000  Uiso   1.00
C189   C     0.57294   0.87370   0.35268   0.00000  Uiso   1.00
C190   C     0.60745   0.67432   0.92289   0.00000  Uiso   1.00
C191   C     0.53836   0.61872   0.83793   0.00000  Uiso   1.00
C192   C     0.51917   0.65511   0.76682   0.00000  Uiso   1.00
C193   C     0.46192   0.68193   0.62955   0.00000  Uiso   1.00
C194   C     0.73852   0.66315   0.03035   0.00000  Uiso   1.00
C195   C     0.77963   0.59814   0.03572   0.00000  Uiso   1.00
C196   C     0.87079   0.62512   0.05507   0.00000  Uiso   1.00
C197   C     0.01704   0.63460   0.08464   0.00000  Uiso   1.00
C198   C     0.72838   0.81183   0.03474   0.00000  Uiso   1.00
C199   C     0.68189   0.80840   0.10708   0.00000  Uiso   1.00
C200   C     0.68485   0.88295   0.17964   0.00000  Uiso   1.00
C201   C     0.63782   0.86553   0.23834   0.00000  Uiso   1.00
C202   C     0.65566   0.76312   0.93634   0.00000  Uiso   1.00
C203   C     0.63657   0.79960   0.86534   0.00000  Uiso   1.00
C204   C     0.56747   0.74408   0.78030   0.00000  Uiso   1.00
C205   C     0.78673   0.75195   0.04381   0.00000  Uiso   1.00
C206   C     0.87785   0.77903   0.06314   0.00000  Uiso   1.00
C207   C     0.91909   0.71409   0.06854   0.00000  Uiso   1.00
H208   H     0.60207   0.57920   0.99949   0.00000  Uiso   1.00
H209   H     0.54932   0.63333   0.14179   0.00000  Uiso   1.00
H210   H     0.50107   0.55000   0.82754   0.00000  Uiso   1.00
H211   H     0.74230   0.52943   0.02531   0.00000  Uiso   1.00
H212   H     0.51208   0.73251   0.30547   0.00000  Uiso   1.00
H213   H     0.41035   0.55678   0.64284   0.00000  Uiso   1.00
H214   H     0.91904   0.51341   0.05987   0.00000  Uiso   1.00
H215   H     0.76591   0.88097   0.04521   0.00000  Uiso   1.00
H216   H     0.72217   0.95166   0.19003   0.00000  Uiso   1.00
H217   H     0.67390   0.86833   0.87577   0.00000  Uiso   1.00
H218   H     0.91514   0.84776   0.07354   0.00000  Uiso   1.00
H219   H     0.65237   0.99088   0.34462   0.00000  Uiso   1.00
H220   H     0.55063   0.81515   0.68199   0.00000  Uiso   1.00
H221   H     0.05932   0.77178   0.09902   0.00000  Uiso   1.00
O222   O     0.55046   0.90275   0.41946   0.00000  Uiso   1.00
O223   O     0.41701   0.67220   0.55012   0.00000  Uiso   1.00
O224   O     0.08439   0.61529   0.09726   0.00000  Uiso   1.00
N225   N     0.55112   0.78361   0.29482   0.00000  Uiso   1.00
N226   N     0.45599   0.61932   0.67531   0.00000  Uiso   1.00
N227   N     0.93157   0.57877   0.06517   0.00000  Uiso   1.00
N228   N     0.62661   0.92264   0.31589   0.00000  Uiso   1.00
N229   N     0.53148   0.75835   0.69638   0.00000  Uiso   1.00
N230   N     0.00706   0.71779   0.08624   0.00000  Uiso   1.00
C231   C     0.97205   0.63719   0.65536   0.00000  Uiso   1.00
C232   C     0.05027   0.63121   0.72914   0.00000  Uiso   1.00
C233   C     0.10563   0.58174   0.70923   0.00000  Uiso   1.00
C234   C     0.17342   0.58501   0.78671   0.00000  Uiso   1.00
C235   C     0.29302   0.56793   0.88698   0.00000  Uiso   1.00
C236   C     0.89104   0.60650   0.68278   0.00000  Uiso   1.00
C237   C     0.81253   0.53626   0.62388   0.00000  Uiso   1.00
C238   C     0.74627   0.51874   0.66233   0.00000  Uiso   1.00
C239   C     0.61865   0.46334   0.69060   0.00000  Uiso   1.00
C240   C     0.98987   0.73814   0.67273   0.00000  Uiso   1.00
C241   C     0.99443   0.77860   0.60537   0.00000  Uiso   1.00
C242   C     0.01136   0.87192   0.63535   0.00000  Uiso   1.00
C243   C     0.03719   0.02092   0.64801   0.00000  Uiso   1.00
C244   C     0.99398   0.73099   0.82838   0.00000  Uiso   1.00
C245   C     0.06217   0.68215   0.82312   0.00000  Uiso   1.00
C246   C     0.12989   0.68551   0.90065   0.00000  Uiso   1.00
C247   C     0.18535   0.63605   0.88085   0.00000  Uiso   1.00
C248   C     0.90295   0.65744   0.77676   0.00000  Uiso   1.00
C249   C     0.83679   0.64003   0.81531   0.00000  Uiso   1.00
C250   C     0.75820   0.56978   0.75648   0.00000  Uiso   1.00
C251   C     0.00178   0.78909   0.76671   0.00000  Uiso   1.00
C252   C     0.01870   0.88237   0.79680   0.00000  Uiso   1.00
C253   C     0.02329   0.92296   0.72950   0.00000  Uiso   1.00
H254   H     0.96278   0.59753   0.58220   0.00000  Uiso   1.00
H255   H     0.09639   0.54231   0.63649   0.00000  Uiso   1.00
H256   H     0.80333   0.49685   0.55115   0.00000  Uiso   1.00
H257   H     0.98521   0.73915   0.53265   0.00000  Uiso   1.00
H258   H     0.24976   0.50353   0.73813   0.00000  Uiso   1.00
H259   H     0.63182   0.40770   0.55818   0.00000  Uiso   1.00
H260   H     0.01535   0.91864   0.51916   0.00000  Uiso   1.00
H261   H     0.00325   0.77065   0.90155   0.00000  Uiso   1.00
H262   H     0.13909   0.72494   0.97337   0.00000  Uiso   1.00
H263   H     0.84603   0.67947   0.88803   0.00000  Uiso   1.00
H264   H     0.02791   0.92177   0.86953   0.00000  Uiso   1.00
H265   H     0.28441   0.65176   0.01155   0.00000  Uiso   1.00
H266   H     0.66647   0.55592   0.83160   0.00000  Uiso   1.00
H267   H     0.05000   0.06686   0.79259   0.00000  Uiso   1.00
O268   O     0.35570   0.54442   0.91632   0.00000  Uiso   1.00
O269   O     0.54498   0.41870   0.68023   0.00000  Uiso   1.00
O270   O     0.04816   0.08904   0.62904   0.00000  Uiso   1.00
N271   N     0.23928   0.54471   0.79262   0.00000  Uiso   1.00
N272   N     0.66155   0.45509   0.62438   0.00000  Uiso   1.00
N273   N     0.02009   0.93278   0.58790   0.00000  Uiso   1.00
N274   N     0.25793   0.62447   0.93975   0.00000  Uiso   1.00
N275   N     0.68020   0.53485   0.77151   0.00000  Uiso   1.00
N276   N     0.03874   0.01253   0.73503   0.00000  Uiso   1.00
