data_job_04044
_audit_creation_date              2018-12-19
_audit_creation_method            'Materials Studio'
_symmetry_space_group_name_H-M    'P1'
_symmetry_Int_Tables_number       1
_symmetry_cell_setting            triclinic
loop_
_symmetry_equiv_pos_as_xyz
  x,y,z
_cell_length_a                    24.4610
_cell_length_b                    17.0009
_cell_length_c                    12.0658
_cell_angle_alpha                 90.0000
_cell_angle_beta                  90.0000
_cell_angle_gamma                 90.0000
loop_
_atom_site_label
_atom_site_type_symbol
_atom_site_fract_x
_atom_site_fract_y
_atom_site_fract_z
_atom_site_U_iso_or_equiv
_atom_site_adp_type
_atom_site_occupancy
C1     C     0.64545   0.78349   0.78399   0.00000  Uiso   1.00
C2     C     0.61406   0.80589   0.67946   0.00000  Uiso   1.00
C3     C     0.56379   0.84366   0.67634   0.00000  Uiso   1.00
C4     C     0.54184   0.85895   0.57244   0.00000  Uiso   1.00
C5     C     0.48893   0.89699   0.42491   0.00000  Uiso   1.00
C6     C     0.65534   0.69510   0.77641   0.00000  Uiso   1.00
C7     C     0.63978   0.63973   0.85482   0.00000  Uiso   1.00
C8     C     0.65258   0.56175   0.83253   0.00000  Uiso   1.00
C9     C     0.66378   0.42779   0.83555   0.00000  Uiso   1.00
C10    C     0.70149   0.82206   0.77346   0.00000  Uiso   1.00
C11    C     0.72475   0.87343   0.84941   0.00000  Uiso   1.00
C12    C     0.77641   0.90234   0.82466   0.00000  Uiso   1.00
C13    C     0.85928   0.96552   0.82311   0.00000  Uiso   1.00
C14    C     0.69586   0.74347   0.60500   0.00000  Uiso   1.00
C15    C     0.64144   0.78414   0.58223   0.00000  Uiso   1.00
C16    C     0.61956   0.79938   0.47831   0.00000  Uiso   1.00
C17    C     0.56927   0.83717   0.47504   0.00000  Uiso   1.00
C18    C     0.68272   0.67335   0.67919   0.00000  Uiso   1.00
C19    C     0.69555   0.59544   0.65678   0.00000  Uiso   1.00
C20    C     0.68001   0.53997   0.73513   0.00000  Uiso   1.00
C21    C     0.72887   0.80032   0.67624   0.00000  Uiso   1.00
C22    C     0.78051   0.82915   0.65137   0.00000  Uiso   1.00
C23    C     0.80384   0.88055   0.72726   0.00000  Uiso   1.00
H24    H     0.62414   0.80041   0.85969   0.00000  Uiso   1.00
H25    H     0.54262   0.86047   0.75160   0.00000  Uiso   1.00
H26    H     0.61860   0.65657   0.93005   0.00000  Uiso   1.00
H27    H     0.70355   0.89024   0.92464   0.00000  Uiso   1.00
H28    H     0.46430   0.91744   0.58889   0.00000  Uiso   1.00
H29    H     0.62452   0.48750   0.96518   0.00000  Uiso   1.00
H30    H     0.80367   0.98025   0.95377   0.00000  Uiso   1.00
H31    H     0.71717   0.72654   0.52931   0.00000  Uiso   1.00
H32    H     0.64076   0.78255   0.40309   0.00000  Uiso   1.00
H33    H     0.71674   0.57864   0.58154   0.00000  Uiso   1.00
H34    H     0.80169   0.81231   0.57613   0.00000  Uiso   1.00
H35    H     0.54395   0.85419   0.30603   0.00000  Uiso   1.00
H36    H     0.70418   0.42425   0.68232   0.00000  Uiso   1.00
H37    H     0.88332   0.91699   0.67090   0.00000  Uiso   1.00
O38    O     0.45217   0.92397   0.37039   0.00000  Uiso   1.00
O39    O     0.66239   0.35991   0.86408   0.00000  Uiso   1.00
O40    O     0.89741   0.00638   0.84910   0.00000  Uiso   1.00
N41    N     0.49354   0.89488   0.53964   0.00000  Uiso   1.00
N42    N     0.64333   0.49292   0.89144   0.00000  Uiso   1.00
N43    N     0.81082   0.95357   0.88079   0.00000  Uiso   1.00
N44    N     0.53640   0.86085   0.38743   0.00000  Uiso   1.00
N45    N     0.68619   0.45888   0.73923   0.00000  Uiso   1.00
N46    N     0.85368   0.91954   0.72858   0.00000  Uiso   1.00
C47    C     0.85455   0.21651   0.78399   0.00000  Uiso   1.00
C48    C     0.88594   0.19411   0.67946   0.00000  Uiso   1.00
C49    C     0.93621   0.15634   0.67634   0.00000  Uiso   1.00
C50    C     0.95816   0.14105   0.57244   0.00000  Uiso   1.00
C51    C     0.01107   0.10301   0.42491   0.00000  Uiso   1.00
C52    C     0.84466   0.30490   0.77641   0.00000  Uiso   1.00
C53    C     0.86022   0.36027   0.85482   0.00000  Uiso   1.00
C54    C     0.84742   0.43825   0.83253   0.00000  Uiso   1.00
C55    C     0.83622   0.57221   0.83555   0.00000  Uiso   1.00
C56    C     0.79851   0.17794   0.77346   0.00000  Uiso   1.00
C57    C     0.77525   0.12657   0.84941   0.00000  Uiso   1.00
C58    C     0.72359   0.09766   0.82466   0.00000  Uiso   1.00
C59    C     0.64072   0.03448   0.82311   0.00000  Uiso   1.00
C60    C     0.80414   0.25653   0.60500   0.00000  Uiso   1.00
C61    C     0.85856   0.21586   0.58223   0.00000  Uiso   1.00
C62    C     0.88044   0.20062   0.47831   0.00000  Uiso   1.00
C63    C     0.93073   0.16283   0.47504   0.00000  Uiso   1.00
C64    C     0.81728   0.32665   0.67919   0.00000  Uiso   1.00
C65    C     0.80445   0.40456   0.65678   0.00000  Uiso   1.00
C66    C     0.81999   0.46003   0.73513   0.00000  Uiso   1.00
C67    C     0.77113   0.19968   0.67624   0.00000  Uiso   1.00
C68    C     0.71949   0.17085   0.65137   0.00000  Uiso   1.00
C69    C     0.69616   0.11945   0.72726   0.00000  Uiso   1.00
H70    H     0.87586   0.19959   0.85969   0.00000  Uiso   1.00
H71    H     0.95738   0.13953   0.75160   0.00000  Uiso   1.00
H72    H     0.88140   0.34343   0.93005   0.00000  Uiso   1.00
H73    H     0.79645   0.10976   0.92464   0.00000  Uiso   1.00
H74    H     0.03570   0.08256   0.58889   0.00000  Uiso   1.00
H75    H     0.87548   0.51250   0.96518   0.00000  Uiso   1.00
H76    H     0.69633   0.01975   0.95377   0.00000  Uiso   1.00
H77    H     0.78283   0.27346   0.52931   0.00000  Uiso   1.00
H78    H     0.85924   0.21745   0.40309   0.00000  Uiso   1.00
H79    H     0.78326   0.42136   0.58154   0.00000  Uiso   1.00
H80    H     0.69831   0.18769   0.57613   0.00000  Uiso   1.00
H81    H     0.95605   0.14581   0.30603   0.00000  Uiso   1.00
H82    H     0.79582   0.57575   0.68232   0.00000  Uiso   1.00
H83    H     0.61668   0.08301   0.67090   0.00000  Uiso   1.00
O84    O     0.04783   0.07603   0.37039   0.00000  Uiso   1.00
O85    O     0.83761   0.64009   0.86408   0.00000  Uiso   1.00
O86    O     0.60259   0.99362   0.84910   0.00000  Uiso   1.00
N87    N     0.00646   0.10512   0.53964   0.00000  Uiso   1.00
N88    N     0.85667   0.50708   0.89144   0.00000  Uiso   1.00
N89    N     0.68918   0.04643   0.88079   0.00000  Uiso   1.00
N90    N     0.96360   0.13915   0.38743   0.00000  Uiso   1.00
N91    N     0.81381   0.54112   0.73923   0.00000  Uiso   1.00
N92    N     0.64632   0.08046   0.72858   0.00000  Uiso   1.00
C93    C     0.35455   0.78349   0.71601   0.00000  Uiso   1.00
C94    C     0.38594   0.80589   0.82054   0.00000  Uiso   1.00
C95    C     0.43621   0.84366   0.82366   0.00000  Uiso   1.00
C96    C     0.45816   0.85895   0.92756   0.00000  Uiso   1.00
C97    C     0.51107   0.89699   0.07509   0.00000  Uiso   1.00
C98    C     0.34466   0.69510   0.72359   0.00000  Uiso   1.00
C99    C     0.36022   0.63973   0.64518   0.00000  Uiso   1.00
C100   C     0.34742   0.56175   0.66747   0.00000  Uiso   1.00
C101   C     0.33622   0.42779   0.66445   0.00000  Uiso   1.00
C102   C     0.29851   0.82206   0.72654   0.00000  Uiso   1.00
C103   C     0.27525   0.87343   0.65059   0.00000  Uiso   1.00
C104   C     0.22359   0.90234   0.67534   0.00000  Uiso   1.00
C105   C     0.14072   0.96552   0.67689   0.00000  Uiso   1.00
C106   C     0.30414   0.74347   0.89500   0.00000  Uiso   1.00
C107   C     0.35856   0.78414   0.91777   0.00000  Uiso   1.00
C108   C     0.38044   0.79938   0.02169   0.00000  Uiso   1.00
C109   C     0.43073   0.83717   0.02496   0.00000  Uiso   1.00
C110   C     0.31728   0.67335   0.82081   0.00000  Uiso   1.00
C111   C     0.30445   0.59544   0.84322   0.00000  Uiso   1.00
C112   C     0.31999   0.53997   0.76487   0.00000  Uiso   1.00
C113   C     0.27113   0.80032   0.82376   0.00000  Uiso   1.00
C114   C     0.21949   0.82915   0.84863   0.00000  Uiso   1.00
C115   C     0.19616   0.88055   0.77274   0.00000  Uiso   1.00
H116   H     0.37586   0.80041   0.64031   0.00000  Uiso   1.00
H117   H     0.45738   0.86047   0.74840   0.00000  Uiso   1.00
H118   H     0.38140   0.65657   0.56995   0.00000  Uiso   1.00
H119   H     0.29645   0.89024   0.57536   0.00000  Uiso   1.00
H120   H     0.53570   0.91744   0.91111   0.00000  Uiso   1.00
H121   H     0.37548   0.48750   0.53482   0.00000  Uiso   1.00
H122   H     0.19633   0.98025   0.54623   0.00000  Uiso   1.00
H123   H     0.28283   0.72654   0.97069   0.00000  Uiso   1.00
H124   H     0.35924   0.78255   0.09691   0.00000  Uiso   1.00
H125   H     0.28326   0.57864   0.91846   0.00000  Uiso   1.00
H126   H     0.19831   0.81231   0.92387   0.00000  Uiso   1.00
H127   H     0.45605   0.85419   0.19397   0.00000  Uiso   1.00
H128   H     0.29582   0.42425   0.81768   0.00000  Uiso   1.00
H129   H     0.11668   0.91699   0.82910   0.00000  Uiso   1.00
O130   O     0.54783   0.92397   0.12961   0.00000  Uiso   1.00
O131   O     0.33761   0.35991   0.63592   0.00000  Uiso   1.00
O132   O     0.10259   0.00638   0.65090   0.00000  Uiso   1.00
N133   N     0.50646   0.89488   0.96036   0.00000  Uiso   1.00
N134   N     0.35667   0.49292   0.60856   0.00000  Uiso   1.00
N135   N     0.18918   0.95357   0.61921   0.00000  Uiso   1.00
N136   N     0.46360   0.86085   0.11257   0.00000  Uiso   1.00
N137   N     0.31381   0.45888   0.76077   0.00000  Uiso   1.00
N138   N     0.14632   0.91954   0.77142   0.00000  Uiso   1.00
C139   C     0.14545   0.21651   0.71601   0.00000  Uiso   1.00
C140   C     0.11406   0.19411   0.82054   0.00000  Uiso   1.00
C141   C     0.06379   0.15634   0.82366   0.00000  Uiso   1.00
C142   C     0.04184   0.14105   0.92756   0.00000  Uiso   1.00
C143   C     0.98893   0.10301   0.07509   0.00000  Uiso   1.00
C144   C     0.15534   0.30490   0.72359   0.00000  Uiso   1.00
C145   C     0.13978   0.36027   0.64518   0.00000  Uiso   1.00
C146   C     0.15258   0.43825   0.66747   0.00000  Uiso   1.00
C147   C     0.16378   0.57221   0.66445   0.00000  Uiso   1.00
C148   C     0.20149   0.17794   0.72654   0.00000  Uiso   1.00
C149   C     0.22475   0.12657   0.65059   0.00000  Uiso   1.00
C150   C     0.27641   0.09766   0.67534   0.00000  Uiso   1.00
C151   C     0.35928   0.03448   0.67689   0.00000  Uiso   1.00
C152   C     0.19586   0.25653   0.89500   0.00000  Uiso   1.00
C153   C     0.14144   0.21586   0.91777   0.00000  Uiso   1.00
C154   C     0.11956   0.20062   0.02169   0.00000  Uiso   1.00
C155   C     0.06927   0.16283   0.02496   0.00000  Uiso   1.00
C156   C     0.18272   0.32665   0.82081   0.00000  Uiso   1.00
C157   C     0.19555   0.40456   0.84322   0.00000  Uiso   1.00
C158   C     0.18001   0.46003   0.76487   0.00000  Uiso   1.00
C159   C     0.22887   0.19968   0.82376   0.00000  Uiso   1.00
C160   C     0.28051   0.17085   0.84863   0.00000  Uiso   1.00
C161   C     0.30384   0.11945   0.77274   0.00000  Uiso   1.00
H162   H     0.12414   0.19959   0.64031   0.00000  Uiso   1.00
H163   H     0.04262   0.13953   0.74840   0.00000  Uiso   1.00
H164   H     0.11860   0.34343   0.56995   0.00000  Uiso   1.00
H165   H     0.20355   0.10976   0.57536   0.00000  Uiso   1.00
H166   H     0.96430   0.08256   0.91111   0.00000  Uiso   1.00
H167   H     0.12452   0.51250   0.53482   0.00000  Uiso   1.00
H168   H     0.30367   0.01975   0.54623   0.00000  Uiso   1.00
H169   H     0.21717   0.27346   0.97069   0.00000  Uiso   1.00
H170   H     0.14076   0.21745   0.09691   0.00000  Uiso   1.00
H171   H     0.21674   0.42136   0.91846   0.00000  Uiso   1.00
H172   H     0.30169   0.18769   0.92387   0.00000  Uiso   1.00
H173   H     0.04395   0.14581   0.19397   0.00000  Uiso   1.00
H174   H     0.20418   0.57575   0.81768   0.00000  Uiso   1.00
H175   H     0.38332   0.08301   0.82910   0.00000  Uiso   1.00
O176   O     0.95217   0.07603   0.12961   0.00000  Uiso   1.00
O177   O     0.16239   0.64009   0.63592   0.00000  Uiso   1.00
O178   O     0.39741   0.99362   0.65090   0.00000  Uiso   1.00
N179   N     0.99354   0.10512   0.96036   0.00000  Uiso   1.00
N180   N     0.14333   0.50708   0.60856   0.00000  Uiso   1.00
N181   N     0.31082   0.04643   0.61921   0.00000  Uiso   1.00
N182   N     0.03640   0.13915   0.11257   0.00000  Uiso   1.00
N183   N     0.18619   0.54112   0.76077   0.00000  Uiso   1.00
N184   N     0.35368   0.08046   0.77142   0.00000  Uiso   1.00
C185   C     0.35455   0.21651   0.21601   0.00000  Uiso   1.00
C186   C     0.38594   0.19411   0.32054   0.00000  Uiso   1.00
C187   C     0.43621   0.15634   0.32366   0.00000  Uiso   1.00
C188   C     0.45816   0.14105   0.42756   0.00000  Uiso   1.00
C189   C     0.51107   0.10301   0.57509   0.00000  Uiso   1.00
C190   C     0.34466   0.30490   0.22359   0.00000  Uiso   1.00
C191   C     0.36022   0.36027   0.14518   0.00000  Uiso   1.00
C192   C     0.34742   0.43825   0.16747   0.00000  Uiso   1.00
C193   C     0.33622   0.57221   0.16445   0.00000  Uiso   1.00
C194   C     0.29851   0.17794   0.22654   0.00000  Uiso   1.00
C195   C     0.27525   0.12657   0.15059   0.00000  Uiso   1.00
C196   C     0.22359   0.09766   0.17534   0.00000  Uiso   1.00
C197   C     0.14072   0.03448   0.17689   0.00000  Uiso   1.00
C198   C     0.30414   0.25653   0.39500   0.00000  Uiso   1.00
C199   C     0.35856   0.21586   0.41777   0.00000  Uiso   1.00
C200   C     0.38044   0.20062   0.52169   0.00000  Uiso   1.00
C201   C     0.43073   0.16283   0.52496   0.00000  Uiso   1.00
C202   C     0.31728   0.32665   0.32081   0.00000  Uiso   1.00
C203   C     0.30445   0.40456   0.34322   0.00000  Uiso   1.00
C204   C     0.31999   0.46003   0.26487   0.00000  Uiso   1.00
C205   C     0.27113   0.19968   0.32376   0.00000  Uiso   1.00
C206   C     0.21949   0.17085   0.34863   0.00000  Uiso   1.00
C207   C     0.19616   0.11945   0.27274   0.00000  Uiso   1.00
H208   H     0.37586   0.19959   0.14031   0.00000  Uiso   1.00
H209   H     0.45738   0.13953   0.24840   0.00000  Uiso   1.00
H210   H     0.38140   0.34343   0.06995   0.00000  Uiso   1.00
H211   H     0.29645   0.10976   0.07536   0.00000  Uiso   1.00
H212   H     0.53570   0.08256   0.41111   0.00000  Uiso   1.00
H213   H     0.37548   0.51250   0.03482   0.00000  Uiso   1.00
H214   H     0.19633   0.01975   0.04623   0.00000  Uiso   1.00
H215   H     0.28283   0.27346   0.47069   0.00000  Uiso   1.00
H216   H     0.35924   0.21745   0.59691   0.00000  Uiso   1.00
H217   H     0.28326   0.42136   0.41846   0.00000  Uiso   1.00
H218   H     0.19831   0.18769   0.42387   0.00000  Uiso   1.00
H219   H     0.45605   0.14581   0.69397   0.00000  Uiso   1.00
H220   H     0.29582   0.57575   0.31768   0.00000  Uiso   1.00
H221   H     0.11668   0.08301   0.32910   0.00000  Uiso   1.00
O222   O     0.54783   0.07603   0.62961   0.00000  Uiso   1.00
O223   O     0.33761   0.64009   0.13592   0.00000  Uiso   1.00
O224   O     0.10259   0.99362   0.15090   0.00000  Uiso   1.00
N225   N     0.50646   0.10512   0.46036   0.00000  Uiso   1.00
N226   N     0.35667   0.50708   0.10856   0.00000  Uiso   1.00
N227   N     0.18918   0.04643   0.11921   0.00000  Uiso   1.00
N228   N     0.46360   0.13915   0.61257   0.00000  Uiso   1.00
N229   N     0.31381   0.54112   0.26077   0.00000  Uiso   1.00
N230   N     0.14632   0.08046   0.27142   0.00000  Uiso   1.00
C231   C     0.14545   0.78349   0.21601   0.00000  Uiso   1.00
C232   C     0.11406   0.80589   0.32054   0.00000  Uiso   1.00
C233   C     0.06379   0.84366   0.32366   0.00000  Uiso   1.00
C234   C     0.04184   0.85895   0.42756   0.00000  Uiso   1.00
C235   C     0.98893   0.89699   0.57509   0.00000  Uiso   1.00
C236   C     0.15534   0.69510   0.22359   0.00000  Uiso   1.00
C237   C     0.13978   0.63973   0.14518   0.00000  Uiso   1.00
C238   C     0.15258   0.56175   0.16747   0.00000  Uiso   1.00
C239   C     0.16378   0.42779   0.16445   0.00000  Uiso   1.00
C240   C     0.20149   0.82206   0.22654   0.00000  Uiso   1.00
C241   C     0.22475   0.87343   0.15059   0.00000  Uiso   1.00
C242   C     0.27641   0.90234   0.17534   0.00000  Uiso   1.00
C243   C     0.35928   0.96552   0.17689   0.00000  Uiso   1.00
C244   C     0.19586   0.74347   0.39500   0.00000  Uiso   1.00
C245   C     0.14144   0.78414   0.41777   0.00000  Uiso   1.00
C246   C     0.11956   0.79938   0.52169   0.00000  Uiso   1.00
C247   C     0.06927   0.83717   0.52496   0.00000  Uiso   1.00
C248   C     0.18272   0.67335   0.32081   0.00000  Uiso   1.00
C249   C     0.19555   0.59544   0.34322   0.00000  Uiso   1.00
C250   C     0.18001   0.53997   0.26487   0.00000  Uiso   1.00
C251   C     0.22887   0.80032   0.32376   0.00000  Uiso   1.00
C252   C     0.28051   0.82915   0.34863   0.00000  Uiso   1.00
C253   C     0.30384   0.88055   0.27274   0.00000  Uiso   1.00
H254   H     0.12414   0.80041   0.14031   0.00000  Uiso   1.00
H255   H     0.04262   0.86047   0.24840   0.00000  Uiso   1.00
H256   H     0.11860   0.65657   0.06995   0.00000  Uiso   1.00
H257   H     0.20355   0.89024   0.07536   0.00000  Uiso   1.00
H258   H     0.96430   0.91744   0.41111   0.00000  Uiso   1.00
H259   H     0.12452   0.48750   0.03482   0.00000  Uiso   1.00
H260   H     0.30367   0.98025   0.04623   0.00000  Uiso   1.00
H261   H     0.21717   0.72654   0.47069   0.00000  Uiso   1.00
H262   H     0.14076   0.78255   0.59691   0.00000  Uiso   1.00
H263   H     0.21674   0.57864   0.41846   0.00000  Uiso   1.00
H264   H     0.30169   0.81231   0.42387   0.00000  Uiso   1.00
H265   H     0.04395   0.85419   0.69397   0.00000  Uiso   1.00
H266   H     0.20418   0.42425   0.31768   0.00000  Uiso   1.00
H267   H     0.38332   0.91699   0.32910   0.00000  Uiso   1.00
O268   O     0.95217   0.92397   0.62961   0.00000  Uiso   1.00
O269   O     0.16239   0.35991   0.13592   0.00000  Uiso   1.00
O270   O     0.39741   0.00638   0.15090   0.00000  Uiso   1.00
N271   N     0.99354   0.89488   0.46036   0.00000  Uiso   1.00
N272   N     0.14333   0.49292   0.10856   0.00000  Uiso   1.00
N273   N     0.31082   0.95357   0.11921   0.00000  Uiso   1.00
N274   N     0.03640   0.86085   0.61257   0.00000  Uiso   1.00
N275   N     0.18619   0.45888   0.26077   0.00000  Uiso   1.00
N276   N     0.35368   0.91954   0.27142   0.00000  Uiso   1.00
C277   C     0.64545   0.21651   0.28399   0.00000  Uiso   1.00
C278   C     0.61406   0.19411   0.17946   0.00000  Uiso   1.00
C279   C     0.56379   0.15634   0.17634   0.00000  Uiso   1.00
C280   C     0.54184   0.14105   0.07244   0.00000  Uiso   1.00
C281   C     0.48893   0.10301   0.92491   0.00000  Uiso   1.00
C282   C     0.65534   0.30490   0.27641   0.00000  Uiso   1.00
C283   C     0.63978   0.36027   0.35482   0.00000  Uiso   1.00
C284   C     0.65258   0.43825   0.33253   0.00000  Uiso   1.00
C285   C     0.66378   0.57221   0.33555   0.00000  Uiso   1.00
C286   C     0.70149   0.17794   0.27346   0.00000  Uiso   1.00
C287   C     0.72475   0.12657   0.34941   0.00000  Uiso   1.00
C288   C     0.77641   0.09766   0.32466   0.00000  Uiso   1.00
C289   C     0.85928   0.03448   0.32311   0.00000  Uiso   1.00
C290   C     0.69586   0.25653   0.10500   0.00000  Uiso   1.00
C291   C     0.64144   0.21586   0.08223   0.00000  Uiso   1.00
C292   C     0.61956   0.20062   0.97831   0.00000  Uiso   1.00
C293   C     0.56927   0.16283   0.97504   0.00000  Uiso   1.00
C294   C     0.68272   0.32665   0.17919   0.00000  Uiso   1.00
C295   C     0.69555   0.40456   0.15678   0.00000  Uiso   1.00
C296   C     0.68001   0.46003   0.23513   0.00000  Uiso   1.00
C297   C     0.72887   0.19968   0.17624   0.00000  Uiso   1.00
C298   C     0.78051   0.17085   0.15137   0.00000  Uiso   1.00
C299   C     0.80384   0.11945   0.22726   0.00000  Uiso   1.00
H300   H     0.62414   0.19959   0.35969   0.00000  Uiso   1.00
H301   H     0.54262   0.13953   0.25160   0.00000  Uiso   1.00
H302   H     0.61860   0.34343   0.43005   0.00000  Uiso   1.00
H303   H     0.70355   0.10976   0.42464   0.00000  Uiso   1.00
H304   H     0.46430   0.08256   0.08889   0.00000  Uiso   1.00
H305   H     0.62452   0.51250   0.46518   0.00000  Uiso   1.00
H306   H     0.80367   0.01975   0.45377   0.00000  Uiso   1.00
H307   H     0.71717   0.27346   0.02931   0.00000  Uiso   1.00
H308   H     0.64076   0.21745   0.90309   0.00000  Uiso   1.00
H309   H     0.71674   0.42136   0.08154   0.00000  Uiso   1.00
H310   H     0.80169   0.18769   0.07613   0.00000  Uiso   1.00
H311   H     0.54395   0.14581   0.80603   0.00000  Uiso   1.00
H312   H     0.70418   0.57575   0.18232   0.00000  Uiso   1.00
H313   H     0.88332   0.08301   0.17090   0.00000  Uiso   1.00
O314   O     0.45217   0.07603   0.87039   0.00000  Uiso   1.00
O315   O     0.66239   0.64009   0.36408   0.00000  Uiso   1.00
O316   O     0.89741   0.99362   0.34910   0.00000  Uiso   1.00
N317   N     0.49354   0.10512   0.03964   0.00000  Uiso   1.00
N318   N     0.64333   0.50708   0.39144   0.00000  Uiso   1.00
N319   N     0.81082   0.04643   0.38079   0.00000  Uiso   1.00
N320   N     0.53640   0.13915   0.88743   0.00000  Uiso   1.00
N321   N     0.68619   0.54112   0.23923   0.00000  Uiso   1.00
N322   N     0.85368   0.08046   0.22858   0.00000  Uiso   1.00
C323   C     0.85455   0.78349   0.28399   0.00000  Uiso   1.00
C324   C     0.88594   0.80589   0.17946   0.00000  Uiso   1.00
C325   C     0.93621   0.84366   0.17634   0.00000  Uiso   1.00
C326   C     0.95816   0.85895   0.07244   0.00000  Uiso   1.00
C327   C     0.01107   0.89699   0.92491   0.00000  Uiso   1.00
C328   C     0.84466   0.69510   0.27641   0.00000  Uiso   1.00
C329   C     0.86022   0.63973   0.35482   0.00000  Uiso   1.00
C330   C     0.84742   0.56175   0.33253   0.00000  Uiso   1.00
C331   C     0.83622   0.42779   0.33555   0.00000  Uiso   1.00
C332   C     0.79851   0.82206   0.27346   0.00000  Uiso   1.00
C333   C     0.77525   0.87343   0.34941   0.00000  Uiso   1.00
C334   C     0.72359   0.90234   0.32466   0.00000  Uiso   1.00
C335   C     0.64072   0.96552   0.32311   0.00000  Uiso   1.00
C336   C     0.80414   0.74347   0.10500   0.00000  Uiso   1.00
C337   C     0.85856   0.78414   0.08223   0.00000  Uiso   1.00
C338   C     0.88044   0.79938   0.97831   0.00000  Uiso   1.00
C339   C     0.93073   0.83717   0.97504   0.00000  Uiso   1.00
C340   C     0.81728   0.67335   0.17919   0.00000  Uiso   1.00
C341   C     0.80445   0.59544   0.15678   0.00000  Uiso   1.00
C342   C     0.81999   0.53997   0.23513   0.00000  Uiso   1.00
C343   C     0.77113   0.80032   0.17624   0.00000  Uiso   1.00
C344   C     0.71949   0.82915   0.15137   0.00000  Uiso   1.00
C345   C     0.69616   0.88055   0.22726   0.00000  Uiso   1.00
H346   H     0.87586   0.80041   0.35969   0.00000  Uiso   1.00
H347   H     0.95738   0.86047   0.25160   0.00000  Uiso   1.00
H348   H     0.88140   0.65657   0.43005   0.00000  Uiso   1.00
H349   H     0.79645   0.89024   0.42464   0.00000  Uiso   1.00
H350   H     0.03570   0.91744   0.08889   0.00000  Uiso   1.00
H351   H     0.87548   0.48750   0.46518   0.00000  Uiso   1.00
H352   H     0.69633   0.98025   0.45377   0.00000  Uiso   1.00
H353   H     0.78283   0.72654   0.02931   0.00000  Uiso   1.00
H354   H     0.85924   0.78255   0.90309   0.00000  Uiso   1.00
H355   H     0.78326   0.57864   0.08154   0.00000  Uiso   1.00
H356   H     0.69831   0.81231   0.07613   0.00000  Uiso   1.00
H357   H     0.95605   0.85419   0.80603   0.00000  Uiso   1.00
H358   H     0.79582   0.42425   0.18232   0.00000  Uiso   1.00
H359   H     0.61668   0.91699   0.17090   0.00000  Uiso   1.00
O360   O     0.04783   0.92397   0.87039   0.00000  Uiso   1.00
O361   O     0.83761   0.35991   0.36408   0.00000  Uiso   1.00
O362   O     0.60259   0.00638   0.34910   0.00000  Uiso   1.00
N363   N     0.00646   0.89488   0.03964   0.00000  Uiso   1.00
N364   N     0.85667   0.49292   0.39144   0.00000  Uiso   1.00
N365   N     0.68918   0.95357   0.38079   0.00000  Uiso   1.00
N366   N     0.96360   0.86085   0.88743   0.00000  Uiso   1.00
N367   N     0.81381   0.45888   0.23923   0.00000  Uiso   1.00
N368   N     0.64632   0.91954   0.22858   0.00000  Uiso   1.00
