data_job_04906
_audit_creation_date              2018-12-19
_audit_creation_method            'Materials Studio'
_symmetry_space_group_name_H-M    'P1'
_symmetry_Int_Tables_number       1
_symmetry_cell_setting            triclinic
loop_
_symmetry_equiv_pos_as_xyz
  x,y,z
_cell_length_a                    12.4927
_cell_length_b                    20.2109
_cell_length_c                    22.4530
_cell_angle_alpha                 90.0000
_cell_angle_beta                  116.6820
_cell_angle_gamma                 90.0000
loop_
_atom_site_label
_atom_site_type_symbol
_atom_site_fract_x
_atom_site_fract_y
_atom_site_fract_z
_atom_site_U_iso_or_equiv
_atom_site_adp_type
_atom_site_occupancy
C1     C     0.74110   0.45788   0.17123   0.00000  Uiso   1.00
C2     C     0.69951   0.52476   0.13716   0.00000  Uiso   1.00
C3     C     0.69177   0.54250   0.07565   0.00000  Uiso   1.00
C4     C     0.65167   0.60603   0.05313   0.00000  Uiso   1.00
C5     C     0.59189   0.70318   0.99452   0.00000  Uiso   1.00
C6     C     0.84500   0.47247   0.23929   0.00000  Uiso   1.00
C7     C     0.95958   0.44623   0.26363   0.00000  Uiso   1.00
C8     C     0.04194   0.46573   0.32709   0.00000  Uiso   1.00
C9     C     0.20801   0.48166   0.42704   0.00000  Uiso   1.00
C10    C     0.63945   0.43210   0.18482   0.00000  Uiso   1.00
C11    C     0.58121   0.37192   0.16338   0.00000  Uiso   1.00
C12    C     0.49053   0.35743   0.18099   0.00000  Uiso   1.00
C13    C     0.33744   0.31069   0.19637   0.00000  Uiso   1.00
C14    C     0.68365   0.53915   0.24065   0.00000  Uiso   1.00
C15    C     0.66831   0.56890   0.17487   0.00000  Uiso   1.00
C16    C     0.62821   0.63242   0.15245   0.00000  Uiso   1.00
C17    C     0.62040   0.65025   0.09091   0.00000  Uiso   1.00
C18    C     0.81380   0.51661   0.27699   0.00000  Uiso   1.00
C19    C     0.89601   0.53615   0.34043   0.00000  Uiso   1.00
C20    C     0.01068   0.50996   0.36487   0.00000  Uiso   1.00
C21    C     0.60823   0.47625   0.22252   0.00000  Uiso   1.00
C22    C     0.51764   0.46185   0.24018   0.00000  Uiso   1.00
C23    C     0.45927   0.40166   0.21877   0.00000  Uiso   1.00
H24    H     0.76541   0.42351   0.14188   0.00000  Uiso   1.00
H25    H     0.71594   0.50832   0.04648   0.00000  Uiso   1.00
H26    H     0.98369   0.41206   0.23444   0.00000  Uiso   1.00
H27    H     0.60538   0.33777   0.13420   0.00000  Uiso   1.00
H28    H     0.64738   0.62183   0.95736   0.00000  Uiso   1.00
H29    H     0.21194   0.41885   0.35369   0.00000  Uiso   1.00
H30    H     0.41419   0.26218   0.14231   0.00000  Uiso   1.00
H31    H     0.65936   0.57352   0.27001   0.00000  Uiso   1.00
H32    H     0.60406   0.66657   0.18164   0.00000  Uiso   1.00
H33    H     0.87183   0.57031   0.36960   0.00000  Uiso   1.00
H34    H     0.49351   0.49602   0.26936   0.00000  Uiso   1.00
H35    H     0.55658   0.75028   0.06706   0.00000  Uiso   1.00
H36    H     0.12115   0.54729   0.46339   0.00000  Uiso   1.00
H37    H     0.32340   0.39063   0.25201   0.00000  Uiso   1.00
O38    O     0.56756   0.74457   0.95178   0.00000  Uiso   1.00
O39    O     0.30824   0.47825   0.47175   0.00000  Uiso   1.00
O40    O     0.26161   0.27271   0.19442   0.00000  Uiso   1.00
N41    N     0.63357   0.63929   0.99530   0.00000  Uiso   1.00
N42    N     0.16141   0.44952   0.36584   0.00000  Uiso   1.00
N43    N     0.41561   0.30304   0.16823   0.00000  Uiso   1.00
N44    N     0.58471   0.70840   0.05432   0.00000  Uiso   1.00
N45    N     0.11256   0.51863   0.42487   0.00000  Uiso   1.00
N46    N     0.36675   0.37216   0.22726   0.00000  Uiso   1.00
C47    C     0.23780   0.85941   0.66822   0.00000  Uiso   1.00
C48    C     0.19616   0.92896   0.64154   0.00000  Uiso   1.00
C49    C     0.18548   0.95396   0.58155   0.00000  Uiso   1.00
C50    C     0.14589   0.01879   0.56614   0.00000  Uiso   1.00
C51    C     0.08553   0.12095   0.51818   0.00000  Uiso   1.00
C52    C     0.34423   0.86832   0.73663   0.00000  Uiso   1.00
C53    C     0.45804   0.84232   0.75659   0.00000  Uiso   1.00
C54    C     0.54308   0.85609   0.82122   0.00000  Uiso   1.00
C55    C     0.71259   0.86407   0.92090   0.00000  Uiso   1.00
C56    C     0.13785   0.82940   0.68084   0.00000  Uiso   1.00
C57    C     0.07814   0.77066   0.65391   0.00000  Uiso   1.00
C58    C     0.98944   0.75166   0.67159   0.00000  Uiso   1.00
C59    C     0.83850   0.69920   0.68464   0.00000  Uiso   1.00
C60    C     0.18648   0.93009   0.74752   0.00000  Uiso   1.00
C61    C     0.16829   0.96735   0.68462   0.00000  Uiso   1.00
C62    C     0.12869   0.03216   0.66929   0.00000  Uiso   1.00
C63    C     0.11795   0.05725   0.60929   0.00000  Uiso   1.00
C64    C     0.31636   0.90671   0.77970   0.00000  Uiso   1.00
C65    C     0.40125   0.92052   0.84432   0.00000  Uiso   1.00
C66    C     0.51516   0.89456   0.86437   0.00000  Uiso   1.00
C67    C     0.10997   0.86779   0.72391   0.00000  Uiso   1.00
C68    C     0.02135   0.84887   0.74164   0.00000  Uiso   1.00
C69    C     0.96152   0.79012   0.71474   0.00000  Uiso   1.00
H70    H     0.25951   0.82952   0.63469   0.00000  Uiso   1.00
H71    H     0.20707   0.92423   0.54824   0.00000  Uiso   1.00
H72    H     0.47958   0.81260   0.72325   0.00000  Uiso   1.00
H73    H     0.09974   0.74097   0.62058   0.00000  Uiso   1.00
H74    H     0.13669   0.04618   0.47139   0.00000  Uiso   1.00
H75    H     0.71127   0.81079   0.84041   0.00000  Uiso   1.00
H76    H     0.91030   0.65972   0.62392   0.00000  Uiso   1.00
H77    H     0.16477   0.95998   0.78106   0.00000  Uiso   1.00
H78    H     0.10713   0.06186   0.70263   0.00000  Uiso   1.00
H79    H     0.37965   0.95023   0.87764   0.00000  Uiso   1.00
H80    H     0.99980   0.87859   0.77498   0.00000  Uiso   1.00
H81    H     0.05557   0.15788   0.59671   0.00000  Uiso   1.00
H82    H     0.63017   0.92249   0.96573   0.00000  Uiso   1.00
H83    H     0.82919   0.77142   0.74924   0.00000  Uiso   1.00
O84    O     0.05996   0.16670   0.47983   0.00000  Uiso   1.00
O85    O     0.81379   0.85786   0.96397   0.00000  Uiso   1.00
O86    O     0.76293   0.65967   0.67994   0.00000  Uiso   1.00
N87    N     0.12548   0.05848   0.51164   0.00000  Uiso   1.00
N88    N     0.66270   0.83841   0.85665   0.00000  Uiso   1.00
N89    N     0.91388   0.69717   0.65426   0.00000  Uiso   1.00
N90    N     0.08184   0.11859   0.57907   0.00000  Uiso   1.00
N91    N     0.61905   0.89852   0.92408   0.00000  Uiso   1.00
N92    N     0.87023   0.75728   0.72170   0.00000  Uiso   1.00
C93    C     0.25890   0.95788   0.32877   0.00000  Uiso   1.00
C94    C     0.30049   0.02476   0.36284   0.00000  Uiso   1.00
C95    C     0.30823   0.04250   0.42435   0.00000  Uiso   1.00
C96    C     0.34833   0.10603   0.44687   0.00000  Uiso   1.00
C97    C     0.40811   0.20318   0.50548   0.00000  Uiso   1.00
C98    C     0.15500   0.97247   0.26071   0.00000  Uiso   1.00
C99    C     0.04042   0.94623   0.23637   0.00000  Uiso   1.00
C100   C     0.95806   0.96573   0.17291   0.00000  Uiso   1.00
C101   C     0.79199   0.98166   0.07296   0.00000  Uiso   1.00
C102   C     0.36055   0.93210   0.31518   0.00000  Uiso   1.00
C103   C     0.41879   0.87192   0.33662   0.00000  Uiso   1.00
C104   C     0.50947   0.85743   0.31901   0.00000  Uiso   1.00
C105   C     0.66256   0.81069   0.30363   0.00000  Uiso   1.00
C106   C     0.31635   0.03915   0.25935   0.00000  Uiso   1.00
C107   C     0.33169   0.06890   0.32513   0.00000  Uiso   1.00
C108   C     0.37179   0.13242   0.34755   0.00000  Uiso   1.00
C109   C     0.37960   0.15025   0.40909   0.00000  Uiso   1.00
C110   C     0.18620   0.01661   0.22301   0.00000  Uiso   1.00
C111   C     0.10399   0.03615   0.15957   0.00000  Uiso   1.00
C112   C     0.98932   0.00996   0.13513   0.00000  Uiso   1.00
C113   C     0.39177   0.97625   0.27748   0.00000  Uiso   1.00
C114   C     0.48236   0.96185   0.25982   0.00000  Uiso   1.00
C115   C     0.54073   0.90166   0.28123   0.00000  Uiso   1.00
H116   H     0.23459   0.92351   0.35812   0.00000  Uiso   1.00
H117   H     0.28406   0.00832   0.45352   0.00000  Uiso   1.00
H118   H     0.01631   0.91206   0.26556   0.00000  Uiso   1.00
H119   H     0.39462   0.83777   0.36580   0.00000  Uiso   1.00
H120   H     0.35262   0.12183   0.54264   0.00000  Uiso   1.00
H121   H     0.78806   0.91885   0.14631   0.00000  Uiso   1.00
H122   H     0.58581   0.76218   0.35769   0.00000  Uiso   1.00
H123   H     0.34064   0.07352   0.22999   0.00000  Uiso   1.00
H124   H     0.39594   0.16657   0.31836   0.00000  Uiso   1.00
H125   H     0.12817   0.07031   0.13040   0.00000  Uiso   1.00
H126   H     0.50649   0.99602   0.23064   0.00000  Uiso   1.00
H127   H     0.44342   0.25028   0.43294   0.00000  Uiso   1.00
H128   H     0.87885   0.04729   0.03661   0.00000  Uiso   1.00
H129   H     0.67660   0.89063   0.24799   0.00000  Uiso   1.00
O130   O     0.43244   0.24457   0.54822   0.00000  Uiso   1.00
O131   O     0.69176   0.97825   0.02825   0.00000  Uiso   1.00
O132   O     0.73839   0.77271   0.30558   0.00000  Uiso   1.00
N133   N     0.36643   0.13929   0.50470   0.00000  Uiso   1.00
N134   N     0.83859   0.94952   0.13416   0.00000  Uiso   1.00
N135   N     0.58439   0.80304   0.33177   0.00000  Uiso   1.00
N136   N     0.41529   0.20840   0.44568   0.00000  Uiso   1.00
N137   N     0.88744   0.01863   0.07513   0.00000  Uiso   1.00
N138   N     0.63325   0.87216   0.27274   0.00000  Uiso   1.00
C139   C     0.76220   0.35941   0.83178   0.00000  Uiso   1.00
C140   C     0.80384   0.42896   0.85846   0.00000  Uiso   1.00
C141   C     0.81452   0.45396   0.91845   0.00000  Uiso   1.00
C142   C     0.85411   0.51879   0.93386   0.00000  Uiso   1.00
C143   C     0.91447   0.62095   0.98182   0.00000  Uiso   1.00
C144   C     0.65577   0.36832   0.76337   0.00000  Uiso   1.00
C145   C     0.54196   0.34232   0.74341   0.00000  Uiso   1.00
C146   C     0.45692   0.35609   0.67878   0.00000  Uiso   1.00
C147   C     0.28741   0.36407   0.57910   0.00000  Uiso   1.00
C148   C     0.86215   0.32940   0.81916   0.00000  Uiso   1.00
C149   C     0.92186   0.27066   0.84609   0.00000  Uiso   1.00
C150   C     0.01056   0.25166   0.82841   0.00000  Uiso   1.00
C151   C     0.16150   0.19920   0.81536   0.00000  Uiso   1.00
C152   C     0.81352   0.43009   0.75248   0.00000  Uiso   1.00
C153   C     0.83171   0.46735   0.81538   0.00000  Uiso   1.00
C154   C     0.87131   0.53216   0.83071   0.00000  Uiso   1.00
C155   C     0.88205   0.55725   0.89071   0.00000  Uiso   1.00
C156   C     0.68364   0.40671   0.72030   0.00000  Uiso   1.00
C157   C     0.59875   0.42052   0.65568   0.00000  Uiso   1.00
C158   C     0.48484   0.39456   0.63563   0.00000  Uiso   1.00
C159   C     0.89003   0.36779   0.77609   0.00000  Uiso   1.00
C160   C     0.97865   0.34887   0.75836   0.00000  Uiso   1.00
C161   C     0.03848   0.29012   0.78526   0.00000  Uiso   1.00
H162   H     0.74049   0.32952   0.86531   0.00000  Uiso   1.00
H163   H     0.79293   0.42423   0.95176   0.00000  Uiso   1.00
H164   H     0.52042   0.31260   0.77675   0.00000  Uiso   1.00
H165   H     0.90026   0.24097   0.87942   0.00000  Uiso   1.00
H166   H     0.86331   0.54618   0.02861   0.00000  Uiso   1.00
H167   H     0.28873   0.31079   0.65959   0.00000  Uiso   1.00
H168   H     0.08970   0.15972   0.87608   0.00000  Uiso   1.00
H169   H     0.83523   0.45998   0.71894   0.00000  Uiso   1.00
H170   H     0.89287   0.56186   0.79737   0.00000  Uiso   1.00
H171   H     0.62035   0.45023   0.62236   0.00000  Uiso   1.00
H172   H     0.00020   0.37859   0.72502   0.00000  Uiso   1.00
H173   H     0.94443   0.65788   0.90329   0.00000  Uiso   1.00
H174   H     0.36983   0.42249   0.53427   0.00000  Uiso   1.00
H175   H     0.17081   0.27142   0.75076   0.00000  Uiso   1.00
O176   O     0.94004   0.66670   0.02017   0.00000  Uiso   1.00
O177   O     0.18621   0.35786   0.53603   0.00000  Uiso   1.00
O178   O     0.23707   0.15967   0.82006   0.00000  Uiso   1.00
N179   N     0.87452   0.55848   0.98836   0.00000  Uiso   1.00
N180   N     0.33730   0.33841   0.64335   0.00000  Uiso   1.00
N181   N     0.08612   0.19717   0.84574   0.00000  Uiso   1.00
N182   N     0.91816   0.61859   0.92093   0.00000  Uiso   1.00
N183   N     0.38095   0.39852   0.57592   0.00000  Uiso   1.00
N184   N     0.12977   0.25728   0.77830   0.00000  Uiso   1.00
C185   C     0.25890   0.54212   0.82877   0.00000  Uiso   1.00
C186   C     0.30049   0.47524   0.86284   0.00000  Uiso   1.00
C187   C     0.30823   0.45750   0.92435   0.00000  Uiso   1.00
C188   C     0.34833   0.39397   0.94687   0.00000  Uiso   1.00
C189   C     0.40811   0.29682   0.00548   0.00000  Uiso   1.00
C190   C     0.15500   0.52753   0.76071   0.00000  Uiso   1.00
C191   C     0.04042   0.55377   0.73637   0.00000  Uiso   1.00
C192   C     0.95806   0.53427   0.67291   0.00000  Uiso   1.00
C193   C     0.79199   0.51834   0.57296   0.00000  Uiso   1.00
C194   C     0.36055   0.56790   0.81518   0.00000  Uiso   1.00
C195   C     0.41879   0.62808   0.83662   0.00000  Uiso   1.00
C196   C     0.50947   0.64257   0.81901   0.00000  Uiso   1.00
C197   C     0.66256   0.68931   0.80363   0.00000  Uiso   1.00
C198   C     0.31635   0.46085   0.75935   0.00000  Uiso   1.00
C199   C     0.33169   0.43110   0.82513   0.00000  Uiso   1.00
C200   C     0.37179   0.36758   0.84755   0.00000  Uiso   1.00
C201   C     0.37960   0.34975   0.90909   0.00000  Uiso   1.00
C202   C     0.18620   0.48339   0.72301   0.00000  Uiso   1.00
C203   C     0.10399   0.46385   0.65957   0.00000  Uiso   1.00
C204   C     0.98932   0.49004   0.63513   0.00000  Uiso   1.00
C205   C     0.39177   0.52375   0.77748   0.00000  Uiso   1.00
C206   C     0.48236   0.53815   0.75982   0.00000  Uiso   1.00
C207   C     0.54073   0.59834   0.78123   0.00000  Uiso   1.00
H208   H     0.23459   0.57649   0.85812   0.00000  Uiso   1.00
H209   H     0.28406   0.49168   0.95352   0.00000  Uiso   1.00
H210   H     0.01631   0.58794   0.76556   0.00000  Uiso   1.00
H211   H     0.39462   0.66223   0.86580   0.00000  Uiso   1.00
H212   H     0.35262   0.37817   0.04264   0.00000  Uiso   1.00
H213   H     0.78806   0.58115   0.64631   0.00000  Uiso   1.00
H214   H     0.58581   0.73782   0.85769   0.00000  Uiso   1.00
H215   H     0.34064   0.42648   0.72999   0.00000  Uiso   1.00
H216   H     0.39594   0.33343   0.81836   0.00000  Uiso   1.00
H217   H     0.12817   0.42969   0.63040   0.00000  Uiso   1.00
H218   H     0.50649   0.50398   0.73064   0.00000  Uiso   1.00
H219   H     0.44342   0.24972   0.93294   0.00000  Uiso   1.00
H220   H     0.87885   0.45271   0.53661   0.00000  Uiso   1.00
H221   H     0.67660   0.60937   0.74799   0.00000  Uiso   1.00
O222   O     0.43244   0.25543   0.04822   0.00000  Uiso   1.00
O223   O     0.69176   0.52175   0.52825   0.00000  Uiso   1.00
O224   O     0.73839   0.72729   0.80558   0.00000  Uiso   1.00
N225   N     0.36643   0.36071   0.00470   0.00000  Uiso   1.00
N226   N     0.83859   0.55048   0.63416   0.00000  Uiso   1.00
N227   N     0.58439   0.69696   0.83177   0.00000  Uiso   1.00
N228   N     0.41529   0.29160   0.94568   0.00000  Uiso   1.00
N229   N     0.88744   0.48137   0.57513   0.00000  Uiso   1.00
N230   N     0.63325   0.62784   0.77274   0.00000  Uiso   1.00
C231   C     0.76220   0.14059   0.33178   0.00000  Uiso   1.00
C232   C     0.80384   0.07104   0.35846   0.00000  Uiso   1.00
C233   C     0.81452   0.04604   0.41845   0.00000  Uiso   1.00
C234   C     0.85411   0.98121   0.43386   0.00000  Uiso   1.00
C235   C     0.91447   0.87905   0.48182   0.00000  Uiso   1.00
C236   C     0.65577   0.13168   0.26337   0.00000  Uiso   1.00
C237   C     0.54196   0.15768   0.24341   0.00000  Uiso   1.00
C238   C     0.45692   0.14391   0.17878   0.00000  Uiso   1.00
C239   C     0.28741   0.13593   0.07910   0.00000  Uiso   1.00
C240   C     0.86215   0.17060   0.31916   0.00000  Uiso   1.00
C241   C     0.92186   0.22934   0.34609   0.00000  Uiso   1.00
C242   C     0.01056   0.24834   0.32841   0.00000  Uiso   1.00
C243   C     0.16150   0.30080   0.31536   0.00000  Uiso   1.00
C244   C     0.81352   0.06991   0.25248   0.00000  Uiso   1.00
C245   C     0.83171   0.03265   0.31538   0.00000  Uiso   1.00
C246   C     0.87131   0.96784   0.33071   0.00000  Uiso   1.00
C247   C     0.88205   0.94275   0.39071   0.00000  Uiso   1.00
C248   C     0.68364   0.09329   0.22030   0.00000  Uiso   1.00
C249   C     0.59875   0.07948   0.15568   0.00000  Uiso   1.00
C250   C     0.48484   0.10544   0.13563   0.00000  Uiso   1.00
C251   C     0.89003   0.13221   0.27609   0.00000  Uiso   1.00
C252   C     0.97865   0.15113   0.25836   0.00000  Uiso   1.00
C253   C     0.03848   0.20988   0.28526   0.00000  Uiso   1.00
H254   H     0.74049   0.17048   0.36531   0.00000  Uiso   1.00
H255   H     0.79293   0.07577   0.45176   0.00000  Uiso   1.00
H256   H     0.52042   0.18740   0.27675   0.00000  Uiso   1.00
H257   H     0.90026   0.25903   0.37942   0.00000  Uiso   1.00
H258   H     0.86331   0.95382   0.52861   0.00000  Uiso   1.00
H259   H     0.28873   0.18921   0.15959   0.00000  Uiso   1.00
H260   H     0.08970   0.34028   0.37608   0.00000  Uiso   1.00
H261   H     0.83523   0.04002   0.21894   0.00000  Uiso   1.00
H262   H     0.89287   0.93814   0.29737   0.00000  Uiso   1.00
H263   H     0.62035   0.04977   0.12236   0.00000  Uiso   1.00
H264   H     0.00020   0.12141   0.22502   0.00000  Uiso   1.00
H265   H     0.94443   0.84212   0.40329   0.00000  Uiso   1.00
H266   H     0.36983   0.07751   0.03427   0.00000  Uiso   1.00
H267   H     0.17081   0.22858   0.25076   0.00000  Uiso   1.00
O268   O     0.94004   0.83330   0.52017   0.00000  Uiso   1.00
O269   O     0.18621   0.14214   0.03603   0.00000  Uiso   1.00
O270   O     0.23707   0.34033   0.32006   0.00000  Uiso   1.00
N271   N     0.87452   0.94152   0.48836   0.00000  Uiso   1.00
N272   N     0.33730   0.16159   0.14335   0.00000  Uiso   1.00
N273   N     0.08612   0.30283   0.34574   0.00000  Uiso   1.00
N274   N     0.91816   0.88141   0.42093   0.00000  Uiso   1.00
N275   N     0.38095   0.10148   0.07592   0.00000  Uiso   1.00
N276   N     0.12977   0.24272   0.27830   0.00000  Uiso   1.00
C277   C     0.74110   0.04212   0.67123   0.00000  Uiso   1.00
C278   C     0.69951   0.97524   0.63716   0.00000  Uiso   1.00
C279   C     0.69177   0.95750   0.57565   0.00000  Uiso   1.00
C280   C     0.65167   0.89397   0.55313   0.00000  Uiso   1.00
C281   C     0.59189   0.79682   0.49452   0.00000  Uiso   1.00
C282   C     0.84500   0.02753   0.73929   0.00000  Uiso   1.00
C283   C     0.95958   0.05377   0.76363   0.00000  Uiso   1.00
C284   C     0.04194   0.03427   0.82709   0.00000  Uiso   1.00
C285   C     0.20801   0.01834   0.92704   0.00000  Uiso   1.00
C286   C     0.63945   0.06790   0.68482   0.00000  Uiso   1.00
C287   C     0.58121   0.12808   0.66338   0.00000  Uiso   1.00
C288   C     0.49053   0.14257   0.68099   0.00000  Uiso   1.00
C289   C     0.33744   0.18931   0.69637   0.00000  Uiso   1.00
C290   C     0.68365   0.96085   0.74065   0.00000  Uiso   1.00
C291   C     0.66831   0.93110   0.67487   0.00000  Uiso   1.00
C292   C     0.62821   0.86758   0.65245   0.00000  Uiso   1.00
C293   C     0.62040   0.84975   0.59091   0.00000  Uiso   1.00
C294   C     0.81380   0.98339   0.77699   0.00000  Uiso   1.00
C295   C     0.89601   0.96385   0.84043   0.00000  Uiso   1.00
C296   C     0.01068   0.99004   0.86487   0.00000  Uiso   1.00
C297   C     0.60823   0.02375   0.72252   0.00000  Uiso   1.00
C298   C     0.51764   0.03815   0.74018   0.00000  Uiso   1.00
C299   C     0.45927   0.09834   0.71877   0.00000  Uiso   1.00
H300   H     0.76541   0.07649   0.64188   0.00000  Uiso   1.00
H301   H     0.71594   0.99168   0.54648   0.00000  Uiso   1.00
H302   H     0.98369   0.08794   0.73444   0.00000  Uiso   1.00
H303   H     0.60538   0.16223   0.63420   0.00000  Uiso   1.00
H304   H     0.64738   0.87817   0.45736   0.00000  Uiso   1.00
H305   H     0.21194   0.08115   0.85369   0.00000  Uiso   1.00
H306   H     0.41419   0.23782   0.64231   0.00000  Uiso   1.00
H307   H     0.65936   0.92648   0.77001   0.00000  Uiso   1.00
H308   H     0.60406   0.83343   0.68164   0.00000  Uiso   1.00
H309   H     0.87183   0.92969   0.86960   0.00000  Uiso   1.00
H310   H     0.49351   0.00398   0.76936   0.00000  Uiso   1.00
H311   H     0.55658   0.74972   0.56706   0.00000  Uiso   1.00
H312   H     0.12115   0.95271   0.96339   0.00000  Uiso   1.00
H313   H     0.32340   0.10937   0.75201   0.00000  Uiso   1.00
O314   O     0.56756   0.75543   0.45178   0.00000  Uiso   1.00
O315   O     0.30824   0.02175   0.97175   0.00000  Uiso   1.00
O316   O     0.26161   0.22729   0.69442   0.00000  Uiso   1.00
N317   N     0.63357   0.86071   0.49530   0.00000  Uiso   1.00
N318   N     0.16141   0.05048   0.86584   0.00000  Uiso   1.00
N319   N     0.41561   0.19696   0.66823   0.00000  Uiso   1.00
N320   N     0.58471   0.79160   0.55432   0.00000  Uiso   1.00
N321   N     0.11256   0.98137   0.92487   0.00000  Uiso   1.00
N322   N     0.36675   0.12784   0.72726   0.00000  Uiso   1.00
C323   C     0.23780   0.64059   0.16822   0.00000  Uiso   1.00
C324   C     0.19616   0.57104   0.14154   0.00000  Uiso   1.00
C325   C     0.18548   0.54604   0.08155   0.00000  Uiso   1.00
C326   C     0.14589   0.48121   0.06614   0.00000  Uiso   1.00
C327   C     0.08553   0.37905   0.01818   0.00000  Uiso   1.00
C328   C     0.34423   0.63168   0.23663   0.00000  Uiso   1.00
C329   C     0.45804   0.65768   0.25659   0.00000  Uiso   1.00
C330   C     0.54308   0.64391   0.32122   0.00000  Uiso   1.00
C331   C     0.71259   0.63593   0.42090   0.00000  Uiso   1.00
C332   C     0.13785   0.67060   0.18084   0.00000  Uiso   1.00
C333   C     0.07814   0.72934   0.15391   0.00000  Uiso   1.00
C334   C     0.98944   0.74834   0.17159   0.00000  Uiso   1.00
C335   C     0.83850   0.80080   0.18464   0.00000  Uiso   1.00
C336   C     0.18648   0.56991   0.24752   0.00000  Uiso   1.00
C337   C     0.16829   0.53265   0.18462   0.00000  Uiso   1.00
C338   C     0.12869   0.46784   0.16929   0.00000  Uiso   1.00
C339   C     0.11795   0.44275   0.10929   0.00000  Uiso   1.00
C340   C     0.31636   0.59329   0.27970   0.00000  Uiso   1.00
C341   C     0.40125   0.57948   0.34432   0.00000  Uiso   1.00
C342   C     0.51516   0.60544   0.36437   0.00000  Uiso   1.00
C343   C     0.10997   0.63221   0.22391   0.00000  Uiso   1.00
C344   C     0.02135   0.65113   0.24164   0.00000  Uiso   1.00
C345   C     0.96152   0.70988   0.21474   0.00000  Uiso   1.00
H346   H     0.25951   0.67048   0.13469   0.00000  Uiso   1.00
H347   H     0.20707   0.57577   0.04824   0.00000  Uiso   1.00
H348   H     0.47958   0.68740   0.22325   0.00000  Uiso   1.00
H349   H     0.09974   0.75903   0.12058   0.00000  Uiso   1.00
H350   H     0.13669   0.45382   0.97139   0.00000  Uiso   1.00
H351   H     0.71127   0.68921   0.34041   0.00000  Uiso   1.00
H352   H     0.91030   0.84028   0.12392   0.00000  Uiso   1.00
H353   H     0.16477   0.54002   0.28106   0.00000  Uiso   1.00
H354   H     0.10713   0.43814   0.20263   0.00000  Uiso   1.00
H355   H     0.37965   0.54977   0.37764   0.00000  Uiso   1.00
H356   H     0.99980   0.62141   0.27498   0.00000  Uiso   1.00
H357   H     0.05557   0.34212   0.09671   0.00000  Uiso   1.00
H358   H     0.63017   0.57751   0.46573   0.00000  Uiso   1.00
H359   H     0.82919   0.72858   0.24924   0.00000  Uiso   1.00
O360   O     0.05996   0.33330   0.97983   0.00000  Uiso   1.00
O361   O     0.81379   0.64214   0.46397   0.00000  Uiso   1.00
O362   O     0.76293   0.84033   0.17994   0.00000  Uiso   1.00
N363   N     0.12548   0.44152   0.01164   0.00000  Uiso   1.00
N364   N     0.66270   0.66159   0.35665   0.00000  Uiso   1.00
N365   N     0.91388   0.80283   0.15426   0.00000  Uiso   1.00
N366   N     0.08184   0.38141   0.07907   0.00000  Uiso   1.00
N367   N     0.61905   0.60148   0.42408   0.00000  Uiso   1.00
N368   N     0.87023   0.74272   0.22170   0.00000  Uiso   1.00
