data_job_03202
_audit_creation_date              2018-12-19
_audit_creation_method            'Materials Studio'
_symmetry_space_group_name_H-M    'P1'
_symmetry_Int_Tables_number       1
_symmetry_cell_setting            triclinic
loop_
_symmetry_equiv_pos_as_xyz
  x,y,z
_cell_length_a                    13.6706
_cell_length_b                    26.1277
_cell_length_c                    7.4562
_cell_angle_alpha                 90.0000
_cell_angle_beta                  90.0000
_cell_angle_gamma                 90.0000
loop_
_atom_site_label
_atom_site_type_symbol
_atom_site_fract_x
_atom_site_fract_y
_atom_site_fract_z
_atom_site_U_iso_or_equiv
_atom_site_adp_type
_atom_site_occupancy
C1     C     0.12676   0.64838   0.96234   0.00000  Uiso   1.00
C2     C     0.14503   0.68722   0.81339   0.00000  Uiso   1.00
C3     C     0.16856   0.73842   0.83774   0.00000  Uiso   1.00
C4     C     0.18240   0.76764   0.68429   0.00000  Uiso   1.00
C5     C     0.21215   0.83117   0.47909   0.00000  Uiso   1.00
C6     C     0.02508   0.62649   0.92788   0.00000  Uiso   1.00
C7     C     0.94777   0.62662   0.04851   0.00000  Uiso   1.00
C8     C     0.86063   0.60471   0.99144   0.00000  Uiso   1.00
C9     C     0.70419   0.57393   0.96404   0.00000  Uiso   1.00
C10    C     0.19832   0.60462   0.92934   0.00000  Uiso   1.00
C11    C     0.26665   0.58635   0.05121   0.00000  Uiso   1.00
C12    C     0.32535   0.54601   0.99538   0.00000  Uiso   1.00
C13    C     0.43787   0.48128   0.97025   0.00000  Uiso   1.00
C14    C     0.10949   0.60923   0.64652   0.00000  Uiso   1.00
C15    C     0.13565   0.66595   0.64184   0.00000  Uiso   1.00
C16    C     0.14946   0.69510   0.48831   0.00000  Uiso   1.00
C17    C     0.17300   0.74633   0.51244   0.00000  Uiso   1.00
C18    C     0.01570   0.60522   0.75634   0.00000  Uiso   1.00
C19    C     0.92866   0.58330   0.69908   0.00000  Uiso   1.00
C20    C     0.85124   0.58340   0.81959   0.00000  Uiso   1.00
C21    C     0.18894   0.58335   0.75779   0.00000  Uiso   1.00
C22    C     0.24754   0.54303   0.70178   0.00000  Uiso   1.00
C23    C     0.31595   0.52471   0.82353   0.00000  Uiso   1.00
H24    H     0.13406   0.66494   0.09590   0.00000  Uiso   1.00
H25    H     0.17580   0.75486   0.97052   0.00000  Uiso   1.00
H26    H     0.95505   0.64308   0.18126   0.00000  Uiso   1.00
H27    H     0.27388   0.60282   0.18395   0.00000  Uiso   1.00
H28    H     0.21792   0.84518   0.75586   0.00000  Uiso   1.00
H29    H     0.75246   0.60946   0.20023   0.00000  Uiso   1.00
H30    H     0.42477   0.52456   0.20592   0.00000  Uiso   1.00
H31    H     0.10219   0.59267   0.51296   0.00000  Uiso   1.00
H32    H     0.14219   0.67863   0.35558   0.00000  Uiso   1.00
H33    H     0.92143   0.56684   0.56633   0.00000  Uiso   1.00
H34    H     0.24026   0.52658   0.56902   0.00000  Uiso   1.00
H35    H     0.19063   0.78331   0.25675   0.00000  Uiso   1.00
H36    H     0.72517   0.54758   0.70114   0.00000  Uiso   1.00
H37    H     0.39749   0.46269   0.70681   0.00000  Uiso   1.00
O38    O     0.23113   0.87210   0.41329   0.00000  Uiso   1.00
O39    O     0.62048   0.56283   0.99632   0.00000  Uiso   1.00
O40    O     0.50254   0.45145   0.00377   0.00000  Uiso   1.00
N41    N     0.20603   0.81882   0.65999   0.00000  Uiso   1.00
N42    N     0.77084   0.59844   0.07545   0.00000  Uiso   1.00
N43    N     0.39938   0.51906   0.08078   0.00000  Uiso   1.00
N44    N     0.19135   0.78553   0.39142   0.00000  Uiso   1.00
N45    N     0.75616   0.56515   0.80688   0.00000  Uiso   1.00
N46    N     0.38470   0.48577   0.81221   0.00000  Uiso   1.00
C47    C     0.87324   0.35162   0.46234   0.00000  Uiso   1.00
C48    C     0.85497   0.31278   0.31339   0.00000  Uiso   1.00
C49    C     0.83144   0.26158   0.33774   0.00000  Uiso   1.00
C50    C     0.81760   0.23236   0.18429   0.00000  Uiso   1.00
C51    C     0.78785   0.16883   0.97909   0.00000  Uiso   1.00
C52    C     0.97492   0.37351   0.42788   0.00000  Uiso   1.00
C53    C     0.05223   0.37338   0.54851   0.00000  Uiso   1.00
C54    C     0.13937   0.39529   0.49144   0.00000  Uiso   1.00
C55    C     0.29581   0.42607   0.46404   0.00000  Uiso   1.00
C56    C     0.80168   0.39538   0.42934   0.00000  Uiso   1.00
C57    C     0.73335   0.41365   0.55121   0.00000  Uiso   1.00
C58    C     0.67465   0.45399   0.49538   0.00000  Uiso   1.00
C59    C     0.56213   0.51872   0.47025   0.00000  Uiso   1.00
C60    C     0.89051   0.39077   0.14652   0.00000  Uiso   1.00
C61    C     0.86435   0.33405   0.14184   0.00000  Uiso   1.00
C62    C     0.85054   0.30490   0.98831   0.00000  Uiso   1.00
C63    C     0.82700   0.25367   0.01244   0.00000  Uiso   1.00
C64    C     0.98430   0.39478   0.25634   0.00000  Uiso   1.00
C65    C     0.07134   0.41670   0.19908   0.00000  Uiso   1.00
C66    C     0.14876   0.41660   0.31959   0.00000  Uiso   1.00
C67    C     0.81106   0.41665   0.25779   0.00000  Uiso   1.00
C68    C     0.75246   0.45697   0.20178   0.00000  Uiso   1.00
C69    C     0.68405   0.47529   0.32353   0.00000  Uiso   1.00
H70    H     0.86594   0.33506   0.59590   0.00000  Uiso   1.00
H71    H     0.82420   0.24514   0.47052   0.00000  Uiso   1.00
H72    H     0.04495   0.35692   0.68126   0.00000  Uiso   1.00
H73    H     0.72612   0.39718   0.68395   0.00000  Uiso   1.00
H74    H     0.78208   0.15482   0.25586   0.00000  Uiso   1.00
H75    H     0.24754   0.39054   0.70023   0.00000  Uiso   1.00
H76    H     0.57523   0.47544   0.70592   0.00000  Uiso   1.00
H77    H     0.89781   0.40733   0.01296   0.00000  Uiso   1.00
H78    H     0.85781   0.32137   0.85558   0.00000  Uiso   1.00
H79    H     0.07857   0.43316   0.06633   0.00000  Uiso   1.00
H80    H     0.75974   0.47342   0.06902   0.00000  Uiso   1.00
H81    H     0.80937   0.21669   0.75675   0.00000  Uiso   1.00
H82    H     0.27483   0.45242   0.20114   0.00000  Uiso   1.00
H83    H     0.60251   0.53731   0.20681   0.00000  Uiso   1.00
O84    O     0.76887   0.12790   0.91329   0.00000  Uiso   1.00
O85    O     0.37952   0.43717   0.49632   0.00000  Uiso   1.00
O86    O     0.49746   0.54855   0.50377   0.00000  Uiso   1.00
N87    N     0.79397   0.18118   0.15999   0.00000  Uiso   1.00
N88    N     0.22916   0.40156   0.57545   0.00000  Uiso   1.00
N89    N     0.60062   0.48094   0.58078   0.00000  Uiso   1.00
N90    N     0.80865   0.21447   0.89142   0.00000  Uiso   1.00
N91    N     0.24384   0.43485   0.30688   0.00000  Uiso   1.00
N92    N     0.61530   0.51423   0.31221   0.00000  Uiso   1.00
C93    C     0.62676   0.85162   0.96234   0.00000  Uiso   1.00
C94    C     0.64503   0.81278   0.81339   0.00000  Uiso   1.00
C95    C     0.66856   0.76158   0.83774   0.00000  Uiso   1.00
C96    C     0.68240   0.73236   0.68429   0.00000  Uiso   1.00
C97    C     0.71215   0.66883   0.47909   0.00000  Uiso   1.00
C98    C     0.52508   0.87351   0.92788   0.00000  Uiso   1.00
C99    C     0.44777   0.87338   0.04851   0.00000  Uiso   1.00
C100   C     0.36063   0.89529   0.99144   0.00000  Uiso   1.00
C101   C     0.20419   0.92607   0.96404   0.00000  Uiso   1.00
C102   C     0.69832   0.89538   0.92934   0.00000  Uiso   1.00
C103   C     0.76665   0.91365   0.05121   0.00000  Uiso   1.00
C104   C     0.82535   0.95399   0.99538   0.00000  Uiso   1.00
C105   C     0.93787   0.01872   0.97025   0.00000  Uiso   1.00
C106   C     0.60949   0.89077   0.64652   0.00000  Uiso   1.00
C107   C     0.63565   0.83405   0.64184   0.00000  Uiso   1.00
C108   C     0.64946   0.80490   0.48831   0.00000  Uiso   1.00
C109   C     0.67300   0.75367   0.51244   0.00000  Uiso   1.00
C110   C     0.51570   0.89478   0.75634   0.00000  Uiso   1.00
C111   C     0.42866   0.91670   0.69908   0.00000  Uiso   1.00
C112   C     0.35124   0.91660   0.81959   0.00000  Uiso   1.00
C113   C     0.68894   0.91665   0.75779   0.00000  Uiso   1.00
C114   C     0.74754   0.95697   0.70178   0.00000  Uiso   1.00
C115   C     0.81595   0.97529   0.82353   0.00000  Uiso   1.00
H116   H     0.63406   0.83506   0.09590   0.00000  Uiso   1.00
H117   H     0.67580   0.74514   0.97052   0.00000  Uiso   1.00
H118   H     0.45505   0.85692   0.18126   0.00000  Uiso   1.00
H119   H     0.77388   0.89718   0.18395   0.00000  Uiso   1.00
H120   H     0.71792   0.65482   0.75586   0.00000  Uiso   1.00
H121   H     0.25246   0.89054   0.20023   0.00000  Uiso   1.00
H122   H     0.92477   0.97544   0.20592   0.00000  Uiso   1.00
H123   H     0.60219   0.90733   0.51296   0.00000  Uiso   1.00
H124   H     0.64219   0.82137   0.35558   0.00000  Uiso   1.00
H125   H     0.42143   0.93316   0.56633   0.00000  Uiso   1.00
H126   H     0.74026   0.97342   0.56902   0.00000  Uiso   1.00
H127   H     0.69063   0.71669   0.25675   0.00000  Uiso   1.00
H128   H     0.22517   0.95242   0.70114   0.00000  Uiso   1.00
H129   H     0.89749   0.03731   0.70681   0.00000  Uiso   1.00
O130   O     0.73113   0.62790   0.41329   0.00000  Uiso   1.00
O131   O     0.12048   0.93717   0.99632   0.00000  Uiso   1.00
O132   O     0.00254   0.04855   0.00377   0.00000  Uiso   1.00
N133   N     0.70603   0.68118   0.65999   0.00000  Uiso   1.00
N134   N     0.27084   0.90156   0.07545   0.00000  Uiso   1.00
N135   N     0.89938   0.98094   0.08078   0.00000  Uiso   1.00
N136   N     0.69135   0.71447   0.39142   0.00000  Uiso   1.00
N137   N     0.25616   0.93485   0.80688   0.00000  Uiso   1.00
N138   N     0.88470   0.01423   0.81221   0.00000  Uiso   1.00
C139   C     0.37324   0.14838   0.46234   0.00000  Uiso   1.00
C140   C     0.35497   0.18722   0.31339   0.00000  Uiso   1.00
C141   C     0.33144   0.23842   0.33774   0.00000  Uiso   1.00
C142   C     0.31760   0.26764   0.18429   0.00000  Uiso   1.00
C143   C     0.28785   0.33117   0.97909   0.00000  Uiso   1.00
C144   C     0.47492   0.12649   0.42788   0.00000  Uiso   1.00
C145   C     0.55223   0.12662   0.54851   0.00000  Uiso   1.00
C146   C     0.63937   0.10471   0.49144   0.00000  Uiso   1.00
C147   C     0.79581   0.07393   0.46404   0.00000  Uiso   1.00
C148   C     0.30168   0.10462   0.42934   0.00000  Uiso   1.00
C149   C     0.23335   0.08635   0.55121   0.00000  Uiso   1.00
C150   C     0.17465   0.04601   0.49538   0.00000  Uiso   1.00
C151   C     0.06213   0.98128   0.47025   0.00000  Uiso   1.00
C152   C     0.39051   0.10923   0.14652   0.00000  Uiso   1.00
C153   C     0.36435   0.16595   0.14184   0.00000  Uiso   1.00
C154   C     0.35054   0.19510   0.98831   0.00000  Uiso   1.00
C155   C     0.32700   0.24633   0.01244   0.00000  Uiso   1.00
C156   C     0.48430   0.10522   0.25634   0.00000  Uiso   1.00
C157   C     0.57134   0.08330   0.19908   0.00000  Uiso   1.00
C158   C     0.64876   0.08340   0.31959   0.00000  Uiso   1.00
C159   C     0.31106   0.08335   0.25779   0.00000  Uiso   1.00
C160   C     0.25246   0.04303   0.20178   0.00000  Uiso   1.00
C161   C     0.18405   0.02471   0.32353   0.00000  Uiso   1.00
H162   H     0.36594   0.16494   0.59590   0.00000  Uiso   1.00
H163   H     0.32420   0.25486   0.47052   0.00000  Uiso   1.00
H164   H     0.54495   0.14308   0.68126   0.00000  Uiso   1.00
H165   H     0.22612   0.10282   0.68395   0.00000  Uiso   1.00
H166   H     0.28208   0.34518   0.25586   0.00000  Uiso   1.00
H167   H     0.74754   0.10946   0.70023   0.00000  Uiso   1.00
H168   H     0.07523   0.02456   0.70592   0.00000  Uiso   1.00
H169   H     0.39781   0.09267   0.01296   0.00000  Uiso   1.00
H170   H     0.35781   0.17863   0.85558   0.00000  Uiso   1.00
H171   H     0.57857   0.06684   0.06633   0.00000  Uiso   1.00
H172   H     0.25974   0.02658   0.06902   0.00000  Uiso   1.00
H173   H     0.30937   0.28331   0.75675   0.00000  Uiso   1.00
H174   H     0.77483   0.04758   0.20114   0.00000  Uiso   1.00
H175   H     0.10251   0.96269   0.20681   0.00000  Uiso   1.00
O176   O     0.26887   0.37210   0.91329   0.00000  Uiso   1.00
O177   O     0.87952   0.06283   0.49632   0.00000  Uiso   1.00
O178   O     0.99746   0.95145   0.50377   0.00000  Uiso   1.00
N179   N     0.29397   0.31882   0.15999   0.00000  Uiso   1.00
N180   N     0.72916   0.09844   0.57545   0.00000  Uiso   1.00
N181   N     0.10062   0.01906   0.58078   0.00000  Uiso   1.00
N182   N     0.30865   0.28553   0.89142   0.00000  Uiso   1.00
N183   N     0.74384   0.06515   0.30688   0.00000  Uiso   1.00
N184   N     0.11530   0.98577   0.31221   0.00000  Uiso   1.00
