data_job_00378
_audit_creation_date              2018-12-19
_audit_creation_method            'Materials Studio'
_symmetry_space_group_name_H-M    'P1'
_symmetry_Int_Tables_number       1
_symmetry_cell_setting            triclinic
loop_
_symmetry_equiv_pos_as_xyz
  x,y,z
_cell_length_a                    12.5752
_cell_length_b                    12.5752
_cell_length_c                    29.9623
_cell_angle_alpha                 90.0000
_cell_angle_beta                  90.0000
_cell_angle_gamma                 120.0000
loop_
_atom_site_label
_atom_site_type_symbol
_atom_site_fract_x
_atom_site_fract_y
_atom_site_fract_z
_atom_site_U_iso_or_equiv
_atom_site_adp_type
_atom_site_occupancy
C1     C     0.95573   0.45934   0.98752   0.00000  Uiso   1.00
C2     C     0.92601   0.36808   0.02554   0.00000  Uiso   1.00
C3     C     0.92757   0.39361   0.07067   0.00000  Uiso   1.00
C4     C     0.89759   0.29761   0.10021   0.00000  Uiso   1.00
C5     C     0.85612   0.17376   0.16154   0.00000  Uiso   1.00
C6     C     0.05909   0.45907   0.96099   0.00000  Uiso   1.00
C7     C     0.17253   0.56112   0.95185   0.00000  Uiso   1.00
C8     C     0.25457   0.54172   0.92705   0.00000  Uiso   1.00
C9     C     0.41968   0.55915   0.88814   0.00000  Uiso   1.00
C10    C     0.84373   0.40293   0.95698   0.00000  Uiso   1.00
C11    C     0.77611   0.45778   0.94445   0.00000  Uiso   1.00
C12    C     0.67685   0.39112   0.91626   0.00000  Uiso   1.00
C13    C     0.50758   0.32138   0.87113   0.00000  Uiso   1.00
C14    C     0.89972   0.24346   0.95972   0.00000  Uiso   1.00
C15    C     0.89559   0.25082   0.01044   0.00000  Uiso   1.00
C16    C     0.86559   0.15476   0.03992   0.00000  Uiso   1.00
C17    C     0.86710   0.18014   0.08509   0.00000  Uiso   1.00
C18    C     0.02867   0.34182   0.94589   0.00000  Uiso   1.00
C19    C     0.11055   0.32227   0.92109   0.00000  Uiso   1.00
C20    C     0.22409   0.42425   0.91192   0.00000  Uiso   1.00
C21    C     0.81330   0.28567   0.94188   0.00000  Uiso   1.00
C22    C     0.71413   0.21892   0.91370   0.00000  Uiso   1.00
C23    C     0.64637   0.27365   0.90114   0.00000  Uiso   1.00
H24    H     0.97943   0.55063   0.99927   0.00000  Uiso   1.00
H25    H     0.95113   0.48437   0.08234   0.00000  Uiso   1.00
H26    H     0.19605   0.65185   0.96353   0.00000  Uiso   1.00
H27    H     0.79969   0.54852   0.95614   0.00000  Uiso   1.00
H28    H     0.90638   0.35920   0.16779   0.00000  Uiso   1.00
H29    H     0.42278   0.71235   0.91726   0.00000  Uiso   1.00
H30    H     0.58698   0.49446   0.90167   0.00000  Uiso   1.00
H31    H     0.87603   0.15216   0.94796   0.00000  Uiso   1.00
H32    H     0.84205   0.06403   0.02822   0.00000  Uiso   1.00
H33    H     0.08697   0.23151   0.90941   0.00000  Uiso   1.00
H34    H     0.69061   0.12818   0.90202   0.00000  Uiso   1.00
H35    H     0.81785   0.01804   0.12386   0.00000  Uiso   1.00
H36    H     0.33426   0.37119   0.87333   0.00000  Uiso   1.00
H37    H     0.49845   0.15330   0.85774   0.00000  Uiso   1.00
O38    O     0.84167   0.13784   0.19954   0.00000  Uiso   1.00
O39    O     0.51916   0.60116   0.87085   0.00000  Uiso   1.00
O40    O     0.42261   0.31530   0.85041   0.00000  Uiso   1.00
N41    N     0.89018   0.29100   0.14643   0.00000  Uiso   1.00
N42    N     0.37300   0.62117   0.91221   0.00000  Uiso   1.00
N43    N     0.59161   0.41747   0.89763   0.00000  Uiso   1.00
N44    N     0.84255   0.10742   0.12280   0.00000  Uiso   1.00
N45    N     0.32536   0.43759   0.88857   0.00000  Uiso   1.00
N46    N     0.54397   0.23390   0.87399   0.00000  Uiso   1.00
C47    C     0.54066   0.49639   0.65419   0.00000  Uiso   1.00
C48    C     0.63192   0.55793   0.69221   0.00000  Uiso   1.00
C49    C     0.60639   0.53396   0.73734   0.00000  Uiso   1.00
C50    C     0.70239   0.59997   0.76688   0.00000  Uiso   1.00
C51    C     0.82624   0.68236   0.82821   0.00000  Uiso   1.00
C52    C     0.54093   0.60002   0.62766   0.00000  Uiso   1.00
C53    C     0.43888   0.61141   0.61852   0.00000  Uiso   1.00
C54    C     0.45828   0.71285   0.59371   0.00000  Uiso   1.00
C55    C     0.44085   0.86052   0.55480   0.00000  Uiso   1.00
C56    C     0.59707   0.44080   0.62365   0.00000  Uiso   1.00
C57    C     0.54222   0.31834   0.61112   0.00000  Uiso   1.00
C58    C     0.60888   0.28573   0.58293   0.00000  Uiso   1.00
C59    C     0.67862   0.18620   0.53779   0.00000  Uiso   1.00
C60    C     0.75654   0.65626   0.62639   0.00000  Uiso   1.00
C61    C     0.74918   0.64476   0.67710   0.00000  Uiso   1.00
C62    C     0.84524   0.71083   0.70658   0.00000  Uiso   1.00
C63    C     0.81986   0.68696   0.75175   0.00000  Uiso   1.00
C64    C     0.65818   0.68685   0.61256   0.00000  Uiso   1.00
C65    C     0.67773   0.78828   0.58776   0.00000  Uiso   1.00
C66    C     0.57575   0.79984   0.57859   0.00000  Uiso   1.00
C67    C     0.71433   0.52763   0.60855   0.00000  Uiso   1.00
C68    C     0.78108   0.49521   0.58037   0.00000  Uiso   1.00
C69    C     0.72635   0.37272   0.56780   0.00000  Uiso   1.00
H70    H     0.44937   0.42880   0.66594   0.00000  Uiso   1.00
H71    H     0.51563   0.46676   0.74901   0.00000  Uiso   1.00
H72    H     0.34815   0.54420   0.63020   0.00000  Uiso   1.00
H73    H     0.45148   0.25117   0.62281   0.00000  Uiso   1.00
H74    H     0.64080   0.54718   0.83445   0.00000  Uiso   1.00
H75    H     0.28765   0.71044   0.58392   0.00000  Uiso   1.00
H76    H     0.50554   0.09252   0.56834   0.00000  Uiso   1.00
H77    H     0.84784   0.72386   0.61463   0.00000  Uiso   1.00
H78    H     0.93597   0.77802   0.69489   0.00000  Uiso   1.00
H79    H     0.76849   0.85546   0.57608   0.00000  Uiso   1.00
H80    H     0.87182   0.56243   0.56869   0.00000  Uiso   1.00
H81    H     0.98196   0.79981   0.79053   0.00000  Uiso   1.00
H82    H     0.62881   0.96307   0.53999   0.00000  Uiso   1.00
H83    H     0.84670   0.34516   0.52441   0.00000  Uiso   1.00
O84    O     0.86216   0.70383   0.86621   0.00000  Uiso   1.00
O85    O     0.39884   0.91800   0.53752   0.00000  Uiso   1.00
O86    O     0.68470   0.10731   0.51707   0.00000  Uiso   1.00
N87    N     0.70900   0.59919   0.81310   0.00000  Uiso   1.00
N88    N     0.37883   0.75183   0.57888   0.00000  Uiso   1.00
N89    N     0.58253   0.17414   0.56429   0.00000  Uiso   1.00
N90    N     0.89258   0.73512   0.78946   0.00000  Uiso   1.00
N91    N     0.56241   0.88777   0.55524   0.00000  Uiso   1.00
N92    N     0.76610   0.31008   0.54066   0.00000  Uiso   1.00
C93    C     0.50361   0.04427   0.32085   0.00000  Uiso   1.00
C94    C     0.44207   0.07399   0.35887   0.00000  Uiso   1.00
C95    C     0.46604   0.07243   0.40401   0.00000  Uiso   1.00
C96    C     0.40003   0.10241   0.43355   0.00000  Uiso   1.00
C97    C     0.31764   0.14388   0.49488   0.00000  Uiso   1.00
C98    C     0.39998   0.94091   0.29432   0.00000  Uiso   1.00
C99    C     0.38859   0.82747   0.28518   0.00000  Uiso   1.00
C100   C     0.28715   0.74543   0.26038   0.00000  Uiso   1.00
C101   C     0.13948   0.58032   0.22147   0.00000  Uiso   1.00
C102   C     0.55920   0.15627   0.29031   0.00000  Uiso   1.00
C103   C     0.68166   0.22389   0.27779   0.00000  Uiso   1.00
C104   C     0.71427   0.32315   0.24960   0.00000  Uiso   1.00
C105   C     0.81380   0.49242   0.20446   0.00000  Uiso   1.00
C106   C     0.34374   0.10028   0.29305   0.00000  Uiso   1.00
C107   C     0.35524   0.10441   0.34377   0.00000  Uiso   1.00
C108   C     0.28917   0.13441   0.37325   0.00000  Uiso   1.00
C109   C     0.31304   0.13290   0.41842   0.00000  Uiso   1.00
C110   C     0.31315   0.97133   0.27922   0.00000  Uiso   1.00
C111   C     0.21172   0.88945   0.25443   0.00000  Uiso   1.00
C112   C     0.20016   0.77591   0.24525   0.00000  Uiso   1.00
C113   C     0.47237   0.18670   0.27521   0.00000  Uiso   1.00
C114   C     0.50479   0.28587   0.24703   0.00000  Uiso   1.00
C115   C     0.62728   0.35363   0.23447   0.00000  Uiso   1.00
H116   H     0.57120   0.02057   0.33261   0.00000  Uiso   1.00
H117   H     0.53324   0.04887   0.41568   0.00000  Uiso   1.00
H118   H     0.45580   0.80395   0.29687   0.00000  Uiso   1.00
H119   H     0.74883   0.20031   0.28948   0.00000  Uiso   1.00
H120   H     0.45282   0.09362   0.50112   0.00000  Uiso   1.00
H121   H     0.28956   0.57722   0.25059   0.00000  Uiso   1.00
H122   H     0.90748   0.41302   0.23500   0.00000  Uiso   1.00
H123   H     0.27614   0.12397   0.28130   0.00000  Uiso   1.00
H124   H     0.22198   0.15795   0.36155   0.00000  Uiso   1.00
H125   H     0.14454   0.91303   0.24275   0.00000  Uiso   1.00
H126   H     0.43757   0.30939   0.23535   0.00000  Uiso   1.00
H127   H     0.20019   0.18215   0.45719   0.00000  Uiso   1.00
H128   H     0.03693   0.66574   0.20666   0.00000  Uiso   1.00
H129   H     0.65484   0.50155   0.19108   0.00000  Uiso   1.00
O130   O     0.29617   0.15833   0.53288   0.00000  Uiso   1.00
O131   O     0.08200   0.48084   0.20419   0.00000  Uiso   1.00
O132   O     0.89269   0.57739   0.18374   0.00000  Uiso   1.00
N133   N     0.40081   0.10982   0.47977   0.00000  Uiso   1.00
N134   N     0.24817   0.62700   0.24554   0.00000  Uiso   1.00
N135   N     0.82586   0.40839   0.23096   0.00000  Uiso   1.00
N136   N     0.26488   0.15745   0.45613   0.00000  Uiso   1.00
N137   N     0.11223   0.67464   0.22191   0.00000  Uiso   1.00
N138   N     0.68992   0.45603   0.20732   0.00000  Uiso   1.00
C139   C     0.45934   0.95573   0.01248   0.00000  Uiso   1.00
C140   C     0.36808   0.92601   0.97446   0.00000  Uiso   1.00
C141   C     0.39361   0.92757   0.92933   0.00000  Uiso   1.00
C142   C     0.29761   0.89759   0.89979   0.00000  Uiso   1.00
C143   C     0.17376   0.85612   0.83846   0.00000  Uiso   1.00
C144   C     0.45907   0.05909   0.03901   0.00000  Uiso   1.00
C145   C     0.56112   0.17253   0.04815   0.00000  Uiso   1.00
C146   C     0.54172   0.25457   0.07295   0.00000  Uiso   1.00
C147   C     0.55915   0.41968   0.11186   0.00000  Uiso   1.00
C148   C     0.40293   0.84373   0.04302   0.00000  Uiso   1.00
C149   C     0.45778   0.77611   0.05555   0.00000  Uiso   1.00
C150   C     0.39112   0.67685   0.08374   0.00000  Uiso   1.00
C151   C     0.32138   0.50758   0.12887   0.00000  Uiso   1.00
C152   C     0.24346   0.89972   0.04028   0.00000  Uiso   1.00
C153   C     0.25082   0.89559   0.98956   0.00000  Uiso   1.00
C154   C     0.15476   0.86559   0.96008   0.00000  Uiso   1.00
C155   C     0.18014   0.86710   0.91491   0.00000  Uiso   1.00
C156   C     0.34182   0.02867   0.05411   0.00000  Uiso   1.00
C157   C     0.32227   0.11055   0.07891   0.00000  Uiso   1.00
C158   C     0.42425   0.22409   0.08808   0.00000  Uiso   1.00
C159   C     0.28567   0.81330   0.05812   0.00000  Uiso   1.00
C160   C     0.21892   0.71413   0.08630   0.00000  Uiso   1.00
C161   C     0.27365   0.64637   0.09886   0.00000  Uiso   1.00
H162   H     0.55063   0.97943   0.00073   0.00000  Uiso   1.00
H163   H     0.48437   0.95113   0.91766   0.00000  Uiso   1.00
H164   H     0.65185   0.19605   0.03647   0.00000  Uiso   1.00
H165   H     0.54852   0.79969   0.04386   0.00000  Uiso   1.00
H166   H     0.35920   0.90638   0.83221   0.00000  Uiso   1.00
H167   H     0.71235   0.42278   0.08274   0.00000  Uiso   1.00
H168   H     0.49446   0.58698   0.09833   0.00000  Uiso   1.00
H169   H     0.15216   0.87603   0.05204   0.00000  Uiso   1.00
H170   H     0.06403   0.84205   0.97178   0.00000  Uiso   1.00
H171   H     0.23151   0.08697   0.09059   0.00000  Uiso   1.00
H172   H     0.12818   0.69061   0.09798   0.00000  Uiso   1.00
H173   H     0.01804   0.81785   0.87614   0.00000  Uiso   1.00
H174   H     0.37119   0.33426   0.12667   0.00000  Uiso   1.00
H175   H     0.15330   0.49845   0.14226   0.00000  Uiso   1.00
O176   O     0.13784   0.84167   0.80046   0.00000  Uiso   1.00
O177   O     0.60116   0.51916   0.12915   0.00000  Uiso   1.00
O178   O     0.31530   0.42261   0.14959   0.00000  Uiso   1.00
N179   N     0.29100   0.89018   0.85357   0.00000  Uiso   1.00
N180   N     0.62117   0.37300   0.08779   0.00000  Uiso   1.00
N181   N     0.41747   0.59161   0.10237   0.00000  Uiso   1.00
N182   N     0.10742   0.84255   0.87720   0.00000  Uiso   1.00
N183   N     0.43759   0.32536   0.11143   0.00000  Uiso   1.00
N184   N     0.23390   0.54397   0.12601   0.00000  Uiso   1.00
C185   C     0.49639   0.54066   0.34581   0.00000  Uiso   1.00
C186   C     0.55793   0.63192   0.30779   0.00000  Uiso   1.00
C187   C     0.53396   0.60639   0.26266   0.00000  Uiso   1.00
C188   C     0.59997   0.70239   0.23312   0.00000  Uiso   1.00
C189   C     0.68236   0.82624   0.17179   0.00000  Uiso   1.00
C190   C     0.60002   0.54093   0.37234   0.00000  Uiso   1.00
C191   C     0.61141   0.43888   0.38148   0.00000  Uiso   1.00
C192   C     0.71285   0.45828   0.40629   0.00000  Uiso   1.00
C193   C     0.86052   0.44085   0.44520   0.00000  Uiso   1.00
C194   C     0.44080   0.59707   0.37635   0.00000  Uiso   1.00
C195   C     0.31834   0.54222   0.38888   0.00000  Uiso   1.00
C196   C     0.28573   0.60888   0.41707   0.00000  Uiso   1.00
C197   C     0.18620   0.67862   0.46221   0.00000  Uiso   1.00
C198   C     0.65626   0.75654   0.37361   0.00000  Uiso   1.00
C199   C     0.64476   0.74918   0.32290   0.00000  Uiso   1.00
C200   C     0.71083   0.84524   0.29342   0.00000  Uiso   1.00
C201   C     0.68696   0.81986   0.24825   0.00000  Uiso   1.00
C202   C     0.68685   0.65818   0.38744   0.00000  Uiso   1.00
C203   C     0.78828   0.67773   0.41224   0.00000  Uiso   1.00
C204   C     0.79984   0.57575   0.42141   0.00000  Uiso   1.00
C205   C     0.52763   0.71433   0.39145   0.00000  Uiso   1.00
C206   C     0.49521   0.78108   0.41963   0.00000  Uiso   1.00
C207   C     0.37272   0.72635   0.43220   0.00000  Uiso   1.00
H208   H     0.42880   0.44937   0.33406   0.00000  Uiso   1.00
H209   H     0.46676   0.51563   0.25099   0.00000  Uiso   1.00
H210   H     0.54420   0.34815   0.36980   0.00000  Uiso   1.00
H211   H     0.25117   0.45148   0.37719   0.00000  Uiso   1.00
H212   H     0.54718   0.64080   0.16555   0.00000  Uiso   1.00
H213   H     0.71044   0.28765   0.41608   0.00000  Uiso   1.00
H214   H     0.09252   0.50554   0.43166   0.00000  Uiso   1.00
H215   H     0.72386   0.84784   0.38537   0.00000  Uiso   1.00
H216   H     0.77802   0.93597   0.30511   0.00000  Uiso   1.00
H217   H     0.85546   0.76849   0.42392   0.00000  Uiso   1.00
H218   H     0.56243   0.87182   0.43131   0.00000  Uiso   1.00
H219   H     0.79981   0.98196   0.20947   0.00000  Uiso   1.00
H220   H     0.96307   0.62881   0.46001   0.00000  Uiso   1.00
H221   H     0.34516   0.84670   0.47559   0.00000  Uiso   1.00
O222   O     0.70383   0.86216   0.13379   0.00000  Uiso   1.00
O223   O     0.91800   0.39884   0.46248   0.00000  Uiso   1.00
O224   O     0.10731   0.68470   0.48293   0.00000  Uiso   1.00
N225   N     0.59919   0.70900   0.18690   0.00000  Uiso   1.00
N226   N     0.75183   0.37883   0.42112   0.00000  Uiso   1.00
N227   N     0.17414   0.58253   0.43571   0.00000  Uiso   1.00
N228   N     0.73512   0.89258   0.21054   0.00000  Uiso   1.00
N229   N     0.88777   0.56241   0.44476   0.00000  Uiso   1.00
N230   N     0.31008   0.76610   0.45934   0.00000  Uiso   1.00
C231   C     0.04427   0.50361   0.67915   0.00000  Uiso   1.00
C232   C     0.07399   0.44207   0.64113   0.00000  Uiso   1.00
C233   C     0.07243   0.46604   0.59599   0.00000  Uiso   1.00
C234   C     0.10241   0.40003   0.56645   0.00000  Uiso   1.00
C235   C     0.14388   0.31764   0.50512   0.00000  Uiso   1.00
C236   C     0.94091   0.39998   0.70568   0.00000  Uiso   1.00
C237   C     0.82747   0.38859   0.71482   0.00000  Uiso   1.00
C238   C     0.74543   0.28715   0.73962   0.00000  Uiso   1.00
C239   C     0.58032   0.13948   0.77853   0.00000  Uiso   1.00
C240   C     0.15627   0.55920   0.70969   0.00000  Uiso   1.00
C241   C     0.22389   0.68166   0.72221   0.00000  Uiso   1.00
C242   C     0.32315   0.71427   0.75040   0.00000  Uiso   1.00
C243   C     0.49242   0.81380   0.79554   0.00000  Uiso   1.00
C244   C     0.10028   0.34374   0.70695   0.00000  Uiso   1.00
C245   C     0.10441   0.35524   0.65623   0.00000  Uiso   1.00
C246   C     0.13441   0.28917   0.62675   0.00000  Uiso   1.00
C247   C     0.13290   0.31304   0.58158   0.00000  Uiso   1.00
C248   C     0.97133   0.31315   0.72078   0.00000  Uiso   1.00
C249   C     0.88945   0.21172   0.74557   0.00000  Uiso   1.00
C250   C     0.77591   0.20016   0.75475   0.00000  Uiso   1.00
C251   C     0.18670   0.47237   0.72479   0.00000  Uiso   1.00
C252   C     0.28587   0.50479   0.75297   0.00000  Uiso   1.00
C253   C     0.35363   0.62728   0.76553   0.00000  Uiso   1.00
H254   H     0.02057   0.57120   0.66739   0.00000  Uiso   1.00
H255   H     0.04887   0.53324   0.58432   0.00000  Uiso   1.00
H256   H     0.80395   0.45580   0.70313   0.00000  Uiso   1.00
H257   H     0.20031   0.74883   0.71052   0.00000  Uiso   1.00
H258   H     0.09362   0.45282   0.49888   0.00000  Uiso   1.00
H259   H     0.57722   0.28956   0.74941   0.00000  Uiso   1.00
H260   H     0.41302   0.90748   0.76500   0.00000  Uiso   1.00
H261   H     0.12397   0.27614   0.71870   0.00000  Uiso   1.00
H262   H     0.15795   0.22198   0.63845   0.00000  Uiso   1.00
H263   H     0.91303   0.14454   0.75725   0.00000  Uiso   1.00
H264   H     0.30939   0.43757   0.76465   0.00000  Uiso   1.00
H265   H     0.18215   0.20019   0.54281   0.00000  Uiso   1.00
H266   H     0.66574   0.03693   0.79334   0.00000  Uiso   1.00
H267   H     0.50155   0.65484   0.80892   0.00000  Uiso   1.00
O268   O     0.15833   0.29617   0.46712   0.00000  Uiso   1.00
O269   O     0.48084   0.08200   0.79581   0.00000  Uiso   1.00
O270   O     0.57739   0.89269   0.81626   0.00000  Uiso   1.00
N271   N     0.10982   0.40081   0.52023   0.00000  Uiso   1.00
N272   N     0.62700   0.24817   0.75446   0.00000  Uiso   1.00
N273   N     0.40839   0.82586   0.76904   0.00000  Uiso   1.00
N274   N     0.15745   0.26488   0.54387   0.00000  Uiso   1.00
N275   N     0.67464   0.11223   0.77809   0.00000  Uiso   1.00
N276   N     0.45603   0.68992   0.79268   0.00000  Uiso   1.00
