data_job_02195
_audit_creation_date              2018-12-19
_audit_creation_method            'Materials Studio'
_symmetry_space_group_name_H-M    'P1'
_symmetry_Int_Tables_number       1
_symmetry_cell_setting            triclinic
loop_
_symmetry_equiv_pos_as_xyz
  x,y,z
_cell_length_a                    23.6043
_cell_length_b                    13.6353
_cell_length_c                    24.0490
_cell_angle_alpha                 90.0000
_cell_angle_beta                  90.0000
_cell_angle_gamma                 90.0000
loop_
_atom_site_label
_atom_site_type_symbol
_atom_site_fract_x
_atom_site_fract_y
_atom_site_fract_z
_atom_site_U_iso_or_equiv
_atom_site_adp_type
_atom_site_occupancy
C1     C     0.65077   0.21872   0.67402   0.00000  Uiso   1.00
C2     C     0.67262   0.27478   0.72453   0.00000  Uiso   1.00
C3     C     0.70614   0.23628   0.76661   0.00000  Uiso   1.00
C4     C     0.72169   0.29952   0.80920   0.00000  Uiso   1.00
C5     C     0.75823   0.37162   0.88757   0.00000  Uiso   1.00
C6     C     0.58649   0.22978   0.67488   0.00000  Uiso   1.00
C7     C     0.54760   0.15345   0.67520   0.00000  Uiso   1.00
C8     C     0.49064   0.17882   0.67599   0.00000  Uiso   1.00
C9     C     0.39347   0.18106   0.67723   0.00000  Uiso   1.00
C10    C     0.67127   0.27548   0.62323   0.00000  Uiso   1.00
C11    C     0.70364   0.23757   0.58012   0.00000  Uiso   1.00
C12    C     0.71804   0.30141   0.53742   0.00000  Uiso   1.00
C13    C     0.75250   0.37460   0.45847   0.00000  Uiso   1.00
C14    C     0.61876   0.39950   0.67484   0.00000  Uiso   1.00
C15    C     0.65523   0.37297   0.72497   0.00000  Uiso   1.00
C16    C     0.67073   0.43629   0.76751   0.00000  Uiso   1.00
C17    C     0.70427   0.39789   0.80965   0.00000  Uiso   1.00
C18    C     0.56910   0.32797   0.67532   0.00000  Uiso   1.00
C19    C     0.51219   0.35346   0.67610   0.00000  Uiso   1.00
C20    C     0.47322   0.27719   0.67644   0.00000  Uiso   1.00
C21    C     0.65388   0.37368   0.62367   0.00000  Uiso   1.00
C22    C     0.66823   0.43758   0.58103   0.00000  Uiso   1.00
C23    C     0.70063   0.39978   0.53787   0.00000  Uiso   1.00
H24    H     0.66430   0.14227   0.67368   0.00000  Uiso   1.00
H25    H     0.71958   0.16028   0.76625   0.00000  Uiso   1.00
H26    H     0.56107   0.07747   0.67485   0.00000  Uiso   1.00
H27    H     0.71709   0.16157   0.57979   0.00000  Uiso   1.00
H28    H     0.77319   0.22354   0.86910   0.00000  Uiso   1.00
H29    H     0.43895   0.04893   0.67636   0.00000  Uiso   1.00
H30    H     0.76794   0.22628   0.47590   0.00000  Uiso   1.00
H31    H     0.60523   0.47595   0.67518   0.00000  Uiso   1.00
H32    H     0.65727   0.51228   0.76784   0.00000  Uiso   1.00
H33    H     0.49875   0.42946   0.67644   0.00000  Uiso   1.00
H34    H     0.65477   0.51357   0.58138   0.00000  Uiso   1.00
H35    H     0.72261   0.50923   0.87039   0.00000  Uiso   1.00
H36    H     0.38837   0.33461   0.67764   0.00000  Uiso   1.00
H37    H     0.71737   0.51197   0.47719   0.00000  Uiso   1.00
O38    O     0.78318   0.38425   0.93068   0.00000  Uiso   1.00
O39    O     0.34467   0.15516   0.67780   0.00000  Uiso   1.00
O40    O     0.77631   0.38785   0.41481   0.00000  Uiso   1.00
N41    N     0.75415   0.28580   0.85668   0.00000  Uiso   1.00
N42    N     0.44166   0.12254   0.67649   0.00000  Uiso   1.00
N43    N     0.74923   0.28835   0.48907   0.00000  Uiso   1.00
N44    N     0.72694   0.43953   0.85737   0.00000  Uiso   1.00
N45    N     0.41444   0.27627   0.67718   0.00000  Uiso   1.00
N46    N     0.72201   0.44208   0.48976   0.00000  Uiso   1.00
C47    C     0.84923   0.78128   0.17402   0.00000  Uiso   1.00
C48    C     0.82738   0.72522   0.22453   0.00000  Uiso   1.00
C49    C     0.79386   0.76372   0.26661   0.00000  Uiso   1.00
C50    C     0.77831   0.70048   0.30920   0.00000  Uiso   1.00
C51    C     0.74177   0.62838   0.38757   0.00000  Uiso   1.00
C52    C     0.91351   0.77022   0.17488   0.00000  Uiso   1.00
C53    C     0.95240   0.84655   0.17520   0.00000  Uiso   1.00
C54    C     0.00936   0.82118   0.17599   0.00000  Uiso   1.00
C55    C     0.10653   0.81894   0.17723   0.00000  Uiso   1.00
C56    C     0.82873   0.72452   0.12323   0.00000  Uiso   1.00
C57    C     0.79636   0.76243   0.08012   0.00000  Uiso   1.00
C58    C     0.78196   0.69859   0.03742   0.00000  Uiso   1.00
C59    C     0.74750   0.62540   0.95847   0.00000  Uiso   1.00
C60    C     0.88124   0.60050   0.17484   0.00000  Uiso   1.00
C61    C     0.84477   0.62703   0.22497   0.00000  Uiso   1.00
C62    C     0.82927   0.56371   0.26751   0.00000  Uiso   1.00
C63    C     0.79573   0.60211   0.30965   0.00000  Uiso   1.00
C64    C     0.93090   0.67203   0.17532   0.00000  Uiso   1.00
C65    C     0.98781   0.64654   0.17610   0.00000  Uiso   1.00
C66    C     0.02678   0.72281   0.17644   0.00000  Uiso   1.00
C67    C     0.84612   0.62632   0.12367   0.00000  Uiso   1.00
C68    C     0.83177   0.56242   0.08103   0.00000  Uiso   1.00
C69    C     0.79937   0.60022   0.03787   0.00000  Uiso   1.00
H70    H     0.83570   0.85773   0.17368   0.00000  Uiso   1.00
H71    H     0.78042   0.83972   0.26625   0.00000  Uiso   1.00
H72    H     0.93893   0.92253   0.17485   0.00000  Uiso   1.00
H73    H     0.78291   0.83843   0.07979   0.00000  Uiso   1.00
H74    H     0.72681   0.77646   0.36910   0.00000  Uiso   1.00
H75    H     0.06105   0.95107   0.17636   0.00000  Uiso   1.00
H76    H     0.73206   0.77372   0.97590   0.00000  Uiso   1.00
H77    H     0.89477   0.52405   0.17518   0.00000  Uiso   1.00
H78    H     0.84273   0.48772   0.26784   0.00000  Uiso   1.00
H79    H     0.00125   0.57054   0.17644   0.00000  Uiso   1.00
H80    H     0.84523   0.48643   0.08138   0.00000  Uiso   1.00
H81    H     0.77739   0.49077   0.37039   0.00000  Uiso   1.00
H82    H     0.11163   0.66539   0.17764   0.00000  Uiso   1.00
H83    H     0.78263   0.48803   0.97719   0.00000  Uiso   1.00
O84    O     0.71682   0.61575   0.43068   0.00000  Uiso   1.00
O85    O     0.15533   0.84484   0.17780   0.00000  Uiso   1.00
O86    O     0.72369   0.61215   0.91481   0.00000  Uiso   1.00
N87    N     0.74585   0.71420   0.35668   0.00000  Uiso   1.00
N88    N     0.05834   0.87746   0.17649   0.00000  Uiso   1.00
N89    N     0.75077   0.71165   0.98907   0.00000  Uiso   1.00
N90    N     0.77306   0.56047   0.35737   0.00000  Uiso   1.00
N91    N     0.08556   0.72373   0.17718   0.00000  Uiso   1.00
N92    N     0.77799   0.55792   0.98976   0.00000  Uiso   1.00
C93    C     0.34923   0.71872   0.82598   0.00000  Uiso   1.00
C94    C     0.32738   0.77478   0.77547   0.00000  Uiso   1.00
C95    C     0.29386   0.73628   0.73339   0.00000  Uiso   1.00
C96    C     0.27831   0.79952   0.69080   0.00000  Uiso   1.00
C97    C     0.24177   0.87162   0.61243   0.00000  Uiso   1.00
C98    C     0.41351   0.72978   0.82512   0.00000  Uiso   1.00
C99    C     0.45240   0.65345   0.82480   0.00000  Uiso   1.00
C100   C     0.50936   0.67882   0.82401   0.00000  Uiso   1.00
C101   C     0.60653   0.68106   0.82277   0.00000  Uiso   1.00
C102   C     0.32873   0.77548   0.87677   0.00000  Uiso   1.00
C103   C     0.29636   0.73757   0.91988   0.00000  Uiso   1.00
C104   C     0.28196   0.80141   0.96258   0.00000  Uiso   1.00
C105   C     0.24750   0.87460   0.04153   0.00000  Uiso   1.00
C106   C     0.38124   0.89950   0.82516   0.00000  Uiso   1.00
C107   C     0.34477   0.87297   0.77503   0.00000  Uiso   1.00
C108   C     0.32927   0.93629   0.73249   0.00000  Uiso   1.00
C109   C     0.29573   0.89789   0.69035   0.00000  Uiso   1.00
C110   C     0.43090   0.82797   0.82468   0.00000  Uiso   1.00
C111   C     0.48781   0.85346   0.82390   0.00000  Uiso   1.00
C112   C     0.52678   0.77719   0.82356   0.00000  Uiso   1.00
C113   C     0.34612   0.87368   0.87633   0.00000  Uiso   1.00
C114   C     0.33177   0.93758   0.91897   0.00000  Uiso   1.00
C115   C     0.29937   0.89978   0.96213   0.00000  Uiso   1.00
H116   H     0.33570   0.64227   0.82632   0.00000  Uiso   1.00
H117   H     0.28042   0.66028   0.73375   0.00000  Uiso   1.00
H118   H     0.43893   0.57747   0.82515   0.00000  Uiso   1.00
H119   H     0.28291   0.66157   0.92021   0.00000  Uiso   1.00
H120   H     0.22681   0.72354   0.63090   0.00000  Uiso   1.00
H121   H     0.56105   0.54893   0.82364   0.00000  Uiso   1.00
H122   H     0.23206   0.72628   0.02410   0.00000  Uiso   1.00
H123   H     0.39477   0.97595   0.82482   0.00000  Uiso   1.00
H124   H     0.34273   0.01228   0.73216   0.00000  Uiso   1.00
H125   H     0.50125   0.92946   0.82356   0.00000  Uiso   1.00
H126   H     0.34523   0.01357   0.91862   0.00000  Uiso   1.00
H127   H     0.27739   0.00923   0.62961   0.00000  Uiso   1.00
H128   H     0.61163   0.83461   0.82236   0.00000  Uiso   1.00
H129   H     0.28263   0.01197   0.02281   0.00000  Uiso   1.00
O130   O     0.21682   0.88425   0.56932   0.00000  Uiso   1.00
O131   O     0.65533   0.65516   0.82220   0.00000  Uiso   1.00
O132   O     0.22369   0.88785   0.08519   0.00000  Uiso   1.00
N133   N     0.24585   0.78580   0.64332   0.00000  Uiso   1.00
N134   N     0.55834   0.62254   0.82351   0.00000  Uiso   1.00
N135   N     0.25077   0.78835   0.01093   0.00000  Uiso   1.00
N136   N     0.27306   0.93953   0.64263   0.00000  Uiso   1.00
N137   N     0.58556   0.77627   0.82282   0.00000  Uiso   1.00
N138   N     0.27799   0.94208   0.01024   0.00000  Uiso   1.00
C139   C     0.15077   0.28128   0.32598   0.00000  Uiso   1.00
C140   C     0.17262   0.22522   0.27547   0.00000  Uiso   1.00
C141   C     0.20614   0.26372   0.23339   0.00000  Uiso   1.00
C142   C     0.22169   0.20048   0.19080   0.00000  Uiso   1.00
C143   C     0.25823   0.12838   0.11243   0.00000  Uiso   1.00
C144   C     0.08649   0.27022   0.32512   0.00000  Uiso   1.00
C145   C     0.04760   0.34655   0.32480   0.00000  Uiso   1.00
C146   C     0.99064   0.32118   0.32401   0.00000  Uiso   1.00
C147   C     0.89347   0.31894   0.32277   0.00000  Uiso   1.00
C148   C     0.17127   0.22452   0.37677   0.00000  Uiso   1.00
C149   C     0.20364   0.26243   0.41988   0.00000  Uiso   1.00
C150   C     0.21804   0.19859   0.46258   0.00000  Uiso   1.00
C151   C     0.25250   0.12540   0.54153   0.00000  Uiso   1.00
C152   C     0.11876   0.10050   0.32516   0.00000  Uiso   1.00
C153   C     0.15523   0.12703   0.27503   0.00000  Uiso   1.00
C154   C     0.17073   0.06371   0.23249   0.00000  Uiso   1.00
C155   C     0.20427   0.10211   0.19035   0.00000  Uiso   1.00
C156   C     0.06910   0.17203   0.32468   0.00000  Uiso   1.00
C157   C     0.01219   0.14654   0.32390   0.00000  Uiso   1.00
C158   C     0.97322   0.22281   0.32356   0.00000  Uiso   1.00
C159   C     0.15388   0.12632   0.37633   0.00000  Uiso   1.00
C160   C     0.16823   0.06242   0.41897   0.00000  Uiso   1.00
C161   C     0.20063   0.10022   0.46213   0.00000  Uiso   1.00
H162   H     0.16430   0.35773   0.32632   0.00000  Uiso   1.00
H163   H     0.21958   0.33972   0.23375   0.00000  Uiso   1.00
H164   H     0.06107   0.42253   0.32515   0.00000  Uiso   1.00
H165   H     0.21709   0.33843   0.42021   0.00000  Uiso   1.00
H166   H     0.27319   0.27646   0.13090   0.00000  Uiso   1.00
H167   H     0.93895   0.45107   0.32364   0.00000  Uiso   1.00
H168   H     0.26794   0.27372   0.52410   0.00000  Uiso   1.00
H169   H     0.10523   0.02405   0.32482   0.00000  Uiso   1.00
H170   H     0.15727   0.98772   0.23216   0.00000  Uiso   1.00
H171   H     0.99875   0.07054   0.32356   0.00000  Uiso   1.00
H172   H     0.15477   0.98643   0.41862   0.00000  Uiso   1.00
H173   H     0.22261   0.99077   0.12961   0.00000  Uiso   1.00
H174   H     0.88837   0.16539   0.32236   0.00000  Uiso   1.00
H175   H     0.21737   0.98803   0.52281   0.00000  Uiso   1.00
O176   O     0.28318   0.11575   0.06932   0.00000  Uiso   1.00
O177   O     0.84467   0.34484   0.32220   0.00000  Uiso   1.00
O178   O     0.27631   0.11215   0.58519   0.00000  Uiso   1.00
N179   N     0.25415   0.21420   0.14332   0.00000  Uiso   1.00
N180   N     0.94166   0.37746   0.32351   0.00000  Uiso   1.00
N181   N     0.24923   0.21165   0.51093   0.00000  Uiso   1.00
N182   N     0.22694   0.06047   0.14263   0.00000  Uiso   1.00
N183   N     0.91444   0.22373   0.32282   0.00000  Uiso   1.00
N184   N     0.22201   0.05792   0.51024   0.00000  Uiso   1.00
C185   C     0.34923   0.78128   0.32598   0.00000  Uiso   1.00
C186   C     0.32738   0.72522   0.27547   0.00000  Uiso   1.00
C187   C     0.29386   0.76372   0.23339   0.00000  Uiso   1.00
C188   C     0.27831   0.70048   0.19080   0.00000  Uiso   1.00
C189   C     0.24177   0.62838   0.11243   0.00000  Uiso   1.00
C190   C     0.41351   0.77022   0.32512   0.00000  Uiso   1.00
C191   C     0.45240   0.84655   0.32480   0.00000  Uiso   1.00
C192   C     0.50936   0.82118   0.32401   0.00000  Uiso   1.00
C193   C     0.60653   0.81894   0.32277   0.00000  Uiso   1.00
C194   C     0.32873   0.72452   0.37677   0.00000  Uiso   1.00
C195   C     0.29636   0.76243   0.41988   0.00000  Uiso   1.00
C196   C     0.28196   0.69859   0.46258   0.00000  Uiso   1.00
C197   C     0.24750   0.62540   0.54153   0.00000  Uiso   1.00
C198   C     0.38124   0.60050   0.32516   0.00000  Uiso   1.00
C199   C     0.34477   0.62703   0.27503   0.00000  Uiso   1.00
C200   C     0.32927   0.56371   0.23249   0.00000  Uiso   1.00
C201   C     0.29573   0.60211   0.19035   0.00000  Uiso   1.00
C202   C     0.43090   0.67203   0.32468   0.00000  Uiso   1.00
C203   C     0.48781   0.64654   0.32390   0.00000  Uiso   1.00
C204   C     0.52678   0.72281   0.32356   0.00000  Uiso   1.00
C205   C     0.34612   0.62632   0.37633   0.00000  Uiso   1.00
C206   C     0.33177   0.56242   0.41897   0.00000  Uiso   1.00
C207   C     0.29937   0.60022   0.46213   0.00000  Uiso   1.00
H208   H     0.33570   0.85773   0.32632   0.00000  Uiso   1.00
H209   H     0.28042   0.83972   0.23375   0.00000  Uiso   1.00
H210   H     0.43893   0.92253   0.32515   0.00000  Uiso   1.00
H211   H     0.28291   0.83843   0.42021   0.00000  Uiso   1.00
H212   H     0.22681   0.77646   0.13090   0.00000  Uiso   1.00
H213   H     0.56105   0.95107   0.32364   0.00000  Uiso   1.00
H214   H     0.23206   0.77372   0.52410   0.00000  Uiso   1.00
H215   H     0.39477   0.52405   0.32482   0.00000  Uiso   1.00
H216   H     0.34273   0.48772   0.23216   0.00000  Uiso   1.00
H217   H     0.50125   0.57054   0.32356   0.00000  Uiso   1.00
H218   H     0.34523   0.48643   0.41862   0.00000  Uiso   1.00
H219   H     0.27739   0.49077   0.12961   0.00000  Uiso   1.00
H220   H     0.61163   0.66539   0.32236   0.00000  Uiso   1.00
H221   H     0.28263   0.48803   0.52281   0.00000  Uiso   1.00
O222   O     0.21682   0.61575   0.06932   0.00000  Uiso   1.00
O223   O     0.65533   0.84484   0.32220   0.00000  Uiso   1.00
O224   O     0.22369   0.61215   0.58519   0.00000  Uiso   1.00
N225   N     0.24585   0.71420   0.14332   0.00000  Uiso   1.00
N226   N     0.55834   0.87746   0.32351   0.00000  Uiso   1.00
N227   N     0.25077   0.71165   0.51093   0.00000  Uiso   1.00
N228   N     0.27306   0.56047   0.14263   0.00000  Uiso   1.00
N229   N     0.58556   0.72373   0.32282   0.00000  Uiso   1.00
N230   N     0.27799   0.55792   0.51024   0.00000  Uiso   1.00
C231   C     0.15077   0.21872   0.82598   0.00000  Uiso   1.00
C232   C     0.17262   0.27478   0.77547   0.00000  Uiso   1.00
C233   C     0.20614   0.23628   0.73339   0.00000  Uiso   1.00
C234   C     0.22169   0.29952   0.69080   0.00000  Uiso   1.00
C235   C     0.25823   0.37162   0.61243   0.00000  Uiso   1.00
C236   C     0.08649   0.22978   0.82512   0.00000  Uiso   1.00
C237   C     0.04760   0.15345   0.82480   0.00000  Uiso   1.00
C238   C     0.99064   0.17882   0.82401   0.00000  Uiso   1.00
C239   C     0.89347   0.18106   0.82277   0.00000  Uiso   1.00
C240   C     0.17127   0.27548   0.87677   0.00000  Uiso   1.00
C241   C     0.20364   0.23757   0.91988   0.00000  Uiso   1.00
C242   C     0.21804   0.30141   0.96258   0.00000  Uiso   1.00
C243   C     0.25250   0.37460   0.04153   0.00000  Uiso   1.00
C244   C     0.11876   0.39950   0.82516   0.00000  Uiso   1.00
C245   C     0.15523   0.37297   0.77503   0.00000  Uiso   1.00
C246   C     0.17073   0.43629   0.73249   0.00000  Uiso   1.00
C247   C     0.20427   0.39789   0.69035   0.00000  Uiso   1.00
C248   C     0.06910   0.32797   0.82468   0.00000  Uiso   1.00
C249   C     0.01219   0.35346   0.82390   0.00000  Uiso   1.00
C250   C     0.97322   0.27719   0.82356   0.00000  Uiso   1.00
C251   C     0.15388   0.37368   0.87633   0.00000  Uiso   1.00
C252   C     0.16823   0.43758   0.91897   0.00000  Uiso   1.00
C253   C     0.20063   0.39978   0.96213   0.00000  Uiso   1.00
H254   H     0.16430   0.14227   0.82632   0.00000  Uiso   1.00
H255   H     0.21958   0.16028   0.73375   0.00000  Uiso   1.00
H256   H     0.06107   0.07747   0.82515   0.00000  Uiso   1.00
H257   H     0.21709   0.16157   0.92021   0.00000  Uiso   1.00
H258   H     0.27319   0.22354   0.63090   0.00000  Uiso   1.00
H259   H     0.93895   0.04893   0.82364   0.00000  Uiso   1.00
H260   H     0.26794   0.22628   0.02410   0.00000  Uiso   1.00
H261   H     0.10523   0.47595   0.82482   0.00000  Uiso   1.00
H262   H     0.15727   0.51228   0.73216   0.00000  Uiso   1.00
H263   H     0.99875   0.42946   0.82356   0.00000  Uiso   1.00
H264   H     0.15477   0.51357   0.91862   0.00000  Uiso   1.00
H265   H     0.22261   0.50923   0.62961   0.00000  Uiso   1.00
H266   H     0.88837   0.33461   0.82236   0.00000  Uiso   1.00
H267   H     0.21737   0.51197   0.02281   0.00000  Uiso   1.00
O268   O     0.28318   0.38425   0.56932   0.00000  Uiso   1.00
O269   O     0.84467   0.15516   0.82220   0.00000  Uiso   1.00
O270   O     0.27631   0.38785   0.08519   0.00000  Uiso   1.00
N271   N     0.25415   0.28580   0.64332   0.00000  Uiso   1.00
N272   N     0.94166   0.12254   0.82351   0.00000  Uiso   1.00
N273   N     0.24923   0.28835   0.01093   0.00000  Uiso   1.00
N274   N     0.22694   0.43953   0.64263   0.00000  Uiso   1.00
N275   N     0.91444   0.27627   0.82282   0.00000  Uiso   1.00
N276   N     0.22201   0.44208   0.01024   0.00000  Uiso   1.00
C277   C     0.65077   0.28128   0.17402   0.00000  Uiso   1.00
C278   C     0.67262   0.22522   0.22453   0.00000  Uiso   1.00
C279   C     0.70614   0.26372   0.26661   0.00000  Uiso   1.00
C280   C     0.72169   0.20048   0.30920   0.00000  Uiso   1.00
C281   C     0.75823   0.12838   0.38757   0.00000  Uiso   1.00
C282   C     0.58649   0.27022   0.17488   0.00000  Uiso   1.00
C283   C     0.54760   0.34655   0.17520   0.00000  Uiso   1.00
C284   C     0.49064   0.32118   0.17599   0.00000  Uiso   1.00
C285   C     0.39347   0.31894   0.17723   0.00000  Uiso   1.00
C286   C     0.67127   0.22452   0.12323   0.00000  Uiso   1.00
C287   C     0.70364   0.26243   0.08012   0.00000  Uiso   1.00
C288   C     0.71804   0.19859   0.03742   0.00000  Uiso   1.00
C289   C     0.75250   0.12540   0.95847   0.00000  Uiso   1.00
C290   C     0.61876   0.10050   0.17484   0.00000  Uiso   1.00
C291   C     0.65523   0.12703   0.22497   0.00000  Uiso   1.00
C292   C     0.67073   0.06371   0.26751   0.00000  Uiso   1.00
C293   C     0.70427   0.10211   0.30965   0.00000  Uiso   1.00
C294   C     0.56910   0.17203   0.17532   0.00000  Uiso   1.00
C295   C     0.51219   0.14654   0.17610   0.00000  Uiso   1.00
C296   C     0.47322   0.22281   0.17644   0.00000  Uiso   1.00
C297   C     0.65388   0.12632   0.12367   0.00000  Uiso   1.00
C298   C     0.66823   0.06242   0.08103   0.00000  Uiso   1.00
C299   C     0.70063   0.10022   0.03787   0.00000  Uiso   1.00
H300   H     0.66430   0.35773   0.17368   0.00000  Uiso   1.00
H301   H     0.71958   0.33972   0.26625   0.00000  Uiso   1.00
H302   H     0.56107   0.42253   0.17485   0.00000  Uiso   1.00
H303   H     0.71709   0.33843   0.07979   0.00000  Uiso   1.00
H304   H     0.77319   0.27646   0.36910   0.00000  Uiso   1.00
H305   H     0.43895   0.45107   0.17636   0.00000  Uiso   1.00
H306   H     0.76794   0.27372   0.97590   0.00000  Uiso   1.00
H307   H     0.60523   0.02405   0.17518   0.00000  Uiso   1.00
H308   H     0.65727   0.98772   0.26784   0.00000  Uiso   1.00
H309   H     0.49875   0.07054   0.17644   0.00000  Uiso   1.00
H310   H     0.65477   0.98643   0.08138   0.00000  Uiso   1.00
H311   H     0.72261   0.99077   0.37039   0.00000  Uiso   1.00
H312   H     0.38837   0.16539   0.17764   0.00000  Uiso   1.00
H313   H     0.71737   0.98803   0.97719   0.00000  Uiso   1.00
O314   O     0.78318   0.11575   0.43068   0.00000  Uiso   1.00
O315   O     0.34467   0.34484   0.17780   0.00000  Uiso   1.00
O316   O     0.77631   0.11215   0.91481   0.00000  Uiso   1.00
N317   N     0.75415   0.21420   0.35668   0.00000  Uiso   1.00
N318   N     0.44166   0.37746   0.17649   0.00000  Uiso   1.00
N319   N     0.74923   0.21165   0.98907   0.00000  Uiso   1.00
N320   N     0.72694   0.06047   0.35737   0.00000  Uiso   1.00
N321   N     0.41444   0.22373   0.17718   0.00000  Uiso   1.00
N322   N     0.72201   0.05792   0.98976   0.00000  Uiso   1.00
C323   C     0.84923   0.71872   0.67402   0.00000  Uiso   1.00
C324   C     0.82738   0.77478   0.72453   0.00000  Uiso   1.00
C325   C     0.79386   0.73628   0.76661   0.00000  Uiso   1.00
C326   C     0.77831   0.79952   0.80920   0.00000  Uiso   1.00
C327   C     0.74177   0.87162   0.88757   0.00000  Uiso   1.00
C328   C     0.91351   0.72978   0.67488   0.00000  Uiso   1.00
C329   C     0.95240   0.65345   0.67520   0.00000  Uiso   1.00
C330   C     0.00936   0.67882   0.67599   0.00000  Uiso   1.00
C331   C     0.10653   0.68106   0.67723   0.00000  Uiso   1.00
C332   C     0.82873   0.77548   0.62323   0.00000  Uiso   1.00
C333   C     0.79636   0.73757   0.58012   0.00000  Uiso   1.00
C334   C     0.78196   0.80141   0.53742   0.00000  Uiso   1.00
C335   C     0.74750   0.87460   0.45847   0.00000  Uiso   1.00
C336   C     0.88124   0.89950   0.67484   0.00000  Uiso   1.00
C337   C     0.84477   0.87297   0.72497   0.00000  Uiso   1.00
C338   C     0.82927   0.93629   0.76751   0.00000  Uiso   1.00
C339   C     0.79573   0.89789   0.80965   0.00000  Uiso   1.00
C340   C     0.93090   0.82797   0.67532   0.00000  Uiso   1.00
C341   C     0.98781   0.85346   0.67610   0.00000  Uiso   1.00
C342   C     0.02678   0.77719   0.67644   0.00000  Uiso   1.00
C343   C     0.84612   0.87368   0.62367   0.00000  Uiso   1.00
C344   C     0.83177   0.93758   0.58103   0.00000  Uiso   1.00
C345   C     0.79937   0.89978   0.53787   0.00000  Uiso   1.00
H346   H     0.83570   0.64227   0.67368   0.00000  Uiso   1.00
H347   H     0.78042   0.66028   0.76625   0.00000  Uiso   1.00
H348   H     0.93893   0.57747   0.67485   0.00000  Uiso   1.00
H349   H     0.78291   0.66157   0.57979   0.00000  Uiso   1.00
H350   H     0.72681   0.72354   0.86910   0.00000  Uiso   1.00
H351   H     0.06105   0.54893   0.67636   0.00000  Uiso   1.00
H352   H     0.73206   0.72628   0.47590   0.00000  Uiso   1.00
H353   H     0.89477   0.97595   0.67518   0.00000  Uiso   1.00
H354   H     0.84273   0.01228   0.76784   0.00000  Uiso   1.00
H355   H     0.00125   0.92946   0.67644   0.00000  Uiso   1.00
H356   H     0.84523   0.01357   0.58138   0.00000  Uiso   1.00
H357   H     0.77739   0.00923   0.87039   0.00000  Uiso   1.00
H358   H     0.11163   0.83461   0.67764   0.00000  Uiso   1.00
H359   H     0.78263   0.01197   0.47719   0.00000  Uiso   1.00
O360   O     0.71682   0.88425   0.93068   0.00000  Uiso   1.00
O361   O     0.15533   0.65516   0.67780   0.00000  Uiso   1.00
O362   O     0.72369   0.88785   0.41481   0.00000  Uiso   1.00
N363   N     0.74585   0.78580   0.85668   0.00000  Uiso   1.00
N364   N     0.05834   0.62254   0.67649   0.00000  Uiso   1.00
N365   N     0.75077   0.78835   0.48907   0.00000  Uiso   1.00
N366   N     0.77306   0.93953   0.85737   0.00000  Uiso   1.00
N367   N     0.08556   0.77627   0.67718   0.00000  Uiso   1.00
N368   N     0.77799   0.94208   0.48976   0.00000  Uiso   1.00
