data_job_06516
_audit_creation_date              2018-12-19
_audit_creation_method            'Materials Studio'
_symmetry_space_group_name_H-M    'P1'
_symmetry_Int_Tables_number       1
_symmetry_cell_setting            triclinic
loop_
_symmetry_equiv_pos_as_xyz
  x,y,z
_cell_length_a                    17.2167
_cell_length_b                    22.0550
_cell_length_c                    27.5074
_cell_angle_alpha                 81.4722
_cell_angle_beta                  107.3825
_cell_angle_gamma                 69.1974
loop_
_atom_site_label
_atom_site_type_symbol
_atom_site_fract_x
_atom_site_fract_y
_atom_site_fract_z
_atom_site_U_iso_or_equiv
_atom_site_adp_type
_atom_site_occupancy
C1     C     0.80140   0.57294   0.15215   0.00000  Uiso   1.00
C2     C     0.87696   0.59577   0.16761   0.00000  Uiso   1.00
C3     C     0.90433   0.61606   0.21271   0.00000  Uiso   1.00
C4     C     0.97471   0.63509   0.21971   0.00000  Uiso   1.00
C5     C     0.08571   0.67077   0.24931   0.00000  Uiso   1.00
C6     C     0.73628   0.61896   0.09668   0.00000  Uiso   1.00
C7     C     0.64537   0.65874   0.08213   0.00000  Uiso   1.00
C8     C     0.59733   0.69729   0.02942   0.00000  Uiso   1.00
C9     C     0.48991   0.76893   0.94888   0.00000  Uiso   1.00
C10    C     0.84325   0.50252   0.14571   0.00000  Uiso   1.00
C11    C     0.84225   0.44440   0.17238   0.00000  Uiso   1.00
C12    C     0.88426   0.38491   0.16094   0.00000  Uiso   1.00
C13    C     0.94292   0.27576   0.15654   0.00000  Uiso   1.00
C14    C     0.87774   0.57065   0.08440   0.00000  Uiso   1.00
C15    C     0.91843   0.59453   0.13081   0.00000  Uiso   1.00
C16    C     0.98879   0.61353   0.13775   0.00000  Uiso   1.00
C17    C     0.01626   0.63384   0.18285   0.00000  Uiso   1.00
C18    C     0.77775   0.61772   0.05988   0.00000  Uiso   1.00
C19    C     0.72983   0.65621   0.00717   0.00000  Uiso   1.00
C20    C     0.63887   0.69604   0.99255   0.00000  Uiso   1.00
C21    C     0.88472   0.50128   0.10892   0.00000  Uiso   1.00
C22    C     0.92673   0.44187   0.09743   0.00000  Uiso   1.00
C23    C     0.92580   0.38367   0.12408   0.00000  Uiso   1.00
H24    H     0.76911   0.57391   0.18079   0.00000  Uiso   1.00
H25    H     0.87221   0.61702   0.24117   0.00000  Uiso   1.00
H26    H     0.61329   0.65969   0.11062   0.00000  Uiso   1.00
H27    H     0.81016   0.44538   0.20086   0.00000  Uiso   1.00
H28    H     0.00479   0.66429   0.29188   0.00000  Uiso   1.00
H29    H     0.45884   0.75424   0.01659   0.00000  Uiso   1.00
H30    H     0.87396   0.30233   0.20687   0.00000  Uiso   1.00
H31    H     0.91002   0.56969   0.05574   0.00000  Uiso   1.00
H32    H     0.02087   0.61257   0.10927   0.00000  Uiso   1.00
H33    H     0.76195   0.65524   0.97871   0.00000  Uiso   1.00
H34    H     0.95881   0.44093   0.06895   0.00000  Uiso   1.00
H35    H     0.12544   0.66069   0.18482   0.00000  Uiso   1.00
H36    H     0.57949   0.75063   0.90952   0.00000  Uiso   1.00
H37    H     0.99461   0.29872   0.09981   0.00000  Uiso   1.00
O38    O     0.13547   0.69080   0.27580   0.00000  Uiso   1.00
O39    O     0.41920   0.80879   0.91463   0.00000  Uiso   1.00
O40    O     0.96383   0.21590   0.16428   0.00000  Uiso   1.00
N41    N     0.01799   0.65755   0.25934   0.00000  Uiso   1.00
N42    N     0.50756   0.74165   0.00196   0.00000  Uiso   1.00
N43    N     0.89564   0.31915   0.17986   0.00000  Uiso   1.00
N44    N     0.08291   0.65560   0.20173   0.00000  Uiso   1.00
N45    N     0.57248   0.73971   0.94435   0.00000  Uiso   1.00
N46    N     0.96056   0.31721   0.12225   0.00000  Uiso   1.00
C47    C     0.37672   0.50856   0.81029   0.00000  Uiso   1.00
C48    C     0.35800   0.55880   0.84251   0.00000  Uiso   1.00
C49    C     0.29826   0.56796   0.86817   0.00000  Uiso   1.00
C50    C     0.29074   0.61647   0.89556   0.00000  Uiso   1.00
C51    C     0.25398   0.68873   0.94532   0.00000  Uiso   1.00
C52    C     0.35811   0.55014   0.75525   0.00000  Uiso   1.00
C53    C     0.29847   0.55201   0.70756   0.00000  Uiso   1.00
C54    C     0.29105   0.59323   0.66149   0.00000  Uiso   1.00
C55    C     0.25450   0.65201   0.57578   0.00000  Uiso   1.00
C56    C     0.47768   0.46461   0.83514   0.00000  Uiso   1.00
C57    C     0.51859   0.39456   0.85461   0.00000  Uiso   1.00
C58    C     0.61185   0.36376   0.87580   0.00000  Uiso   1.00
C59    C     0.76095   0.28975   0.91413   0.00000  Uiso   1.00
C60    C     0.46960   0.57842   0.81327   0.00000  Uiso   1.00
C61    C     0.40845   0.59675   0.84412   0.00000  Uiso   1.00
C62    C     0.40103   0.64525   0.87148   0.00000  Uiso   1.00
C63    C     0.34129   0.65448   0.89718   0.00000  Uiso   1.00
C64    C     0.40856   0.58809   0.75687   0.00000  Uiso   1.00
C65    C     0.40123   0.62931   0.71086   0.00000  Uiso   1.00
C66    C     0.34159   0.63124   0.66311   0.00000  Uiso   1.00
C67    C     0.52814   0.50256   0.83677   0.00000  Uiso   1.00
C68    C     0.62135   0.47186   0.85792   0.00000  Uiso   1.00
C69    C     0.66239   0.40178   0.87742   0.00000  Uiso   1.00
H70    H     0.33744   0.47901   0.80902   0.00000  Uiso   1.00
H71    H     0.25922   0.53858   0.86691   0.00000  Uiso   1.00
H72    H     0.25944   0.52263   0.70632   0.00000  Uiso   1.00
H73    H     0.47952   0.36521   0.85335   0.00000  Uiso   1.00
H74    H     0.19473   0.62138   0.93178   0.00000  Uiso   1.00
H75    H     0.19521   0.58773   0.59317   0.00000  Uiso   1.00
H76    H     0.65930   0.25577   0.90322   0.00000  Uiso   1.00
H77    H     0.50888   0.60796   0.81453   0.00000  Uiso   1.00
H78    H     0.44008   0.67461   0.87272   0.00000  Uiso   1.00
H79    H     0.44029   0.65866   0.71213   0.00000  Uiso   1.00
H80    H     0.66037   0.50124   0.85917   0.00000  Uiso   1.00
H81    H     0.34152   0.73179   0.93650   0.00000  Uiso   1.00
H82    H     0.34200   0.69814   0.59788   0.00000  Uiso   1.00
H83    H     0.80608   0.36618   0.90794   0.00000  Uiso   1.00
O84    O     0.21975   0.71812   0.97231   0.00000  Uiso   1.00
O85    O     0.22039   0.67396   0.52806   0.00000  Uiso   1.00
O86    O     0.82926   0.23844   0.93484   0.00000  Uiso   1.00
N87    N     0.23874   0.63821   0.92492   0.00000  Uiso   1.00
N88    N     0.23917   0.60676   0.60833   0.00000  Uiso   1.00
N89    N     0.67306   0.29640   0.89819   0.00000  Uiso   1.00
N90    N     0.31772   0.69762   0.92746   0.00000  Uiso   1.00
N91    N     0.31815   0.66617   0.61087   0.00000  Uiso   1.00
N92    N     0.75204   0.35581   0.90073   0.00000  Uiso   1.00
C93    C     0.66159   0.58263   0.37539   0.00000  Uiso   1.00
C94    C     0.56228   0.60342   0.34384   0.00000  Uiso   1.00
C95    C     0.52491   0.60534   0.29109   0.00000  Uiso   1.00
C96    C     0.43265   0.62577   0.26945   0.00000  Uiso   1.00
C97    C     0.28648   0.65537   0.21588   0.00000  Uiso   1.00
C98    C     0.66672   0.64204   0.39617   0.00000  Uiso   1.00
C99    C     0.71718   0.67642   0.38742   0.00000  Uiso   1.00
C100   C     0.71284   0.72935   0.40984   0.00000  Uiso   1.00
C101   C     0.72887   0.81887   0.43755   0.00000  Uiso   1.00
C102   C     0.68903   0.52497   0.42409   0.00000  Uiso   1.00
C103   C     0.75826   0.46092   0.43883   0.00000  Uiso   1.00
C104   C     0.77272   0.41529   0.48476   0.00000  Uiso   1.00
C105   C     0.82339   0.32304   0.55582   0.00000  Uiso   1.00
C106   C     0.56419   0.61550   0.43076   0.00000  Uiso   1.00
C107   C     0.50937   0.62128   0.37392   0.00000  Uiso   1.00
C108   C     0.41714   0.64171   0.35235   0.00000  Uiso   1.00
C109   C     0.37965   0.64366   0.29958   0.00000  Uiso   1.00
C110   C     0.61381   0.65989   0.42624   0.00000  Uiso   1.00
C111   C     0.60941   0.71279   0.44868   0.00000  Uiso   1.00
C112   C     0.65984   0.74724   0.43997   0.00000  Uiso   1.00
C113   C     0.63612   0.54282   0.45417   0.00000  Uiso   1.00
C114   C     0.65048   0.49729   0.50009   0.00000  Uiso   1.00
C115   C     0.71972   0.43318   0.51489   0.00000  Uiso   1.00
H116   H     0.70278   0.56873   0.35198   0.00000  Uiso   1.00
H117   H     0.56588   0.59153   0.26783   0.00000  Uiso   1.00
H118   H     0.75812   0.66258   0.36415   0.00000  Uiso   1.00
H119   H     0.79919   0.44712   0.41555   0.00000  Uiso   1.00
H120   H     0.39076   0.62469   0.18779   0.00000  Uiso   1.00
H121   H     0.79613   0.77451   0.39091   0.00000  Uiso   1.00
H122   H     0.88274   0.32016   0.49929   0.00000  Uiso   1.00
H123   H     0.52300   0.62941   0.45417   0.00000  Uiso   1.00
H124   H     0.37622   0.65553   0.37563   0.00000  Uiso   1.00
H125   H     0.56846   0.72659   0.47195   0.00000  Uiso   1.00
H126   H     0.60953   0.51112   0.52335   0.00000  Uiso   1.00
H127   H     0.23682   0.67664   0.27529   0.00000  Uiso   1.00
H128   H     0.64220   0.82646   0.47841   0.00000  Uiso   1.00
H129   H     0.72880   0.37211   0.58679   0.00000  Uiso   1.00
O130   O     0.22047   0.66678   0.17803   0.00000  Uiso   1.00
O131   O     0.75232   0.86332   0.44452   0.00000  Uiso   1.00
O132   O     0.86594   0.26723   0.58670   0.00000  Uiso   1.00
N133   N     0.37467   0.63332   0.21917   0.00000  Uiso   1.00
N134   N     0.75366   0.77340   0.40906   0.00000  Uiso   1.00
N135   N     0.83465   0.34862   0.51040   0.00000  Uiso   1.00
N136   N     0.29184   0.66127   0.26625   0.00000  Uiso   1.00
N137   N     0.67083   0.80135   0.45614   0.00000  Uiso   1.00
N138   N     0.75182   0.37658   0.55748   0.00000  Uiso   1.00
C139   C     0.20586   0.96444   0.95410   0.00000  Uiso   1.00
C140   C     0.25618   0.97927   0.92012   0.00000  Uiso   1.00
C141   C     0.23127   0.98604   0.86605   0.00000  Uiso   1.00
C142   C     0.28622   0.99960   0.84222   0.00000  Uiso   1.00
C143   C     0.35261   0.02166   0.78501   0.00000  Uiso   1.00
C144   C     0.18504   0.02164   0.98000   0.00000  Uiso   1.00
C145   C     0.10032   0.06403   0.97628   0.00000  Uiso   1.00
C146   C     0.09540   0.11325   0.00287   0.00000  Uiso   1.00
C147   C     0.05135   0.20106   0.03866   0.00000  Uiso   1.00
C148   C     0.27360   0.90067   0.99907   0.00000  Uiso   1.00
C149   C     0.26332   0.84136   0.01139   0.00000  Uiso   1.00
C150   C     0.33295   0.78875   0.05404   0.00000  Uiso   1.00
C151   C     0.42640   0.68874   0.11943   0.00000  Uiso   1.00
C152   C     0.34777   0.97647   0.00794   0.00000  Uiso   1.00
C153   C     0.33326   0.98580   0.94936   0.00000  Uiso   1.00
C154   C     0.38827   0.99935   0.92561   0.00000  Uiso   1.00
C155   C     0.36344   0.00615   0.87152   0.00000  Uiso   1.00
C156   C     0.26212   0.02817   0.00924   0.00000  Uiso   1.00
C157   C     0.25732   0.07734   0.03585   0.00000  Uiso   1.00
C158   C     0.17261   0.11980   0.03217   0.00000  Uiso   1.00
C159   C     0.35068   0.90721   0.02831   0.00000  Uiso   1.00
C160   C     0.42033   0.85468   0.07095   0.00000  Uiso   1.00
C161   C     0.41017   0.79529   0.08334   0.00000  Uiso   1.00
H162   H     0.14585   0.95936   0.93134   0.00000  Uiso   1.00
H163   H     0.17161   0.98099   0.84343   0.00000  Uiso   1.00
H164   H     0.04069   0.05896   0.95366   0.00000  Uiso   1.00
H165   H     0.20367   0.83632   0.98876   0.00000  Uiso   1.00
H166   H     0.23414   0.00787   0.75887   0.00000  Uiso   1.00
H167   H     0.95808   0.17226   0.99129   0.00000  Uiso   1.00
H168   H     0.30176   0.70280   0.06531   0.00000  Uiso   1.00
H169   H     0.40777   0.98156   0.03071   0.00000  Uiso   1.00
H170   H     0.44791   0.00441   0.94825   0.00000  Uiso   1.00
H171   H     0.31698   0.08238   0.05848   0.00000  Uiso   1.00
H172   H     0.47996   0.85975   0.09357   0.00000  Uiso   1.00
H173   H     0.45839   0.02689   0.84394   0.00000  Uiso   1.00
H174   H     0.18233   0.19128   0.07637   0.00000  Uiso   1.00
H175   H     0.52602   0.72181   0.15039   0.00000  Uiso   1.00
O176   O     0.36792   0.03203   0.74537   0.00000  Uiso   1.00
O177   O     0.00575   0.24769   0.05031   0.00000  Uiso   1.00
O178   O     0.45665   0.63177   0.14742   0.00000  Uiso   1.00
N179   N     0.28142   0.00920   0.79021   0.00000  Uiso   1.00
N180   N     0.02332   0.16290   0.00751   0.00000  Uiso   1.00
N181   N     0.34462   0.72400   0.07671   0.00000  Uiso   1.00
N182   N     0.40209   0.01943   0.83599   0.00000  Uiso   1.00
N183   N     0.14399   0.17313   0.05328   0.00000  Uiso   1.00
N184   N     0.46529   0.73423   0.12249   0.00000  Uiso   1.00
C185   C     0.85990   0.92540   0.70818   0.00000  Uiso   1.00
C186   C     0.77957   0.94697   0.72485   0.00000  Uiso   1.00
C187   C     0.77239   0.97790   0.76471   0.00000  Uiso   1.00
C188   C     0.69344   0.99367   0.77389   0.00000  Uiso   1.00
C189   C     0.57922   0.02943   0.80426   0.00000  Uiso   1.00
C190   C     0.82317   0.96069   0.64886   0.00000  Uiso   1.00
C191   C     0.85267   0.00314   0.62484   0.00000  Uiso   1.00
C192   C     0.81043   0.03045   0.57005   0.00000  Uiso   1.00
C193   C     0.76396   0.08747   0.48244   0.00000  Uiso   1.00
C194   C     0.88961   0.85005   0.71342   0.00000  Uiso   1.00
C195   C     0.97497   0.79947   0.74367   0.00000  Uiso   1.00
C196   C     0.98867   0.73364   0.74323   0.00000  Uiso   1.00
C197   C     0.04535   0.61887   0.75587   0.00000  Uiso   1.00
C198   C     0.73245   0.89841   0.65360   0.00000  Uiso   1.00
C199   C     0.71034   0.93231   0.69520   0.00000  Uiso   1.00
C200   C     0.63138   0.94804   0.70432   0.00000  Uiso   1.00
C201   C     0.62409   0.97898   0.74419   0.00000  Uiso   1.00
C202   C     0.75395   0.94603   0.61921   0.00000  Uiso   1.00
C203   C     0.71166   0.97328   0.56445   0.00000  Uiso   1.00
C204   C     0.74108   0.01577   0.54035   0.00000  Uiso   1.00
C205   C     0.82039   0.83538   0.68378   0.00000  Uiso   1.00
C206   C     0.83396   0.76961   0.68328   0.00000  Uiso   1.00
C207   C     0.91933   0.71895   0.71353   0.00000  Uiso   1.00
H208   H     0.91379   0.93681   0.73126   0.00000  Uiso   1.00
H209   H     0.82597   0.98924   0.78764   0.00000  Uiso   1.00
H210   H     0.90624   0.01447   0.64779   0.00000  Uiso   1.00
H211   H     0.02852   0.81084   0.76661   0.00000  Uiso   1.00
H212   H     0.69807   0.04093   0.83706   0.00000  Uiso   1.00
H213   H     0.86735   0.09411   0.54218   0.00000  Uiso   1.00
H214   H     0.12520   0.66471   0.79273   0.00000  Uiso   1.00
H215   H     0.67856   0.88699   0.63051   0.00000  Uiso   1.00
H216   H     0.57783   0.93669   0.68137   0.00000  Uiso   1.00
H217   H     0.65810   0.96192   0.54152   0.00000  Uiso   1.00
H218   H     0.78038   0.75829   0.66034   0.00000  Uiso   1.00
H219   H     0.49666   0.99827   0.75081   0.00000  Uiso   1.00
H220   H     0.66595   0.05145   0.45592   0.00000  Uiso   1.00
H221   H     0.92380   0.62205   0.70647   0.00000  Uiso   1.00
O222   O     0.53534   0.05321   0.82920   0.00000  Uiso   1.00
O223   O     0.75744   0.12297   0.44232   0.00000  Uiso   1.00
O224   O     0.09573   0.55961   0.77104   0.00000  Uiso   1.00
N225   N     0.66450   0.02406   0.80979   0.00000  Uiso   1.00
N226   N     0.82276   0.07379   0.53409   0.00000  Uiso   1.00
N227   N     0.06383   0.67233   0.76832   0.00000  Uiso   1.00
N228   N     0.55612   0.00110   0.76338   0.00000  Uiso   1.00
N229   N     0.71438   0.05083   0.48768   0.00000  Uiso   1.00
N230   N     0.95546   0.64938   0.72191   0.00000  Uiso   1.00
C231   C     0.96182   0.91191   0.29577   0.00000  Uiso   1.00
C232   C     0.97418   0.96253   0.32608   0.00000  Uiso   1.00
C233   C     0.03259   0.99263   0.32608   0.00000  Uiso   1.00
C234   C     0.03398   0.03760   0.35636   0.00000  Uiso   1.00
C235   C     0.06153   0.11405   0.39895   0.00000  Uiso   1.00
C236   C     0.86211   0.94202   0.26090   0.00000  Uiso   1.00
C237   C     0.82630   0.95486   0.20611   0.00000  Uiso   1.00
C238   C     0.73335   0.98255   0.18152   0.00000  Uiso   1.00
C239   C     0.58691   0.02712   0.12292   0.00000  Uiso   1.00
C240   C     0.97968   0.84922   0.33718   0.00000  Uiso   1.00
C241   C     0.04270   0.78403   0.34653   0.00000  Uiso   1.00
C242   C     0.04872   0.73359   0.38616   0.00000  Uiso   1.00
C243   C     0.08481   0.63407   0.44601   0.00000  Uiso   1.00
C244   C     0.86044   0.93824   0.34954   0.00000  Uiso   1.00
C245   C     0.91911   0.97683   0.35528   0.00000  Uiso   1.00
C246   C     0.92043   0.02176   0.38556   0.00000  Uiso   1.00
C247   C     0.97882   0.05192   0.38562   0.00000  Uiso   1.00
C248   C     0.80705   0.95632   0.29010   0.00000  Uiso   1.00
C249   C     0.71413   0.98399   0.26559   0.00000  Uiso   1.00
C250   C     0.67819   0.99688   0.21077   0.00000  Uiso   1.00
C251   C     0.92462   0.86352   0.36639   0.00000  Uiso   1.00
C252   C     0.93054   0.81317   0.40601   0.00000  Uiso   1.00
C253   C     0.99355   0.74792   0.41541   0.00000  Uiso   1.00
H254   H     0.00468   0.90078   0.27304   0.00000  Uiso   1.00
H255   H     0.07518   0.98156   0.30347   0.00000  Uiso   1.00
H256   H     0.86893   0.94379   0.18352   0.00000  Uiso   1.00
H257   H     0.08530   0.77299   0.32392   0.00000  Uiso   1.00
H258   H     0.12904   0.07744   0.35008   0.00000  Uiso   1.00
H259   H     0.69413   0.99778   0.09715   0.00000  Uiso   1.00
H260   H     0.15039   0.63761   0.39321   0.00000  Uiso   1.00
H261   H     0.81757   0.94937   0.37227   0.00000  Uiso   1.00
H262   H     0.87780   0.03282   0.40816   0.00000  Uiso   1.00
H263   H     0.67154   0.99505   0.28820   0.00000  Uiso   1.00
H264   H     0.88791   0.82425   0.42860   0.00000  Uiso   1.00
H265   H     0.96884   0.11905   0.43504   0.00000  Uiso   1.00
H266   H     0.53393   0.03939   0.18211   0.00000  Uiso   1.00
H267   H     0.99019   0.67922   0.47818   0.00000  Uiso   1.00
O268   O     0.09192   0.15228   0.41436   0.00000  Uiso   1.00
O269   O     0.52134   0.04776   0.08253   0.00000  Uiso   1.00
O270   O     0.11994   0.57523   0.47096   0.00000  Uiso   1.00
N271   N     0.08308   0.07577   0.36516   0.00000  Uiso   1.00
N272   N     0.67647   0.00130   0.12869   0.00000  Uiso   1.00
N273   N     0.10302   0.66458   0.40547   0.00000  Uiso   1.00
N274   N     0.99688   0.09816   0.41088   0.00000  Uiso   1.00
N275   N     0.59027   0.02369   0.17440   0.00000  Uiso   1.00
N276   N     0.01681   0.68697   0.45119   0.00000  Uiso   1.00
C277   C     0.15451   0.31160   0.82152   0.00000  Uiso   1.00
C278   C     0.10505   0.26854   0.80394   0.00000  Uiso   1.00
C279   C     0.07239   0.26424   0.75255   0.00000  Uiso   1.00
C280   C     0.02909   0.22200   0.74461   0.00000  Uiso   1.00
C281   C     0.95389   0.16068   0.71093   0.00000  Uiso   1.00
C282   C     0.24412   0.26300   0.86572   0.00000  Uiso   1.00
C283   C     0.32838   0.25406   0.86628   0.00000  Uiso   1.00
C284   C     0.40215   0.20716   0.91035   0.00000  Uiso   1.00
C285   C     0.54286   0.13728   0.97261   0.00000  Uiso   1.00
C286   C     0.10147   0.35708   0.84787   0.00000  Uiso   1.00
C287   C     0.06582   0.42723   0.83343   0.00000  Uiso   1.00
C288   C     0.01951   0.45954   0.86248   0.00000  Uiso   1.00
C289   C     0.93874   0.53572   0.89701   0.00000  Uiso   1.00
C290   C     0.13570   0.24422   0.89880   0.00000  Uiso   1.00
C291   C     0.09484   0.23194   0.84591   0.00000  Uiso   1.00
C292   C     0.05158   0.18970   0.83805   0.00000  Uiso   1.00
C293   C     0.01885   0.18534   0.78666   0.00000  Uiso   1.00
C294   C     0.23391   0.22641   0.90769   0.00000  Uiso   1.00
C295   C     0.30757   0.17952   0.95178   0.00000  Uiso   1.00
C296   C     0.39192   0.17050   0.95240   0.00000  Uiso   1.00
C297   C     0.09126   0.32048   0.88984   0.00000  Uiso   1.00
C298   C     0.04500   0.35269   0.91892   0.00000  Uiso   1.00
C299   C     0.00928   0.42288   0.90453   0.00000  Uiso   1.00
H300   H     0.16246   0.34009   0.78885   0.00000  Uiso   1.00
H301   H     0.08031   0.29257   0.72008   0.00000  Uiso   1.00
H302   H     0.33626   0.28239   0.83380   0.00000  Uiso   1.00
H303   H     0.07373   0.45553   0.80094   0.00000  Uiso   1.00
H304   H     0.98475   0.22372   0.66235   0.00000  Uiso   1.00
H305   H     0.52444   0.20228   0.90214   0.00000  Uiso   1.00
H306   H     0.97085   0.56739   0.83286   0.00000  Uiso   1.00
H307   H     0.12775   0.21573   0.93148   0.00000  Uiso   1.00
H308   H     0.04368   0.16138   0.87054   0.00000  Uiso   1.00
H309   H     0.29964   0.15121   0.98425   0.00000  Uiso   1.00
H310   H     0.03711   0.32435   0.95140   0.00000  Uiso   1.00
H311   H     0.95503   0.11724   0.78447   0.00000  Uiso   1.00
H312   H     0.49472   0.09581   0.02426   0.00000  Uiso   1.00
H313   H     0.94113   0.46092   0.95498   0.00000  Uiso   1.00
O314   O     0.91525   0.13696   0.68075   0.00000  Uiso   1.00
O315   O     0.62329   0.10885   0.99534   0.00000  Uiso   1.00
O316   O     0.89699   0.58786   0.90445   0.00000  Uiso   1.00
N317   N     0.98928   0.20613   0.69945   0.00000  Uiso   1.00
N318   N     0.49386   0.18608   0.92364   0.00000  Uiso   1.00
N319   N     0.97632   0.52742   0.85888   0.00000  Uiso   1.00
N320   N     0.97328   0.14884   0.76516   0.00000  Uiso   1.00
N321   N     0.47786   0.12879   0.98935   0.00000  Uiso   1.00
N322   N     0.96032   0.47013   0.92459   0.00000  Uiso   1.00
C323   C     0.64682   0.27615   0.19778   0.00000  Uiso   1.00
C324   C     0.67727   0.24060   0.15889   0.00000  Uiso   1.00
C325   C     0.76065   0.22329   0.15522   0.00000  Uiso   1.00
C326   C     0.77546   0.19098   0.11705   0.00000  Uiso   1.00
C327   C     0.83283   0.13794   0.06176   0.00000  Uiso   1.00
C328   C     0.61850   0.23013   0.22850   0.00000  Uiso   1.00
C329   C     0.65248   0.20403   0.28336   0.00000  Uiso   1.00
C330   C     0.61780   0.16293   0.30379   0.00000  Uiso   1.00
C331   C     0.58390   0.09368   0.35656   0.00000  Uiso   1.00
C332   C     0.56109   0.33950   0.16396   0.00000  Uiso   1.00
C333   C     0.54678   0.40536   0.16456   0.00000  Uiso   1.00
C334   C     0.46376   0.45633   0.13065   0.00000  Uiso   1.00
C335   C     0.34071   0.55689   0.08321   0.00000  Uiso   1.00
C336   C     0.52482   0.24956   0.13652   0.00000  Uiso   1.00
C337   C     0.61100   0.22615   0.12563   0.00000  Uiso   1.00
C338   C     0.62568   0.19387   0.08745   0.00000  Uiso   1.00
C339   C     0.70908   0.17652   0.08372   0.00000  Uiso   1.00
C340   C     0.55224   0.21569   0.19524   0.00000  Uiso   1.00
C341   C     0.51750   0.17462   0.21559   0.00000  Uiso   1.00
C342   C     0.55142   0.14846   0.27046   0.00000  Uiso   1.00
C343   C     0.49483   0.32506   0.13069   0.00000  Uiso   1.00
C344   C     0.41181   0.37594   0.09678   0.00000  Uiso   1.00
C345   C     0.39738   0.44186   0.09732   0.00000  Uiso   1.00
H346   H     0.69841   0.28739   0.22368   0.00000  Uiso   1.00
H347   H     0.81192   0.23446   0.18098   0.00000  Uiso   1.00
H348   H     0.70375   0.21522   0.30910   0.00000  Uiso   1.00
H349   H     0.59807   0.41651   0.19031   0.00000  Uiso   1.00
H350   H     0.90856   0.16940   0.11898   0.00000  Uiso   1.00
H351   H     0.68046   0.12884   0.38912   0.00000  Uiso   1.00
H352   H     0.45761   0.55330   0.13863   0.00000  Uiso   1.00
H353   H     0.47323   0.23832   0.11062   0.00000  Uiso   1.00
H354   H     0.57439   0.18270   0.06171   0.00000  Uiso   1.00
H355   H     0.46622   0.16346   0.18983   0.00000  Uiso   1.00
H356   H     0.36055   0.36475   0.07104   0.00000  Uiso   1.00
H357   H     0.71578   0.12738   0.02217   0.00000  Uiso   1.00
H358   H     0.48767   0.08683   0.29231   0.00000  Uiso   1.00
H359   H     0.26483   0.51129   0.04183   0.00000  Uiso   1.00
O360   O     0.88279   0.11267   0.04045   0.00000  Uiso   1.00
O361   O     0.58351   0.05947   0.39486   0.00000  Uiso   1.00
O362   O     0.29115   0.61635   0.06623   0.00000  Uiso   1.00
N363   N     0.84930   0.16715   0.10290   0.00000  Uiso   1.00
N364   N     0.63605   0.12923   0.35546   0.00000  Uiso   1.00
N365   N     0.42770   0.52606   0.12129   0.00000  Uiso   1.00
N366   N     0.74556   0.14454   0.05081   0.00000  Uiso   1.00
N367   N     0.53231   0.10662   0.30337   0.00000  Uiso   1.00
N368   N     0.32396   0.50345   0.06920   0.00000  Uiso   1.00
C369   C     0.40486   0.24694   0.57587   0.00000  Uiso   1.00
C370   C     0.50380   0.21856   0.61189   0.00000  Uiso   1.00
C371   C     0.53711   0.20896   0.66637   0.00000  Uiso   1.00
C372   C     0.62976   0.18238   0.69216   0.00000  Uiso   1.00
C373   C     0.77469   0.14078   0.75231   0.00000  Uiso   1.00
C374   C     0.39533   0.19379   0.54783   0.00000  Uiso   1.00
C375   C     0.33743   0.16337   0.54844   0.00000  Uiso   1.00
C376   C     0.33876   0.11595   0.52029   0.00000  Uiso   1.00
C377   C     0.31524   0.03592   0.48095   0.00000  Uiso   1.00
C378   C     0.38761   0.30782   0.53289   0.00000  Uiso   1.00
C379   C     0.32320   0.37328   0.52094   0.00000  Uiso   1.00
C380   C     0.31802   0.42186   0.48021   0.00000  Uiso   1.00
C381   C     0.28252   0.51889   0.41768   0.00000  Uiso   1.00
C382   C     0.51017   0.21683   0.52478   0.00000  Uiso   1.00
C383   C     0.56100   0.20221   0.58414   0.00000  Uiso   1.00
C384   C     0.65362   0.17564   0.60984   0.00000  Uiso   1.00
C385   C     0.68706   0.16600   0.66436   0.00000  Uiso   1.00
C386   C     0.45252   0.17743   0.52007   0.00000  Uiso   1.00
C387   C     0.45394   0.13005   0.49191   0.00000  Uiso   1.00
C388   C     0.39606   0.09956   0.49249   0.00000  Uiso   1.00
C389   C     0.44481   0.29147   0.50514   0.00000  Uiso   1.00
C390   C     0.43972   0.33996   0.46442   0.00000  Uiso   1.00
C391   C     0.37532   0.40548   0.45241   0.00000  Uiso   1.00
H392   H     0.36032   0.25967   0.59748   0.00000  Uiso   1.00
H393   H     0.49282   0.22162   0.68784   0.00000  Uiso   1.00
H394   H     0.29316   0.17604   0.56992   0.00000  Uiso   1.00
H395   H     0.27895   0.38592   0.54243   0.00000  Uiso   1.00
H396   H     0.66495   0.17219   0.77578   0.00000  Uiso   1.00
H397   H     0.24394   0.07611   0.52713   0.00000  Uiso   1.00
H398   H     0.21396   0.51867   0.46915   0.00000  Uiso   1.00
H399   H     0.55470   0.20409   0.50317   0.00000  Uiso   1.00
H400   H     0.69787   0.16299   0.58836   0.00000  Uiso   1.00
H401   H     0.49821   0.11741   0.47044   0.00000  Uiso   1.00
H402   H     0.48400   0.32728   0.44295   0.00000  Uiso   1.00
H403   H     0.83137   0.12460   0.69504   0.00000  Uiso   1.00
H404   H     0.41035   0.02852   0.44638   0.00000  Uiso   1.00
H405   H     0.38039   0.47108   0.38841   0.00000  Uiso   1.00
O406   O     0.83883   0.12234   0.79315   0.00000  Uiso   1.00
O407   O     0.28647   0.99629   0.46692   0.00000  Uiso   1.00
O408   O     0.24715   0.57692   0.39086   0.00000  Uiso   1.00
N409   N     0.68446   0.16664   0.74509   0.00000  Uiso   1.00
N410   N     0.29085   0.07680   0.51262   0.00000  Uiso   1.00
N411   N     0.26282   0.49056   0.45841   0.00000  Uiso   1.00
N412   N     0.77402   0.14104   0.70164   0.00000  Uiso   1.00
N413   N     0.38041   0.05120   0.46917   0.00000  Uiso   1.00
N414   N     0.35237   0.46495   0.41496   0.00000  Uiso   1.00
C415   C     0.92628   0.84555   0.07391   0.00000  Uiso   1.00
C416   C     0.87807   0.82781   0.10828   0.00000  Uiso   1.00
C417   C     0.90283   0.82108   0.16234   0.00000  Uiso   1.00
C418   C     0.85002   0.80460   0.18656   0.00000  Uiso   1.00
C419   C     0.78659   0.77845   0.24433   0.00000  Uiso   1.00
C420   C     0.95055   0.78856   0.04813   0.00000  Uiso   1.00
C421   C     0.03625   0.74885   0.05161   0.00000  Uiso   1.00
C422   C     0.04444   0.69934   0.02518   0.00000  Uiso   1.00
C423   C     0.09352   0.61230   0.98953   0.00000  Uiso   1.00
C424   C     0.85576   0.90840   0.02892   0.00000  Uiso   1.00
C425   C     0.86177   0.96945   0.01624   0.00000  Uiso   1.00
C426   C     0.79017   0.02083   0.97364   0.00000  Uiso   1.00
C427   C     0.69208   0.11986   0.90816   0.00000  Uiso   1.00
C428   C     0.78845   0.82825   0.02079   0.00000  Uiso   1.00
C429   C     0.80322   0.81841   0.07943   0.00000  Uiso   1.00
C430   C     0.75035   0.80194   0.10358   0.00000  Uiso   1.00
C431   C     0.77503   0.79519   0.15766   0.00000  Uiso   1.00
C432   C     0.87570   0.77917   0.01928   0.00000  Uiso   1.00
C433   C     0.88376   0.72971   0.99284   0.00000  Uiso   1.00
C434   C     0.96945   0.68992   0.99628   0.00000  Uiso   1.00
C435   C     0.78090   0.89901   0.00007   0.00000  Uiso   1.00
C436   C     0.70928   0.95031   0.95748   0.00000  Uiso   1.00
C437   C     0.71518   0.01142   0.94474   0.00000  Uiso   1.00
H438   H     0.98456   0.85286   0.09637   0.00000  Uiso   1.00
H439   H     0.96078   0.82835   0.18466   0.00000  Uiso   1.00
H440   H     0.09416   0.75614   0.07393   0.00000  Uiso   1.00
H441   H     0.91971   0.97670   0.03857   0.00000  Uiso   1.00
H442   H     0.90141   0.79701   0.26982   0.00000  Uiso   1.00
H443   H     0.18267   0.64475   0.03634   0.00000  Uiso   1.00
H444   H     0.81480   0.10986   0.96178   0.00000  Uiso   1.00
H445   H     0.73017   0.82093   0.99833   0.00000  Uiso   1.00
H446   H     0.69242   0.79467   0.08124   0.00000  Uiso   1.00
H447   H     0.82582   0.72245   0.97052   0.00000  Uiso   1.00
H448   H     0.65136   0.94302   0.93516   0.00000  Uiso   1.00
H449   H     0.68361   0.76967   0.18588   0.00000  Uiso   1.00
H450   H     0.96487   0.61741   0.95240   0.00000  Uiso   1.00
H451   H     0.59700   0.08252   0.87784   0.00000  Uiso   1.00
O452   O     0.77229   0.76662   0.28416   0.00000  Uiso   1.00
O453   O     0.14128   0.56688   0.97784   0.00000  Uiso   1.00
O454   O     0.65864   0.17708   0.88002   0.00000  Uiso   1.00
N455   N     0.85532   0.79419   0.23868   0.00000  Uiso   1.00
N456   N     0.11828   0.65183   0.02040   0.00000  Uiso   1.00
N457   N     0.77437   0.08666   0.95068   0.00000  Uiso   1.00
N458   N     0.73813   0.77948   0.19352   0.00000  Uiso   1.00
N459   N     0.00108   0.63712   0.97523   0.00000  Uiso   1.00
N460   N     0.65717   0.07195   0.90552   0.00000  Uiso   1.00
C461   C     0.29915   0.91624   0.31889   0.00000  Uiso   1.00
C462   C     0.37683   0.88394   0.30161   0.00000  Uiso   1.00
C463   C     0.37550   0.84913   0.26350   0.00000  Uiso   1.00
C464   C     0.45339   0.82336   0.25338   0.00000  Uiso   1.00
C465   C     0.56240   0.77185   0.22246   0.00000  Uiso   1.00
C466   C     0.33539   0.88529   0.37887   0.00000  Uiso   1.00
C467   C     0.29920   0.85161   0.40571   0.00000  Uiso   1.00
C468   C     0.34221   0.82699   0.46063   0.00000  Uiso   1.00
C469   C     0.38683   0.77761   0.54964   0.00000  Uiso   1.00
C470   C     0.28167   0.99056   0.31032   0.00000  Uiso   1.00
C471   C     0.20030   0.04539   0.27955   0.00000  Uiso   1.00
C472   C     0.19807   0.10940   0.27676   0.00000  Uiso   1.00
C473   C     0.15929   0.22346   0.25935   0.00000  Uiso   1.00
C474   C     0.43986   0.93240   0.36868   0.00000  Uiso   1.00
C475   C     0.45326   0.89272   0.32866   0.00000  Uiso   1.00
C476   C     0.53118   0.86701   0.31859   0.00000  Uiso   1.00
C477   C     0.52996   0.83216   0.28048   0.00000  Uiso   1.00
C478   C     0.41182   0.89407   0.40591   0.00000  Uiso   1.00
C479   C     0.45488   0.86949   0.46080   0.00000  Uiso   1.00
C480   C     0.41877   0.83578   0.48772   0.00000  Uiso   1.00
C481   C     0.35810   0.99934   0.33737   0.00000  Uiso   1.00
C482   C     0.35599   0.06327   0.33463   0.00000  Uiso   1.00
C483   C     0.27464   0.11819   0.30386   0.00000  Uiso   1.00
H484   H     0.23965   0.90940   0.29784   0.00000  Uiso   1.00
H485   H     0.31634   0.84234   0.24259   0.00000  Uiso   1.00
H486   H     0.24005   0.84483   0.38477   0.00000  Uiso   1.00
H487   H     0.14117   0.03858   0.25862   0.00000  Uiso   1.00
H488   H     0.43508   0.77183   0.19327   0.00000  Uiso   1.00
H489   H     0.27420   0.77711   0.49308   0.00000  Uiso   1.00
H490   H     0.06570   0.18567   0.22707   0.00000  Uiso   1.00
H491   H     0.49937   0.93924   0.38974   0.00000  Uiso   1.00
H492   H     0.59031   0.87381   0.33953   0.00000  Uiso   1.00
H493   H     0.51402   0.87630   0.48171   0.00000  Uiso   1.00
H494   H     0.41515   0.07005   0.35557   0.00000  Uiso   1.00
H495   H     0.65745   0.79737   0.27195   0.00000  Uiso   1.00
H496   H     0.49657   0.80265   0.57176   0.00000  Uiso   1.00
H497   H     0.28806   0.21121   0.30575   0.00000  Uiso   1.00
O498   O     0.60141   0.74101   0.19794   0.00000  Uiso   1.00
O499   O     0.39034   0.74794   0.59127   0.00000  Uiso   1.00
O500   O     0.11678   0.28395   0.24227   0.00000  Uiso   1.00
N501   N     0.47493   0.78684   0.21867   0.00000  Uiso   1.00
N502   N     0.32453   0.79176   0.49897   0.00000  Uiso   1.00
N503   N     0.12958   0.17372   0.25029   0.00000  Uiso   1.00
N504   N     0.59458   0.80058   0.26101   0.00000  Uiso   1.00
N505   N     0.44418   0.80550   0.54131   0.00000  Uiso   1.00
N506   N     0.24924   0.18747   0.29263   0.00000  Uiso   1.00
C507   C     0.11975   0.92793   0.65876   0.00000  Uiso   1.00
C508   C     0.09751   0.88054   0.62764   0.00000  Uiso   1.00
C509   C     0.03779   0.85275   0.63081   0.00000  Uiso   1.00
C510   C     0.02677   0.81059   0.59912   0.00000  Uiso   1.00
C511   C     0.98512   0.73908   0.55594   0.00000  Uiso   1.00
C512   C     0.22135   0.89432   0.68877   0.00000  Uiso   1.00
C513   C     0.26574   0.87813   0.74334   0.00000  Uiso   1.00
C514   C     0.35897   0.84758   0.76310   0.00000  Uiso   1.00
C515   C     0.50958   0.79751   0.81482   0.00000  Uiso   1.00
C516   C     0.09977   0.99146   0.61745   0.00000  Uiso   1.00
C517   C     0.04196   0.05696   0.61205   0.00000  Uiso   1.00
C518   C     0.03284   0.10819   0.57177   0.00000  Uiso   1.00
C519   C     0.99468   0.20895   0.51274   0.00000  Uiso   1.00
C520   C     0.20639   0.90246   0.59685   0.00000  Uiso   1.00
C521   C     0.14458   0.86670   0.59402   0.00000  Uiso   1.00
C522   C     0.13365   0.82457   0.56231   0.00000  Uiso   1.00
C523   C     0.07391   0.79673   0.56543   0.00000  Uiso   1.00
C524   C     0.26841   0.88049   0.65515   0.00000  Uiso   1.00
C525   C     0.36160   0.84995   0.67484   0.00000  Uiso   1.00
C526   C     0.40612   0.83372   0.72941   0.00000  Uiso   1.00
C527   C     0.14683   0.97763   0.58382   0.00000  Uiso   1.00
C528   C     0.13781   0.02877   0.54354   0.00000  Uiso   1.00
C529   C     0.07999   0.09433   0.53808   0.00000  Uiso   1.00
H530   H     0.08312   0.93870   0.68495   0.00000  Uiso   1.00
H531   H     0.00139   0.86347   0.65685   0.00000  Uiso   1.00
H532   H     0.22931   0.88885   0.76935   0.00000  Uiso   1.00
H533   H     0.00555   0.06764   0.63808   0.00000  Uiso   1.00
H534   H     0.93155   0.77394   0.61088   0.00000  Uiso   1.00
H535   H     0.41213   0.82748   0.84809   0.00000  Uiso   1.00
H536   H     0.94030   0.20450   0.57128   0.00000  Uiso   1.00
H537   H     0.24304   0.89169   0.57067   0.00000  Uiso   1.00
H538   H     0.17007   0.81387   0.53629   0.00000  Uiso   1.00
H539   H     0.39800   0.83926   0.64880   0.00000  Uiso   1.00
H540   H     0.17424   0.01805   0.51753   0.00000  Uiso   1.00
H541   H     0.06847   0.73368   0.51303   0.00000  Uiso   1.00
H542   H     0.54905   0.78723   0.75025   0.00000  Uiso   1.00
H543   H     0.07722   0.16425   0.47344   0.00000  Uiso   1.00
O544   O     0.94915   0.70345   0.54142   0.00000  Uiso   1.00
O545   O     0.57965   0.77372   0.85264   0.00000  Uiso   1.00
O546   O     0.96062   0.26835   0.48946   0.00000  Uiso   1.00
N547   N     0.97377   0.77515   0.59256   0.00000  Uiso   1.00
N548   N     0.42309   0.82520   0.81434   0.00000  Uiso   1.00
N549   N     0.98198   0.17769   0.55556   0.00000  Uiso   1.00
N550   N     0.04744   0.75349   0.53991   0.00000  Uiso   1.00
N551   N     0.49676   0.80354   0.76170   0.00000  Uiso   1.00
N552   N     0.05566   0.15603   0.50291   0.00000  Uiso   1.00
