data_job_01880
_audit_creation_date              2018-12-19
_audit_creation_method            'Materials Studio'
_symmetry_space_group_name_H-M    'P1'
_symmetry_Int_Tables_number       1
_symmetry_cell_setting            triclinic
loop_
_symmetry_equiv_pos_as_xyz
  x,y,z
_cell_length_a                    30.5529
_cell_length_b                    7.0721
_cell_length_c                    56.5341
_cell_angle_alpha                 90.0000
_cell_angle_beta                  133.1470
_cell_angle_gamma                 90.0000
loop_
_atom_site_label
_atom_site_type_symbol
_atom_site_fract_x
_atom_site_fract_y
_atom_site_fract_z
_atom_site_U_iso_or_equiv
_atom_site_adp_type
_atom_site_occupancy
C1     C     0.04306   0.12952   0.58667   0.00000  Uiso   1.00
C2     C     0.06710   0.16710   0.57074   0.00000  Uiso   1.00
C3     C     0.07829   0.03100   0.55776   0.00000  Uiso   1.00
C4     C     0.10021   0.09408   0.54427   0.00000  Uiso   1.00
C5     C     0.13594   0.12318   0.51959   0.00000  Uiso   1.00
C6     C     0.98643   0.24895   0.56814   0.00000  Uiso   1.00
C7     C     0.92979   0.18167   0.55296   0.00000  Uiso   1.00
C8     C     0.88380   0.31366   0.53728   0.00000  Uiso   1.00
C9     C     0.79429   0.46986   0.50858   0.00000  Uiso   1.00
C10    C     0.08868   0.21513   0.62054   0.00000  Uiso   1.00
C11    C     0.11802   0.11944   0.64942   0.00000  Uiso   1.00
C12    C     0.15811   0.22297   0.67786   0.00000  Uiso   1.00
C13    C     0.22737   0.32665   0.73052   0.00000  Uiso   1.00
C14    C     0.06209   0.48355   0.58581   0.00000  Uiso   1.00
C15    C     0.07743   0.35939   0.57028   0.00000  Uiso   1.00
C16    C     0.09935   0.42269   0.55681   0.00000  Uiso   1.00
C17    C     0.11057   0.28671   0.54380   0.00000  Uiso   1.00
C18    C     0.99676   0.44124   0.56767   0.00000  Uiso   1.00
C19    C     0.95085   0.57336   0.55201   0.00000  Uiso   1.00
C20    C     0.89416   0.50630   0.53682   0.00000  Uiso   1.00
C21    C     0.09902   0.40743   0.62007   0.00000  Uiso   1.00
C22    C     0.13907   0.51113   0.64847   0.00000  Uiso   1.00
C23    C     0.16847   0.41561   0.67740   0.00000  Uiso   1.00
H24    H     0.03501   0.97982   0.58703   0.00000  Uiso   1.00
H25    H     0.07028   0.88220   0.55812   0.00000  Uiso   1.00
H26    H     0.92181   0.03286   0.55333   0.00000  Uiso   1.00
H27    H     0.11000   0.97063   0.64977   0.00000  Uiso   1.00
H28    H     0.11393   0.85879   0.52585   0.00000  Uiso   1.00
H29    H     0.80086   0.17646   0.51576   0.00000  Uiso   1.00
H30    H     0.19772   0.04524   0.71913   0.00000  Uiso   1.00
H31    H     0.07014   0.63326   0.58545   0.00000  Uiso   1.00
H32    H     0.10734   0.57151   0.55645   0.00000  Uiso   1.00
H33    H     0.95886   0.72216   0.55166   0.00000  Uiso   1.00
H34    H     0.14706   0.65993   0.64810   0.00000  Uiso   1.00
H35    H     0.14401   0.41826   0.52449   0.00000  Uiso   1.00
H36    H     0.83094   0.73592   0.51440   0.00000  Uiso   1.00
H37    H     0.22779   0.60471   0.71777   0.00000  Uiso   1.00
O38    O     0.15279   0.08612   0.50611   0.00000  Uiso   1.00
O39    O     0.74206   0.50288   0.49288   0.00000  Uiso   1.00
O40    O     0.26273   0.33072   0.75970   0.00000  Uiso   1.00
N41    N     0.11591   0.99893   0.52951   0.00000  Uiso   1.00
N42    N     0.82321   0.29593   0.52008   0.00000  Uiso   1.00
N43    N     0.19423   0.17326   0.71021   0.00000  Uiso   1.00
N44    N     0.13210   0.29998   0.52878   0.00000  Uiso   1.00
N45    N     0.83940   0.59697   0.51935   0.00000  Uiso   1.00
N46    N     0.21041   0.47430   0.70948   0.00000  Uiso   1.00
C47    C     0.54306   0.62952   0.58667   0.00000  Uiso   1.00
C48    C     0.56710   0.66710   0.57074   0.00000  Uiso   1.00
C49    C     0.57829   0.53100   0.55776   0.00000  Uiso   1.00
C50    C     0.60021   0.59408   0.54427   0.00000  Uiso   1.00
C51    C     0.63594   0.62318   0.51959   0.00000  Uiso   1.00
C52    C     0.48643   0.74895   0.56814   0.00000  Uiso   1.00
C53    C     0.42979   0.68167   0.55296   0.00000  Uiso   1.00
C54    C     0.38380   0.81366   0.53728   0.00000  Uiso   1.00
C55    C     0.29429   0.96986   0.50858   0.00000  Uiso   1.00
C56    C     0.58868   0.71513   0.62054   0.00000  Uiso   1.00
C57    C     0.61802   0.61944   0.64942   0.00000  Uiso   1.00
C58    C     0.65811   0.72297   0.67786   0.00000  Uiso   1.00
C59    C     0.72737   0.82665   0.73052   0.00000  Uiso   1.00
C60    C     0.56209   0.98355   0.58581   0.00000  Uiso   1.00
C61    C     0.57743   0.85939   0.57028   0.00000  Uiso   1.00
C62    C     0.59935   0.92269   0.55681   0.00000  Uiso   1.00
C63    C     0.61057   0.78671   0.54380   0.00000  Uiso   1.00
C64    C     0.49676   0.94124   0.56767   0.00000  Uiso   1.00
C65    C     0.45085   0.07336   0.55201   0.00000  Uiso   1.00
C66    C     0.39416   0.00630   0.53682   0.00000  Uiso   1.00
C67    C     0.59902   0.90743   0.62007   0.00000  Uiso   1.00
C68    C     0.63907   0.01113   0.64847   0.00000  Uiso   1.00
C69    C     0.66847   0.91561   0.67740   0.00000  Uiso   1.00
H70    H     0.53501   0.47982   0.58703   0.00000  Uiso   1.00
H71    H     0.57028   0.38220   0.55812   0.00000  Uiso   1.00
H72    H     0.42181   0.53286   0.55333   0.00000  Uiso   1.00
H73    H     0.61000   0.47063   0.64977   0.00000  Uiso   1.00
H74    H     0.61393   0.35879   0.52585   0.00000  Uiso   1.00
H75    H     0.30086   0.67646   0.51576   0.00000  Uiso   1.00
H76    H     0.69772   0.54524   0.71913   0.00000  Uiso   1.00
H77    H     0.57014   0.13326   0.58545   0.00000  Uiso   1.00
H78    H     0.60734   0.07151   0.55645   0.00000  Uiso   1.00
H79    H     0.45886   0.22216   0.55166   0.00000  Uiso   1.00
H80    H     0.64706   0.15993   0.64810   0.00000  Uiso   1.00
H81    H     0.64401   0.91826   0.52449   0.00000  Uiso   1.00
H82    H     0.33094   0.23592   0.51440   0.00000  Uiso   1.00
H83    H     0.72779   0.10471   0.71777   0.00000  Uiso   1.00
O84    O     0.65279   0.58612   0.50611   0.00000  Uiso   1.00
O85    O     0.24206   0.00288   0.49288   0.00000  Uiso   1.00
O86    O     0.76273   0.83072   0.75970   0.00000  Uiso   1.00
N87    N     0.61591   0.49893   0.52951   0.00000  Uiso   1.00
N88    N     0.32321   0.79593   0.52008   0.00000  Uiso   1.00
N89    N     0.69423   0.67326   0.71021   0.00000  Uiso   1.00
N90    N     0.63210   0.79998   0.52878   0.00000  Uiso   1.00
N91    N     0.33940   0.09697   0.51935   0.00000  Uiso   1.00
N92    N     0.71041   0.97430   0.70948   0.00000  Uiso   1.00
C93    C     0.95694   0.12952   0.91333   0.00000  Uiso   1.00
C94    C     0.93290   0.16710   0.92926   0.00000  Uiso   1.00
C95    C     0.92171   0.03100   0.94224   0.00000  Uiso   1.00
C96    C     0.89979   0.09408   0.95573   0.00000  Uiso   1.00
C97    C     0.86406   0.12318   0.98041   0.00000  Uiso   1.00
C98    C     0.01357   0.24895   0.93186   0.00000  Uiso   1.00
C99    C     0.07021   0.18167   0.94704   0.00000  Uiso   1.00
C100   C     0.11620   0.31366   0.96272   0.00000  Uiso   1.00
C101   C     0.20571   0.46986   0.99142   0.00000  Uiso   1.00
C102   C     0.91132   0.21513   0.87946   0.00000  Uiso   1.00
C103   C     0.88198   0.11944   0.85058   0.00000  Uiso   1.00
C104   C     0.84189   0.22297   0.82214   0.00000  Uiso   1.00
C105   C     0.77263   0.32665   0.76948   0.00000  Uiso   1.00
C106   C     0.93791   0.48355   0.91419   0.00000  Uiso   1.00
C107   C     0.92257   0.35939   0.92972   0.00000  Uiso   1.00
C108   C     0.90065   0.42269   0.94319   0.00000  Uiso   1.00
C109   C     0.88943   0.28671   0.95620   0.00000  Uiso   1.00
C110   C     0.00324   0.44124   0.93233   0.00000  Uiso   1.00
C111   C     0.04915   0.57336   0.94799   0.00000  Uiso   1.00
C112   C     0.10584   0.50630   0.96318   0.00000  Uiso   1.00
C113   C     0.90098   0.40743   0.87993   0.00000  Uiso   1.00
C114   C     0.86093   0.51113   0.85153   0.00000  Uiso   1.00
C115   C     0.83153   0.41561   0.82260   0.00000  Uiso   1.00
H116   H     0.96499   0.97982   0.91297   0.00000  Uiso   1.00
H117   H     0.92972   0.88220   0.94188   0.00000  Uiso   1.00
H118   H     0.07819   0.03286   0.94667   0.00000  Uiso   1.00
H119   H     0.89000   0.97063   0.85023   0.00000  Uiso   1.00
H120   H     0.88607   0.85879   0.97415   0.00000  Uiso   1.00
H121   H     0.19914   0.17646   0.98424   0.00000  Uiso   1.00
H122   H     0.80228   0.04524   0.78087   0.00000  Uiso   1.00
H123   H     0.92986   0.63326   0.91455   0.00000  Uiso   1.00
H124   H     0.89266   0.57151   0.94355   0.00000  Uiso   1.00
H125   H     0.04114   0.72216   0.94834   0.00000  Uiso   1.00
H126   H     0.85294   0.65993   0.85190   0.00000  Uiso   1.00
H127   H     0.85599   0.41826   0.97551   0.00000  Uiso   1.00
H128   H     0.16906   0.73592   0.98560   0.00000  Uiso   1.00
H129   H     0.77221   0.60471   0.78223   0.00000  Uiso   1.00
O130   O     0.84721   0.08612   0.99389   0.00000  Uiso   1.00
O131   O     0.25794   0.50288   0.00712   0.00000  Uiso   1.00
O132   O     0.73727   0.33072   0.74030   0.00000  Uiso   1.00
N133   N     0.88409   0.99893   0.97049   0.00000  Uiso   1.00
N134   N     0.17679   0.29593   0.97992   0.00000  Uiso   1.00
N135   N     0.80577   0.17326   0.78979   0.00000  Uiso   1.00
N136   N     0.86790   0.29998   0.97122   0.00000  Uiso   1.00
N137   N     0.16060   0.59697   0.98065   0.00000  Uiso   1.00
N138   N     0.78959   0.47430   0.79052   0.00000  Uiso   1.00
C139   C     0.45694   0.62952   0.91333   0.00000  Uiso   1.00
C140   C     0.43290   0.66710   0.92926   0.00000  Uiso   1.00
C141   C     0.42171   0.53100   0.94224   0.00000  Uiso   1.00
C142   C     0.39979   0.59408   0.95573   0.00000  Uiso   1.00
C143   C     0.36406   0.62318   0.98041   0.00000  Uiso   1.00
C144   C     0.51357   0.74895   0.93186   0.00000  Uiso   1.00
C145   C     0.57021   0.68167   0.94704   0.00000  Uiso   1.00
C146   C     0.61620   0.81366   0.96272   0.00000  Uiso   1.00
C147   C     0.70571   0.96986   0.99142   0.00000  Uiso   1.00
C148   C     0.41132   0.71513   0.87946   0.00000  Uiso   1.00
C149   C     0.38198   0.61944   0.85058   0.00000  Uiso   1.00
C150   C     0.34189   0.72297   0.82214   0.00000  Uiso   1.00
C151   C     0.27263   0.82665   0.76948   0.00000  Uiso   1.00
C152   C     0.43791   0.98355   0.91419   0.00000  Uiso   1.00
C153   C     0.42257   0.85939   0.92972   0.00000  Uiso   1.00
C154   C     0.40065   0.92269   0.94319   0.00000  Uiso   1.00
C155   C     0.38943   0.78671   0.95620   0.00000  Uiso   1.00
C156   C     0.50324   0.94124   0.93233   0.00000  Uiso   1.00
C157   C     0.54915   0.07336   0.94799   0.00000  Uiso   1.00
C158   C     0.60584   0.00630   0.96318   0.00000  Uiso   1.00
C159   C     0.40098   0.90743   0.87993   0.00000  Uiso   1.00
C160   C     0.36093   0.01113   0.85153   0.00000  Uiso   1.00
C161   C     0.33153   0.91561   0.82260   0.00000  Uiso   1.00
H162   H     0.46499   0.47982   0.91297   0.00000  Uiso   1.00
H163   H     0.42972   0.38220   0.94188   0.00000  Uiso   1.00
H164   H     0.57819   0.53286   0.94667   0.00000  Uiso   1.00
H165   H     0.39000   0.47063   0.85023   0.00000  Uiso   1.00
H166   H     0.38607   0.35879   0.97415   0.00000  Uiso   1.00
H167   H     0.69914   0.67646   0.98424   0.00000  Uiso   1.00
H168   H     0.30228   0.54524   0.78087   0.00000  Uiso   1.00
H169   H     0.42986   0.13326   0.91455   0.00000  Uiso   1.00
H170   H     0.39266   0.07151   0.94355   0.00000  Uiso   1.00
H171   H     0.54114   0.22216   0.94834   0.00000  Uiso   1.00
H172   H     0.35294   0.15993   0.85190   0.00000  Uiso   1.00
H173   H     0.35599   0.91826   0.97551   0.00000  Uiso   1.00
H174   H     0.66906   0.23592   0.98560   0.00000  Uiso   1.00
H175   H     0.27221   0.10471   0.78223   0.00000  Uiso   1.00
O176   O     0.34721   0.58612   0.99389   0.00000  Uiso   1.00
O177   O     0.75794   0.00288   0.00712   0.00000  Uiso   1.00
O178   O     0.23727   0.83072   0.74030   0.00000  Uiso   1.00
N179   N     0.38409   0.49893   0.97049   0.00000  Uiso   1.00
N180   N     0.67679   0.79593   0.97992   0.00000  Uiso   1.00
N181   N     0.30577   0.67326   0.78979   0.00000  Uiso   1.00
N182   N     0.36790   0.79998   0.97122   0.00000  Uiso   1.00
N183   N     0.66060   0.09697   0.98065   0.00000  Uiso   1.00
N184   N     0.28959   0.97430   0.79052   0.00000  Uiso   1.00
C185   C     0.95694   0.87048   0.41333   0.00000  Uiso   1.00
C186   C     0.93290   0.83290   0.42926   0.00000  Uiso   1.00
C187   C     0.92171   0.96900   0.44224   0.00000  Uiso   1.00
C188   C     0.89979   0.90592   0.45573   0.00000  Uiso   1.00
C189   C     0.86406   0.87682   0.48041   0.00000  Uiso   1.00
C190   C     0.01357   0.75105   0.43186   0.00000  Uiso   1.00
C191   C     0.07021   0.81833   0.44704   0.00000  Uiso   1.00
C192   C     0.11620   0.68634   0.46272   0.00000  Uiso   1.00
C193   C     0.20571   0.53014   0.49142   0.00000  Uiso   1.00
C194   C     0.91132   0.78487   0.37946   0.00000  Uiso   1.00
C195   C     0.88198   0.88056   0.35058   0.00000  Uiso   1.00
C196   C     0.84189   0.77703   0.32214   0.00000  Uiso   1.00
C197   C     0.77263   0.67335   0.26948   0.00000  Uiso   1.00
C198   C     0.93791   0.51645   0.41419   0.00000  Uiso   1.00
C199   C     0.92257   0.64061   0.42972   0.00000  Uiso   1.00
C200   C     0.90065   0.57731   0.44319   0.00000  Uiso   1.00
C201   C     0.88943   0.71329   0.45620   0.00000  Uiso   1.00
C202   C     0.00324   0.55876   0.43233   0.00000  Uiso   1.00
C203   C     0.04915   0.42664   0.44799   0.00000  Uiso   1.00
C204   C     0.10584   0.49370   0.46318   0.00000  Uiso   1.00
C205   C     0.90098   0.59257   0.37993   0.00000  Uiso   1.00
C206   C     0.86093   0.48887   0.35153   0.00000  Uiso   1.00
C207   C     0.83153   0.58439   0.32260   0.00000  Uiso   1.00
H208   H     0.96499   0.02018   0.41297   0.00000  Uiso   1.00
H209   H     0.92972   0.11780   0.44188   0.00000  Uiso   1.00
H210   H     0.07819   0.96714   0.44667   0.00000  Uiso   1.00
H211   H     0.89000   0.02937   0.35023   0.00000  Uiso   1.00
H212   H     0.88607   0.14121   0.47415   0.00000  Uiso   1.00
H213   H     0.19914   0.82354   0.48424   0.00000  Uiso   1.00
H214   H     0.80228   0.95476   0.28087   0.00000  Uiso   1.00
H215   H     0.92986   0.36674   0.41455   0.00000  Uiso   1.00
H216   H     0.89266   0.42849   0.44355   0.00000  Uiso   1.00
H217   H     0.04114   0.27784   0.44834   0.00000  Uiso   1.00
H218   H     0.85294   0.34007   0.35190   0.00000  Uiso   1.00
H219   H     0.85599   0.58174   0.47551   0.00000  Uiso   1.00
H220   H     0.16906   0.26408   0.48560   0.00000  Uiso   1.00
H221   H     0.77221   0.39529   0.28223   0.00000  Uiso   1.00
O222   O     0.84721   0.91388   0.49389   0.00000  Uiso   1.00
O223   O     0.25794   0.49712   0.50712   0.00000  Uiso   1.00
O224   O     0.73727   0.66928   0.24030   0.00000  Uiso   1.00
N225   N     0.88409   0.00107   0.47049   0.00000  Uiso   1.00
N226   N     0.17679   0.70407   0.47992   0.00000  Uiso   1.00
N227   N     0.80577   0.82674   0.28979   0.00000  Uiso   1.00
N228   N     0.86790   0.70002   0.47122   0.00000  Uiso   1.00
N229   N     0.16060   0.40303   0.48065   0.00000  Uiso   1.00
N230   N     0.78959   0.52570   0.29052   0.00000  Uiso   1.00
C231   C     0.45694   0.37048   0.41333   0.00000  Uiso   1.00
C232   C     0.43290   0.33290   0.42926   0.00000  Uiso   1.00
C233   C     0.42171   0.46900   0.44224   0.00000  Uiso   1.00
C234   C     0.39979   0.40592   0.45573   0.00000  Uiso   1.00
C235   C     0.36406   0.37682   0.48041   0.00000  Uiso   1.00
C236   C     0.51357   0.25105   0.43186   0.00000  Uiso   1.00
C237   C     0.57021   0.31833   0.44704   0.00000  Uiso   1.00
C238   C     0.61620   0.18634   0.46272   0.00000  Uiso   1.00
C239   C     0.70571   0.03014   0.49142   0.00000  Uiso   1.00
C240   C     0.41132   0.28487   0.37946   0.00000  Uiso   1.00
C241   C     0.38198   0.38056   0.35058   0.00000  Uiso   1.00
C242   C     0.34189   0.27703   0.32214   0.00000  Uiso   1.00
C243   C     0.27263   0.17335   0.26948   0.00000  Uiso   1.00
C244   C     0.43791   0.01645   0.41419   0.00000  Uiso   1.00
C245   C     0.42257   0.14061   0.42972   0.00000  Uiso   1.00
C246   C     0.40065   0.07731   0.44319   0.00000  Uiso   1.00
C247   C     0.38943   0.21329   0.45620   0.00000  Uiso   1.00
C248   C     0.50324   0.05876   0.43233   0.00000  Uiso   1.00
C249   C     0.54915   0.92664   0.44799   0.00000  Uiso   1.00
C250   C     0.60584   0.99370   0.46318   0.00000  Uiso   1.00
C251   C     0.40098   0.09257   0.37993   0.00000  Uiso   1.00
C252   C     0.36093   0.98887   0.35153   0.00000  Uiso   1.00
C253   C     0.33153   0.08439   0.32260   0.00000  Uiso   1.00
H254   H     0.46499   0.52018   0.41297   0.00000  Uiso   1.00
H255   H     0.42972   0.61780   0.44188   0.00000  Uiso   1.00
H256   H     0.57819   0.46714   0.44667   0.00000  Uiso   1.00
H257   H     0.39000   0.52937   0.35023   0.00000  Uiso   1.00
H258   H     0.38607   0.64121   0.47415   0.00000  Uiso   1.00
H259   H     0.69914   0.32354   0.48424   0.00000  Uiso   1.00
H260   H     0.30228   0.45476   0.28087   0.00000  Uiso   1.00
H261   H     0.42986   0.86674   0.41455   0.00000  Uiso   1.00
H262   H     0.39266   0.92849   0.44355   0.00000  Uiso   1.00
H263   H     0.54114   0.77784   0.44834   0.00000  Uiso   1.00
H264   H     0.35294   0.84007   0.35190   0.00000  Uiso   1.00
H265   H     0.35599   0.08174   0.47551   0.00000  Uiso   1.00
H266   H     0.66906   0.76408   0.48560   0.00000  Uiso   1.00
H267   H     0.27221   0.89529   0.28223   0.00000  Uiso   1.00
O268   O     0.34721   0.41388   0.49389   0.00000  Uiso   1.00
O269   O     0.75794   0.99712   0.50712   0.00000  Uiso   1.00
O270   O     0.23727   0.16928   0.24030   0.00000  Uiso   1.00
N271   N     0.38409   0.50107   0.47049   0.00000  Uiso   1.00
N272   N     0.67679   0.20407   0.47992   0.00000  Uiso   1.00
N273   N     0.30577   0.32674   0.28979   0.00000  Uiso   1.00
N274   N     0.36790   0.20002   0.47122   0.00000  Uiso   1.00
N275   N     0.66060   0.90303   0.48065   0.00000  Uiso   1.00
N276   N     0.28959   0.02570   0.29052   0.00000  Uiso   1.00
C277   C     0.04306   0.87048   0.08667   0.00000  Uiso   1.00
C278   C     0.06710   0.83290   0.07074   0.00000  Uiso   1.00
C279   C     0.07829   0.96900   0.05776   0.00000  Uiso   1.00
C280   C     0.10021   0.90592   0.04427   0.00000  Uiso   1.00
C281   C     0.13594   0.87682   0.01959   0.00000  Uiso   1.00
C282   C     0.98643   0.75105   0.06814   0.00000  Uiso   1.00
C283   C     0.92979   0.81833   0.05296   0.00000  Uiso   1.00
C284   C     0.88380   0.68634   0.03728   0.00000  Uiso   1.00
C285   C     0.79429   0.53014   0.00858   0.00000  Uiso   1.00
C286   C     0.08868   0.78487   0.12054   0.00000  Uiso   1.00
C287   C     0.11802   0.88056   0.14942   0.00000  Uiso   1.00
C288   C     0.15811   0.77703   0.17786   0.00000  Uiso   1.00
C289   C     0.22737   0.67335   0.23052   0.00000  Uiso   1.00
C290   C     0.06209   0.51645   0.08581   0.00000  Uiso   1.00
C291   C     0.07743   0.64061   0.07028   0.00000  Uiso   1.00
C292   C     0.09935   0.57731   0.05681   0.00000  Uiso   1.00
C293   C     0.11057   0.71329   0.04380   0.00000  Uiso   1.00
C294   C     0.99676   0.55876   0.06767   0.00000  Uiso   1.00
C295   C     0.95085   0.42664   0.05201   0.00000  Uiso   1.00
C296   C     0.89416   0.49370   0.03682   0.00000  Uiso   1.00
C297   C     0.09902   0.59257   0.12007   0.00000  Uiso   1.00
C298   C     0.13907   0.48887   0.14847   0.00000  Uiso   1.00
C299   C     0.16847   0.58439   0.17740   0.00000  Uiso   1.00
H300   H     0.03501   0.02018   0.08703   0.00000  Uiso   1.00
H301   H     0.07028   0.11780   0.05812   0.00000  Uiso   1.00
H302   H     0.92181   0.96714   0.05333   0.00000  Uiso   1.00
H303   H     0.11000   0.02937   0.14977   0.00000  Uiso   1.00
H304   H     0.11393   0.14121   0.02585   0.00000  Uiso   1.00
H305   H     0.80086   0.82354   0.01576   0.00000  Uiso   1.00
H306   H     0.19772   0.95476   0.21913   0.00000  Uiso   1.00
H307   H     0.07014   0.36674   0.08545   0.00000  Uiso   1.00
H308   H     0.10734   0.42849   0.05645   0.00000  Uiso   1.00
H309   H     0.95886   0.27784   0.05166   0.00000  Uiso   1.00
H310   H     0.14706   0.34007   0.14810   0.00000  Uiso   1.00
H311   H     0.14401   0.58174   0.02449   0.00000  Uiso   1.00
H312   H     0.83094   0.26408   0.01440   0.00000  Uiso   1.00
H313   H     0.22779   0.39529   0.21777   0.00000  Uiso   1.00
O314   O     0.15279   0.91388   0.00611   0.00000  Uiso   1.00
O315   O     0.74206   0.49712   0.99288   0.00000  Uiso   1.00
O316   O     0.26273   0.66928   0.25970   0.00000  Uiso   1.00
N317   N     0.11591   0.00107   0.02951   0.00000  Uiso   1.00
N318   N     0.82321   0.70407   0.02008   0.00000  Uiso   1.00
N319   N     0.19423   0.82674   0.21021   0.00000  Uiso   1.00
N320   N     0.13210   0.70002   0.02878   0.00000  Uiso   1.00
N321   N     0.83940   0.40303   0.01935   0.00000  Uiso   1.00
N322   N     0.21041   0.52570   0.20948   0.00000  Uiso   1.00
C323   C     0.54306   0.37048   0.08667   0.00000  Uiso   1.00
C324   C     0.56710   0.33290   0.07074   0.00000  Uiso   1.00
C325   C     0.57829   0.46900   0.05776   0.00000  Uiso   1.00
C326   C     0.60021   0.40592   0.04427   0.00000  Uiso   1.00
C327   C     0.63594   0.37682   0.01959   0.00000  Uiso   1.00
C328   C     0.48643   0.25105   0.06814   0.00000  Uiso   1.00
C329   C     0.42979   0.31833   0.05296   0.00000  Uiso   1.00
C330   C     0.38380   0.18634   0.03728   0.00000  Uiso   1.00
C331   C     0.29429   0.03014   0.00858   0.00000  Uiso   1.00
C332   C     0.58868   0.28487   0.12054   0.00000  Uiso   1.00
C333   C     0.61802   0.38056   0.14942   0.00000  Uiso   1.00
C334   C     0.65811   0.27703   0.17786   0.00000  Uiso   1.00
C335   C     0.72737   0.17335   0.23052   0.00000  Uiso   1.00
C336   C     0.56209   0.01645   0.08581   0.00000  Uiso   1.00
C337   C     0.57743   0.14061   0.07028   0.00000  Uiso   1.00
C338   C     0.59935   0.07731   0.05681   0.00000  Uiso   1.00
C339   C     0.61057   0.21329   0.04380   0.00000  Uiso   1.00
C340   C     0.49676   0.05876   0.06767   0.00000  Uiso   1.00
C341   C     0.45085   0.92664   0.05201   0.00000  Uiso   1.00
C342   C     0.39416   0.99370   0.03682   0.00000  Uiso   1.00
C343   C     0.59902   0.09257   0.12007   0.00000  Uiso   1.00
C344   C     0.63907   0.98887   0.14847   0.00000  Uiso   1.00
C345   C     0.66847   0.08439   0.17740   0.00000  Uiso   1.00
H346   H     0.53501   0.52018   0.08703   0.00000  Uiso   1.00
H347   H     0.57028   0.61780   0.05812   0.00000  Uiso   1.00
H348   H     0.42181   0.46714   0.05333   0.00000  Uiso   1.00
H349   H     0.61000   0.52937   0.14977   0.00000  Uiso   1.00
H350   H     0.61393   0.64121   0.02585   0.00000  Uiso   1.00
H351   H     0.30086   0.32354   0.01576   0.00000  Uiso   1.00
H352   H     0.69772   0.45476   0.21913   0.00000  Uiso   1.00
H353   H     0.57014   0.86674   0.08545   0.00000  Uiso   1.00
H354   H     0.60734   0.92849   0.05645   0.00000  Uiso   1.00
H355   H     0.45886   0.77784   0.05166   0.00000  Uiso   1.00
H356   H     0.64706   0.84007   0.14810   0.00000  Uiso   1.00
H357   H     0.64401   0.08174   0.02449   0.00000  Uiso   1.00
H358   H     0.33094   0.76408   0.01440   0.00000  Uiso   1.00
H359   H     0.72779   0.89529   0.21777   0.00000  Uiso   1.00
O360   O     0.65279   0.41388   0.00611   0.00000  Uiso   1.00
O361   O     0.24206   0.99712   0.99288   0.00000  Uiso   1.00
O362   O     0.76273   0.16928   0.25970   0.00000  Uiso   1.00
N363   N     0.61591   0.50107   0.02951   0.00000  Uiso   1.00
N364   N     0.32321   0.20407   0.02008   0.00000  Uiso   1.00
N365   N     0.69423   0.32674   0.21021   0.00000  Uiso   1.00
N366   N     0.63210   0.20002   0.02878   0.00000  Uiso   1.00
N367   N     0.33940   0.90303   0.01935   0.00000  Uiso   1.00
N368   N     0.71041   0.02570   0.20948   0.00000  Uiso   1.00
