data_job_02760
_audit_creation_date              2018-12-19
_audit_creation_method            'Materials Studio'
_symmetry_space_group_name_H-M    'P1'
_symmetry_Int_Tables_number       1
_symmetry_cell_setting            triclinic
loop_
_symmetry_equiv_pos_as_xyz
  x,y,z
_cell_length_a                    12.0073
_cell_length_b                    16.9764
_cell_length_c                    14.2560
_cell_angle_alpha                 90.0000
_cell_angle_beta                  76.2157
_cell_angle_gamma                 90.0000
loop_
_atom_site_label
_atom_site_type_symbol
_atom_site_fract_x
_atom_site_fract_y
_atom_site_fract_z
_atom_site_U_iso_or_equiv
_atom_site_adp_type
_atom_site_occupancy
C1     C     0.83426   0.26706   0.99763   0.00000  Uiso   1.00
C2     C     0.73622   0.20858   0.02997   0.00000  Uiso   1.00
C3     C     0.64143   0.20134   0.99076   0.00000  Uiso   1.00
C4     C     0.56120   0.14426   0.03045   0.00000  Uiso   1.00
C5     C     0.40678   0.06079   0.06911   0.00000  Uiso   1.00
C6     C     0.84074   0.31396   0.08741   0.00000  Uiso   1.00
C7     C     0.83385   0.39531   0.09649   0.00000  Uiso   1.00
C8     C     0.84161   0.42693   0.18453   0.00000  Uiso   1.00
C9     C     0.84955   0.50706   0.31235   0.00000  Uiso   1.00
C10    C     0.94368   0.21800   0.97158   0.00000  Uiso   1.00
C11    C     0.02337   0.21870   0.88329   0.00000  Uiso   1.00
C12    C     0.11783   0.16954   0.87382   0.00000  Uiso   1.00
C13    C     0.28560   0.10070   0.82180   0.00000  Uiso   1.00
C14    C     0.86033   0.17856   0.13782   0.00000  Uiso   1.00
C15    C     0.75038   0.16051   0.10611   0.00000  Uiso   1.00
C16    C     0.67027   0.10342   0.14587   0.00000  Uiso   1.00
C17    C     0.57538   0.09610   0.10673   0.00000  Uiso   1.00
C18    C     0.85489   0.26589   0.16355   0.00000  Uiso   1.00
C19    C     0.86268   0.29739   0.25160   0.00000  Uiso   1.00
C20    C     0.85579   0.37877   0.26082   0.00000  Uiso   1.00
C21    C     0.95784   0.16993   0.04773   0.00000  Uiso   1.00
C22    C     0.05220   0.12077   0.03839   0.00000  Uiso   1.00
C23    C     0.13201   0.12139   0.95010   0.00000  Uiso   1.00
H24    H     0.82324   0.30449   0.93835   0.00000  Uiso   1.00
H25    H     0.63050   0.23856   0.93184   0.00000  Uiso   1.00
H26    H     0.82290   0.43250   0.03755   0.00000  Uiso   1.00
H27    H     0.01239   0.25591   0.82438   0.00000  Uiso   1.00
H28    H     0.42304   0.14428   0.95823   0.00000  Uiso   1.00
H29    H     0.82876   0.55321   0.18112   0.00000  Uiso   1.00
H30    H     0.22833   0.18084   0.73161   0.00000  Uiso   1.00
H31    H     0.87135   0.14113   0.19710   0.00000  Uiso   1.00
H32    H     0.68125   0.06623   0.20479   0.00000  Uiso   1.00
H33    H     0.87364   0.26017   0.31050   0.00000  Uiso   1.00
H34    H     0.06313   0.08358   0.09733   0.00000  Uiso   1.00
H35    H     0.46422   0.00441   0.17977   0.00000  Uiso   1.00
H36    H     0.86994   0.41335   0.40266   0.00000  Uiso   1.00
H37    H     0.26951   0.04097   0.95315   0.00000  Uiso   1.00
O38    O     0.31769   0.02804   0.06941   0.00000  Uiso   1.00
O39    O     0.85000   0.56455   0.36182   0.00000  Uiso   1.00
O40    O     0.37422   0.07600   0.77207   0.00000  Uiso   1.00
N41    N     0.45883   0.12163   0.00930   0.00000  Uiso   1.00
N42    N     0.83814   0.50396   0.21769   0.00000  Uiso   1.00
N43    N     0.21172   0.15584   0.79745   0.00000  Uiso   1.00
N44    N     0.48099   0.04637   0.12851   0.00000  Uiso   1.00
N45    N     0.86030   0.42870   0.33690   0.00000  Uiso   1.00
N46    N     0.23388   0.08057   0.91665   0.00000  Uiso   1.00
C47    C     0.16574   0.26706   0.50237   0.00000  Uiso   1.00
C48    C     0.26378   0.20858   0.47003   0.00000  Uiso   1.00
C49    C     0.35857   0.20134   0.50924   0.00000  Uiso   1.00
C50    C     0.43880   0.14426   0.46955   0.00000  Uiso   1.00
C51    C     0.59322   0.06079   0.43089   0.00000  Uiso   1.00
C52    C     0.15926   0.31396   0.41259   0.00000  Uiso   1.00
C53    C     0.16615   0.39531   0.40351   0.00000  Uiso   1.00
C54    C     0.15839   0.42693   0.31547   0.00000  Uiso   1.00
C55    C     0.15045   0.50706   0.18765   0.00000  Uiso   1.00
C56    C     0.05632   0.21800   0.52842   0.00000  Uiso   1.00
C57    C     0.97663   0.21870   0.61671   0.00000  Uiso   1.00
C58    C     0.88217   0.16954   0.62618   0.00000  Uiso   1.00
C59    C     0.71440   0.10070   0.67820   0.00000  Uiso   1.00
C60    C     0.13967   0.17856   0.36218   0.00000  Uiso   1.00
C61    C     0.24962   0.16051   0.39389   0.00000  Uiso   1.00
C62    C     0.32973   0.10342   0.35413   0.00000  Uiso   1.00
C63    C     0.42462   0.09610   0.39327   0.00000  Uiso   1.00
C64    C     0.14511   0.26589   0.33645   0.00000  Uiso   1.00
C65    C     0.13732   0.29739   0.24840   0.00000  Uiso   1.00
C66    C     0.14421   0.37877   0.23918   0.00000  Uiso   1.00
C67    C     0.04216   0.16993   0.45227   0.00000  Uiso   1.00
C68    C     0.94780   0.12077   0.46161   0.00000  Uiso   1.00
C69    C     0.86799   0.12139   0.54990   0.00000  Uiso   1.00
H70    H     0.17676   0.30449   0.56165   0.00000  Uiso   1.00
H71    H     0.36950   0.23856   0.56816   0.00000  Uiso   1.00
H72    H     0.17710   0.43250   0.46245   0.00000  Uiso   1.00
H73    H     0.98761   0.25591   0.67562   0.00000  Uiso   1.00
H74    H     0.57696   0.14428   0.54177   0.00000  Uiso   1.00
H75    H     0.17124   0.55321   0.31888   0.00000  Uiso   1.00
H76    H     0.77167   0.18084   0.76839   0.00000  Uiso   1.00
H77    H     0.12865   0.14113   0.30290   0.00000  Uiso   1.00
H78    H     0.31875   0.06623   0.29521   0.00000  Uiso   1.00
H79    H     0.12636   0.26017   0.18950   0.00000  Uiso   1.00
H80    H     0.93687   0.08358   0.40267   0.00000  Uiso   1.00
H81    H     0.53578   0.00441   0.32023   0.00000  Uiso   1.00
H82    H     0.13006   0.41335   0.09734   0.00000  Uiso   1.00
H83    H     0.73049   0.04097   0.54685   0.00000  Uiso   1.00
O84    O     0.68231   0.02804   0.43059   0.00000  Uiso   1.00
O85    O     0.15000   0.56455   0.13818   0.00000  Uiso   1.00
O86    O     0.62578   0.07600   0.72793   0.00000  Uiso   1.00
N87    N     0.54117   0.12163   0.49070   0.00000  Uiso   1.00
N88    N     0.16186   0.50396   0.28231   0.00000  Uiso   1.00
N89    N     0.78828   0.15584   0.70255   0.00000  Uiso   1.00
N90    N     0.51901   0.04637   0.37149   0.00000  Uiso   1.00
N91    N     0.13970   0.42870   0.16310   0.00000  Uiso   1.00
N92    N     0.76612   0.08057   0.58335   0.00000  Uiso   1.00
C93    C     0.16574   0.73294   0.00237   0.00000  Uiso   1.00
C94    C     0.26378   0.79142   0.97003   0.00000  Uiso   1.00
C95    C     0.35857   0.79866   0.00924   0.00000  Uiso   1.00
C96    C     0.43880   0.85574   0.96955   0.00000  Uiso   1.00
C97    C     0.59322   0.93921   0.93089   0.00000  Uiso   1.00
C98    C     0.15926   0.68604   0.91259   0.00000  Uiso   1.00
C99    C     0.16615   0.60469   0.90351   0.00000  Uiso   1.00
C100   C     0.15839   0.57307   0.81547   0.00000  Uiso   1.00
C101   C     0.15045   0.49294   0.68765   0.00000  Uiso   1.00
C102   C     0.05632   0.78200   0.02842   0.00000  Uiso   1.00
C103   C     0.97663   0.78130   0.11671   0.00000  Uiso   1.00
C104   C     0.88217   0.83046   0.12618   0.00000  Uiso   1.00
C105   C     0.71440   0.89930   0.17820   0.00000  Uiso   1.00
C106   C     0.13967   0.82144   0.86218   0.00000  Uiso   1.00
C107   C     0.24962   0.83949   0.89389   0.00000  Uiso   1.00
C108   C     0.32973   0.89658   0.85413   0.00000  Uiso   1.00
C109   C     0.42462   0.90390   0.89327   0.00000  Uiso   1.00
C110   C     0.14511   0.73411   0.83645   0.00000  Uiso   1.00
C111   C     0.13732   0.70261   0.74840   0.00000  Uiso   1.00
C112   C     0.14421   0.62123   0.73918   0.00000  Uiso   1.00
C113   C     0.04216   0.83007   0.95227   0.00000  Uiso   1.00
C114   C     0.94780   0.87923   0.96161   0.00000  Uiso   1.00
C115   C     0.86799   0.87861   0.04990   0.00000  Uiso   1.00
H116   H     0.17676   0.69551   0.06165   0.00000  Uiso   1.00
H117   H     0.36950   0.76144   0.06816   0.00000  Uiso   1.00
H118   H     0.17710   0.56750   0.96245   0.00000  Uiso   1.00
H119   H     0.98761   0.74409   0.17562   0.00000  Uiso   1.00
H120   H     0.57696   0.85572   0.04177   0.00000  Uiso   1.00
H121   H     0.17124   0.44679   0.81888   0.00000  Uiso   1.00
H122   H     0.77167   0.81916   0.26839   0.00000  Uiso   1.00
H123   H     0.12865   0.85887   0.80290   0.00000  Uiso   1.00
H124   H     0.31875   0.93377   0.79521   0.00000  Uiso   1.00
H125   H     0.12636   0.73983   0.68950   0.00000  Uiso   1.00
H126   H     0.93687   0.91642   0.90267   0.00000  Uiso   1.00
H127   H     0.53578   0.99559   0.82023   0.00000  Uiso   1.00
H128   H     0.13006   0.58665   0.59734   0.00000  Uiso   1.00
H129   H     0.73049   0.95903   0.04685   0.00000  Uiso   1.00
O130   O     0.68231   0.97196   0.93059   0.00000  Uiso   1.00
O131   O     0.15000   0.43545   0.63818   0.00000  Uiso   1.00
O132   O     0.62578   0.92400   0.22793   0.00000  Uiso   1.00
N133   N     0.54117   0.87837   0.99070   0.00000  Uiso   1.00
N134   N     0.16186   0.49604   0.78231   0.00000  Uiso   1.00
N135   N     0.78828   0.84416   0.20255   0.00000  Uiso   1.00
N136   N     0.51901   0.95363   0.87149   0.00000  Uiso   1.00
N137   N     0.13970   0.57130   0.66310   0.00000  Uiso   1.00
N138   N     0.76612   0.91943   0.08335   0.00000  Uiso   1.00
C139   C     0.83426   0.73294   0.49763   0.00000  Uiso   1.00
C140   C     0.73622   0.79142   0.52997   0.00000  Uiso   1.00
C141   C     0.64143   0.79866   0.49076   0.00000  Uiso   1.00
C142   C     0.56120   0.85574   0.53045   0.00000  Uiso   1.00
C143   C     0.40678   0.93921   0.56911   0.00000  Uiso   1.00
C144   C     0.84074   0.68604   0.58741   0.00000  Uiso   1.00
C145   C     0.83385   0.60469   0.59649   0.00000  Uiso   1.00
C146   C     0.84161   0.57307   0.68453   0.00000  Uiso   1.00
C147   C     0.84955   0.49294   0.81235   0.00000  Uiso   1.00
C148   C     0.94368   0.78200   0.47158   0.00000  Uiso   1.00
C149   C     0.02337   0.78130   0.38329   0.00000  Uiso   1.00
C150   C     0.11783   0.83046   0.37382   0.00000  Uiso   1.00
C151   C     0.28560   0.89930   0.32180   0.00000  Uiso   1.00
C152   C     0.86033   0.82144   0.63782   0.00000  Uiso   1.00
C153   C     0.75038   0.83949   0.60611   0.00000  Uiso   1.00
C154   C     0.67027   0.89658   0.64587   0.00000  Uiso   1.00
C155   C     0.57538   0.90390   0.60673   0.00000  Uiso   1.00
C156   C     0.85489   0.73411   0.66355   0.00000  Uiso   1.00
C157   C     0.86268   0.70261   0.75160   0.00000  Uiso   1.00
C158   C     0.85579   0.62123   0.76082   0.00000  Uiso   1.00
C159   C     0.95784   0.83007   0.54773   0.00000  Uiso   1.00
C160   C     0.05220   0.87923   0.53839   0.00000  Uiso   1.00
C161   C     0.13201   0.87861   0.45010   0.00000  Uiso   1.00
H162   H     0.82324   0.69551   0.43835   0.00000  Uiso   1.00
H163   H     0.63050   0.76144   0.43184   0.00000  Uiso   1.00
H164   H     0.82290   0.56750   0.53755   0.00000  Uiso   1.00
H165   H     0.01239   0.74409   0.32438   0.00000  Uiso   1.00
H166   H     0.42304   0.85572   0.45823   0.00000  Uiso   1.00
H167   H     0.82876   0.44679   0.68112   0.00000  Uiso   1.00
H168   H     0.22833   0.81916   0.23161   0.00000  Uiso   1.00
H169   H     0.87135   0.85887   0.69710   0.00000  Uiso   1.00
H170   H     0.68125   0.93377   0.70479   0.00000  Uiso   1.00
H171   H     0.87364   0.73983   0.81050   0.00000  Uiso   1.00
H172   H     0.06313   0.91642   0.59733   0.00000  Uiso   1.00
H173   H     0.46422   0.99559   0.67977   0.00000  Uiso   1.00
H174   H     0.86994   0.58665   0.90266   0.00000  Uiso   1.00
H175   H     0.26951   0.95903   0.45315   0.00000  Uiso   1.00
O176   O     0.31769   0.97196   0.56941   0.00000  Uiso   1.00
O177   O     0.85000   0.43545   0.86182   0.00000  Uiso   1.00
O178   O     0.37422   0.92400   0.27207   0.00000  Uiso   1.00
N179   N     0.45883   0.87837   0.50930   0.00000  Uiso   1.00
N180   N     0.83814   0.49604   0.71769   0.00000  Uiso   1.00
N181   N     0.21172   0.84416   0.29745   0.00000  Uiso   1.00
N182   N     0.48099   0.95363   0.62851   0.00000  Uiso   1.00
N183   N     0.86030   0.57130   0.83690   0.00000  Uiso   1.00
N184   N     0.23388   0.91943   0.41665   0.00000  Uiso   1.00
