data_job_04821
_audit_creation_date              2018-12-19
_audit_creation_method            'Materials Studio'
_symmetry_space_group_name_H-M    'P1'
_symmetry_Int_Tables_number       1
_symmetry_cell_setting            triclinic
loop_
_symmetry_equiv_pos_as_xyz
  x,y,z
_cell_length_a                    9.6647
_cell_length_b                    12.4409
_cell_length_c                    23.0420
_cell_angle_alpha                 90.0000
_cell_angle_beta                  107.6880
_cell_angle_gamma                 90.0000
loop_
_atom_site_label
_atom_site_type_symbol
_atom_site_fract_x
_atom_site_fract_y
_atom_site_fract_z
_atom_site_U_iso_or_equiv
_atom_site_adp_type
_atom_site_occupancy
C1     C     0.68995   0.67328   0.91101   0.00000  Uiso   1.00
C2     C     0.70215   0.76017   0.86615   0.00000  Uiso   1.00
C3     C     0.75677   0.74596   0.81750   0.00000  Uiso   1.00
C4     C     0.75875   0.83548   0.78178   0.00000  Uiso   1.00
C5     C     0.78550   0.95519   0.71022   0.00000  Uiso   1.00
C6     C     0.77302   0.71541   0.97414   0.00000  Uiso   1.00
C7     C     0.88722   0.66356   0.01629   0.00000  Uiso   1.00
C8     C     0.94884   0.71540   0.07149   0.00000  Uiso   1.00
C9     C     0.08554   0.76559   0.16761   0.00000  Uiso   1.00
C10    C     0.53054   0.67051   0.90857   0.00000  Uiso   1.00
C11    C     0.44085   0.58090   0.89561   0.00000  Uiso   1.00
C12    C     0.29833   0.59493   0.89561   0.00000  Uiso   1.00
C13    C     0.05855   0.57540   0.88993   0.00000  Uiso   1.00
C14    C     0.59634   0.85752   0.93408   0.00000  Uiso   1.00
C15    C     0.65131   0.86025   0.87868   0.00000  Uiso   1.00
C16    C     0.65320   0.94981   0.84302   0.00000  Uiso   1.00
C17    C     0.70781   0.93573   0.79433   0.00000  Uiso   1.00
C18    C     0.72218   0.81549   0.98667   0.00000  Uiso   1.00
C19    C     0.78364   0.86741   0.04182   0.00000  Uiso   1.00
C20    C     0.89790   0.81566   0.08404   0.00000  Uiso   1.00
C21    C     0.47969   0.77059   0.92110   0.00000  Uiso   1.00
C22    C     0.33728   0.78475   0.92113   0.00000  Uiso   1.00
C23    C     0.24739   0.69519   0.90817   0.00000  Uiso   1.00
H24    H     0.72954   0.59536   0.90126   0.00000  Uiso   1.00
H25    H     0.79613   0.66850   0.80782   0.00000  Uiso   1.00
H26    H     0.92653   0.58612   0.00658   0.00000  Uiso   1.00
H27    H     0.48024   0.50347   0.88591   0.00000  Uiso   1.00
H28    H     0.84757   0.79373   0.70976   0.00000  Uiso   1.00
H29    H     0.12251   0.62000   0.12888   0.00000  Uiso   1.00
H30    H     0.18142   0.44572   0.87442   0.00000  Uiso   1.00
H31    H     0.55675   0.93544   0.94384   0.00000  Uiso   1.00
H32    H     0.61384   0.02724   0.85273   0.00000  Uiso   1.00
H33    H     0.74426   0.94485   0.05150   0.00000  Uiso   1.00
H34    H     0.29797   0.86221   0.93083   0.00000  Uiso   1.00
H35    H     0.69963   0.08490   0.74622   0.00000  Uiso   1.00
H36    H     0.97457   0.91116   0.16533   0.00000  Uiso   1.00
H37    H     0.03348   0.73689   0.91088   0.00000  Uiso   1.00
O38    O     0.81432   0.99358   0.66730   0.00000  Uiso   1.00
O39    O     0.17501   0.76563   0.21716   0.00000  Uiso   1.00
O40    O     0.94033   0.53699   0.88332   0.00000  Uiso   1.00
N41    N     0.80489   0.84966   0.73084   0.00000  Uiso   1.00
N42    N     0.06196   0.68723   0.12268   0.00000  Uiso   1.00
N43    N     0.18213   0.52429   0.88480   0.00000  Uiso   1.00
N44    N     0.72528   0.00633   0.75045   0.00000  Uiso   1.00
N45    N     0.98235   0.84391   0.14230   0.00000  Uiso   1.00
N46    N     0.10252   0.68097   0.90442   0.00000  Uiso   1.00
C47    C     0.31005   0.67328   0.58899   0.00000  Uiso   1.00
C48    C     0.29785   0.76017   0.63385   0.00000  Uiso   1.00
C49    C     0.24323   0.74596   0.68250   0.00000  Uiso   1.00
C50    C     0.24125   0.83548   0.71822   0.00000  Uiso   1.00
C51    C     0.21450   0.95519   0.78978   0.00000  Uiso   1.00
C52    C     0.22698   0.71541   0.52586   0.00000  Uiso   1.00
C53    C     0.11278   0.66356   0.48371   0.00000  Uiso   1.00
C54    C     0.05116   0.71540   0.42851   0.00000  Uiso   1.00
C55    C     0.91446   0.76559   0.33239   0.00000  Uiso   1.00
C56    C     0.46946   0.67051   0.59143   0.00000  Uiso   1.00
C57    C     0.55915   0.58090   0.60439   0.00000  Uiso   1.00
C58    C     0.70167   0.59493   0.60439   0.00000  Uiso   1.00
C59    C     0.94145   0.57540   0.61007   0.00000  Uiso   1.00
C60    C     0.40366   0.85752   0.56592   0.00000  Uiso   1.00
C61    C     0.34869   0.86025   0.62132   0.00000  Uiso   1.00
C62    C     0.34680   0.94981   0.65698   0.00000  Uiso   1.00
C63    C     0.29219   0.93573   0.70567   0.00000  Uiso   1.00
C64    C     0.27782   0.81549   0.51333   0.00000  Uiso   1.00
C65    C     0.21636   0.86741   0.45818   0.00000  Uiso   1.00
C66    C     0.10210   0.81566   0.41596   0.00000  Uiso   1.00
C67    C     0.52031   0.77059   0.57890   0.00000  Uiso   1.00
C68    C     0.66272   0.78475   0.57887   0.00000  Uiso   1.00
C69    C     0.75261   0.69519   0.59183   0.00000  Uiso   1.00
H70    H     0.27046   0.59536   0.59874   0.00000  Uiso   1.00
H71    H     0.20387   0.66850   0.69218   0.00000  Uiso   1.00
H72    H     0.07347   0.58612   0.49342   0.00000  Uiso   1.00
H73    H     0.51976   0.50347   0.61409   0.00000  Uiso   1.00
H74    H     0.15243   0.79373   0.79024   0.00000  Uiso   1.00
H75    H     0.87749   0.62000   0.37112   0.00000  Uiso   1.00
H76    H     0.81858   0.44572   0.62558   0.00000  Uiso   1.00
H77    H     0.44325   0.93544   0.55616   0.00000  Uiso   1.00
H78    H     0.38616   0.02724   0.64727   0.00000  Uiso   1.00
H79    H     0.25574   0.94485   0.44850   0.00000  Uiso   1.00
H80    H     0.70203   0.86221   0.56917   0.00000  Uiso   1.00
H81    H     0.30037   0.08490   0.75378   0.00000  Uiso   1.00
H82    H     0.02543   0.91116   0.33467   0.00000  Uiso   1.00
H83    H     0.96652   0.73689   0.58912   0.00000  Uiso   1.00
O84    O     0.18568   0.99358   0.83270   0.00000  Uiso   1.00
O85    O     0.82499   0.76563   0.28284   0.00000  Uiso   1.00
O86    O     0.05967   0.53699   0.61668   0.00000  Uiso   1.00
N87    N     0.19511   0.84966   0.76916   0.00000  Uiso   1.00
N88    N     0.93804   0.68723   0.37732   0.00000  Uiso   1.00
N89    N     0.81787   0.52429   0.61520   0.00000  Uiso   1.00
N90    N     0.27472   0.00633   0.74955   0.00000  Uiso   1.00
N91    N     0.01765   0.84391   0.35770   0.00000  Uiso   1.00
N92    N     0.89748   0.68097   0.59558   0.00000  Uiso   1.00
C93    C     0.31005   0.32672   0.08899   0.00000  Uiso   1.00
C94    C     0.29785   0.23983   0.13385   0.00000  Uiso   1.00
C95    C     0.24323   0.25404   0.18250   0.00000  Uiso   1.00
C96    C     0.24125   0.16452   0.21822   0.00000  Uiso   1.00
C97    C     0.21450   0.04481   0.28978   0.00000  Uiso   1.00
C98    C     0.22698   0.28459   0.02586   0.00000  Uiso   1.00
C99    C     0.11278   0.33644   0.98371   0.00000  Uiso   1.00
C100   C     0.05116   0.28460   0.92851   0.00000  Uiso   1.00
C101   C     0.91446   0.23441   0.83239   0.00000  Uiso   1.00
C102   C     0.46946   0.32949   0.09143   0.00000  Uiso   1.00
C103   C     0.55915   0.41910   0.10439   0.00000  Uiso   1.00
C104   C     0.70167   0.40507   0.10439   0.00000  Uiso   1.00
C105   C     0.94145   0.42460   0.11007   0.00000  Uiso   1.00
C106   C     0.40366   0.14248   0.06592   0.00000  Uiso   1.00
C107   C     0.34869   0.13975   0.12132   0.00000  Uiso   1.00
C108   C     0.34680   0.05019   0.15698   0.00000  Uiso   1.00
C109   C     0.29219   0.06427   0.20567   0.00000  Uiso   1.00
C110   C     0.27782   0.18451   0.01333   0.00000  Uiso   1.00
C111   C     0.21636   0.13259   0.95818   0.00000  Uiso   1.00
C112   C     0.10210   0.18434   0.91596   0.00000  Uiso   1.00
C113   C     0.52031   0.22941   0.07890   0.00000  Uiso   1.00
C114   C     0.66272   0.21525   0.07887   0.00000  Uiso   1.00
C115   C     0.75261   0.30481   0.09183   0.00000  Uiso   1.00
H116   H     0.27046   0.40464   0.09874   0.00000  Uiso   1.00
H117   H     0.20387   0.33150   0.19218   0.00000  Uiso   1.00
H118   H     0.07347   0.41388   0.99342   0.00000  Uiso   1.00
H119   H     0.51976   0.49653   0.11409   0.00000  Uiso   1.00
H120   H     0.15243   0.20627   0.29024   0.00000  Uiso   1.00
H121   H     0.87749   0.38000   0.87112   0.00000  Uiso   1.00
H122   H     0.81858   0.55428   0.12558   0.00000  Uiso   1.00
H123   H     0.44325   0.06456   0.05616   0.00000  Uiso   1.00
H124   H     0.38616   0.97276   0.14727   0.00000  Uiso   1.00
H125   H     0.25574   0.05515   0.94850   0.00000  Uiso   1.00
H126   H     0.70203   0.13779   0.06917   0.00000  Uiso   1.00
H127   H     0.30037   0.91510   0.25378   0.00000  Uiso   1.00
H128   H     0.02543   0.08884   0.83467   0.00000  Uiso   1.00
H129   H     0.96652   0.26311   0.08912   0.00000  Uiso   1.00
O130   O     0.18568   0.00642   0.33270   0.00000  Uiso   1.00
O131   O     0.82499   0.23437   0.78284   0.00000  Uiso   1.00
O132   O     0.05967   0.46301   0.11668   0.00000  Uiso   1.00
N133   N     0.19511   0.15034   0.26916   0.00000  Uiso   1.00
N134   N     0.93804   0.31277   0.87732   0.00000  Uiso   1.00
N135   N     0.81787   0.47571   0.11520   0.00000  Uiso   1.00
N136   N     0.27472   0.99367   0.24955   0.00000  Uiso   1.00
N137   N     0.01765   0.15609   0.85770   0.00000  Uiso   1.00
N138   N     0.89748   0.31903   0.09558   0.00000  Uiso   1.00
C139   C     0.68995   0.32672   0.41101   0.00000  Uiso   1.00
C140   C     0.70215   0.23983   0.36615   0.00000  Uiso   1.00
C141   C     0.75677   0.25404   0.31750   0.00000  Uiso   1.00
C142   C     0.75875   0.16452   0.28178   0.00000  Uiso   1.00
C143   C     0.78550   0.04481   0.21022   0.00000  Uiso   1.00
C144   C     0.77302   0.28459   0.47414   0.00000  Uiso   1.00
C145   C     0.88722   0.33644   0.51629   0.00000  Uiso   1.00
C146   C     0.94884   0.28460   0.57149   0.00000  Uiso   1.00
C147   C     0.08554   0.23441   0.66761   0.00000  Uiso   1.00
C148   C     0.53054   0.32949   0.40857   0.00000  Uiso   1.00
C149   C     0.44085   0.41910   0.39561   0.00000  Uiso   1.00
C150   C     0.29833   0.40507   0.39561   0.00000  Uiso   1.00
C151   C     0.05855   0.42460   0.38993   0.00000  Uiso   1.00
C152   C     0.59634   0.14248   0.43408   0.00000  Uiso   1.00
C153   C     0.65131   0.13975   0.37868   0.00000  Uiso   1.00
C154   C     0.65320   0.05019   0.34302   0.00000  Uiso   1.00
C155   C     0.70781   0.06427   0.29433   0.00000  Uiso   1.00
C156   C     0.72218   0.18451   0.48667   0.00000  Uiso   1.00
C157   C     0.78364   0.13259   0.54182   0.00000  Uiso   1.00
C158   C     0.89790   0.18434   0.58404   0.00000  Uiso   1.00
C159   C     0.47969   0.22941   0.42110   0.00000  Uiso   1.00
C160   C     0.33728   0.21525   0.42113   0.00000  Uiso   1.00
C161   C     0.24739   0.30481   0.40817   0.00000  Uiso   1.00
H162   H     0.72954   0.40464   0.40126   0.00000  Uiso   1.00
H163   H     0.79613   0.33150   0.30782   0.00000  Uiso   1.00
H164   H     0.92653   0.41388   0.50658   0.00000  Uiso   1.00
H165   H     0.48024   0.49653   0.38591   0.00000  Uiso   1.00
H166   H     0.84757   0.20627   0.20976   0.00000  Uiso   1.00
H167   H     0.12251   0.38000   0.62888   0.00000  Uiso   1.00
H168   H     0.18142   0.55428   0.37442   0.00000  Uiso   1.00
H169   H     0.55675   0.06456   0.44384   0.00000  Uiso   1.00
H170   H     0.61384   0.97276   0.35273   0.00000  Uiso   1.00
H171   H     0.74426   0.05515   0.55150   0.00000  Uiso   1.00
H172   H     0.29797   0.13779   0.43083   0.00000  Uiso   1.00
H173   H     0.69963   0.91510   0.24622   0.00000  Uiso   1.00
H174   H     0.97457   0.08884   0.66533   0.00000  Uiso   1.00
H175   H     0.03348   0.26311   0.41088   0.00000  Uiso   1.00
O176   O     0.81432   0.00642   0.16730   0.00000  Uiso   1.00
O177   O     0.17501   0.23437   0.71716   0.00000  Uiso   1.00
O178   O     0.94033   0.46301   0.38332   0.00000  Uiso   1.00
N179   N     0.80489   0.15034   0.23084   0.00000  Uiso   1.00
N180   N     0.06196   0.31277   0.62268   0.00000  Uiso   1.00
N181   N     0.18213   0.47571   0.38480   0.00000  Uiso   1.00
N182   N     0.72528   0.99367   0.25045   0.00000  Uiso   1.00
N183   N     0.98235   0.15609   0.64230   0.00000  Uiso   1.00
N184   N     0.10252   0.31903   0.40442   0.00000  Uiso   1.00
