data_job_01328
_audit_creation_date              2018-12-19
_audit_creation_method            'Materials Studio'
_symmetry_space_group_name_H-M    'P1'
_symmetry_Int_Tables_number       1
_symmetry_cell_setting            triclinic
loop_
_symmetry_equiv_pos_as_xyz
  x,y,z
_cell_length_a                    22.2119
_cell_length_b                    9.9701
_cell_length_c                    20.9978
_cell_angle_alpha                 90.0000
_cell_angle_beta                  39.7964
_cell_angle_gamma                 90.0000
loop_
_atom_site_label
_atom_site_type_symbol
_atom_site_fract_x
_atom_site_fract_y
_atom_site_fract_z
_atom_site_U_iso_or_equiv
_atom_site_adp_type
_atom_site_occupancy
C1     C     0.70364   0.00109   0.55187   0.00000  Uiso   1.00
C2     C     0.77874   0.07878   0.52728   0.00000  Uiso   1.00
C3     C     0.78513   0.08945   0.58784   0.00000  Uiso   1.00
C4     C     0.85898   0.16511   0.55192   0.00000  Uiso   1.00
C5     C     0.96566   0.27626   0.52792   0.00000  Uiso   1.00
C6     C     0.65785   0.10170   0.54401   0.00000  Uiso   1.00
C7     C     0.56260   0.13162   0.61864   0.00000  Uiso   1.00
C8     C     0.53470   0.22657   0.59679   0.00000  Uiso   1.00
C9     C     0.45370   0.37323   0.59875   0.00000  Uiso   1.00
C10    C     0.75641   0.90191   0.46680   0.00000  Uiso   1.00
C11    C     0.74402   0.76383   0.47650   0.00000  Uiso   1.00
C12    C     0.79908   0.69057   0.38965   0.00000  Uiso   1.00
C13    C     0.87111   0.52702   0.27173   0.00000  Uiso   1.00
C14    C     0.82343   0.11651   0.38037   0.00000  Uiso   1.00
C15    C     0.84380   0.14147   0.43413   0.00000  Uiso   1.00
C16    C     0.91767   0.21714   0.39810   0.00000  Uiso   1.00
C17    C     0.92417   0.22791   0.45860   0.00000  Uiso   1.00
C18    C     0.72292   0.16439   0.45087   0.00000  Uiso   1.00
C19    C     0.69515   0.25931   0.42890   0.00000  Uiso   1.00
C20    C     0.59988   0.28937   0.50347   0.00000  Uiso   1.00
C21    C     0.82149   0.96459   0.37365   0.00000  Uiso   1.00
C22    C     0.87657   0.89153   0.28676   0.00000  Uiso   1.00
C23    C     0.86427   0.75337   0.29633   0.00000  Uiso   1.00
H24    H     0.65298   0.95229   0.62439   0.00000  Uiso   1.00
H25    H     0.73475   0.04093   0.65993   0.00000  Uiso   1.00
H26    H     0.51227   0.08309   0.69071   0.00000  Uiso   1.00
H27    H     0.69366   0.71536   0.54860   0.00000  Uiso   1.00
H28    H     0.85409   0.16688   0.65826   0.00000  Uiso   1.00
H29    H     0.38497   0.25574   0.72316   0.00000  Uiso   1.00
H30    H     0.76746   0.48031   0.42349   0.00000  Uiso   1.00
H31    H     0.87409   0.16531   0.30785   0.00000  Uiso   1.00
H32    H     0.96801   0.26564   0.32601   0.00000  Uiso   1.00
H33    H     0.74552   0.30780   0.35680   0.00000  Uiso   1.00
H34    H     0.92691   0.94007   0.21469   0.00000  Uiso   1.00
H35    H     0.04341   0.34927   0.38725   0.00000  Uiso   1.00
H36    H     0.57428   0.43812   0.45215   0.00000  Uiso   1.00
H37    H     0.95678   0.66270   0.15248   0.00000  Uiso   1.00
O38    O     0.00652   0.32026   0.54043   0.00000  Uiso   1.00
O39    O     0.39104   0.43682   0.62558   0.00000  Uiso   1.00
O40    O     0.89288   0.41948   0.23242   0.00000  Uiso   1.00
N41    N     0.88577   0.19602   0.59197   0.00000  Uiso   1.00
N42    N     0.44717   0.27911   0.65266   0.00000  Uiso   1.00
N43    N     0.80475   0.55415   0.37250   0.00000  Uiso   1.00
N44    N     0.98764   0.29416   0.44614   0.00000  Uiso   1.00
N45    N     0.54904   0.37725   0.50683   0.00000  Uiso   1.00
N46    N     0.90662   0.65229   0.22667   0.00000  Uiso   1.00
C47    C     0.29636   0.00109   0.94813   0.00000  Uiso   1.00
C48    C     0.22126   0.07878   0.97272   0.00000  Uiso   1.00
C49    C     0.21487   0.08945   0.91216   0.00000  Uiso   1.00
C50    C     0.14102   0.16511   0.94808   0.00000  Uiso   1.00
C51    C     0.03434   0.27626   0.97208   0.00000  Uiso   1.00
C52    C     0.34215   0.10170   0.95599   0.00000  Uiso   1.00
C53    C     0.43740   0.13162   0.88136   0.00000  Uiso   1.00
C54    C     0.46530   0.22657   0.90321   0.00000  Uiso   1.00
C55    C     0.54630   0.37323   0.90125   0.00000  Uiso   1.00
C56    C     0.24359   0.90191   0.03320   0.00000  Uiso   1.00
C57    C     0.25598   0.76383   0.02350   0.00000  Uiso   1.00
C58    C     0.20092   0.69057   0.11035   0.00000  Uiso   1.00
C59    C     0.12889   0.52702   0.22827   0.00000  Uiso   1.00
C60    C     0.17657   0.11651   0.11963   0.00000  Uiso   1.00
C61    C     0.15620   0.14147   0.06587   0.00000  Uiso   1.00
C62    C     0.08233   0.21714   0.10190   0.00000  Uiso   1.00
C63    C     0.07583   0.22791   0.04140   0.00000  Uiso   1.00
C64    C     0.27708   0.16439   0.04913   0.00000  Uiso   1.00
C65    C     0.30485   0.25931   0.07110   0.00000  Uiso   1.00
C66    C     0.40012   0.28937   0.99653   0.00000  Uiso   1.00
C67    C     0.17851   0.96459   0.12635   0.00000  Uiso   1.00
C68    C     0.12343   0.89153   0.21324   0.00000  Uiso   1.00
C69    C     0.13573   0.75337   0.20367   0.00000  Uiso   1.00
H70    H     0.34702   0.95229   0.87561   0.00000  Uiso   1.00
H71    H     0.26525   0.04093   0.84007   0.00000  Uiso   1.00
H72    H     0.48773   0.08309   0.80929   0.00000  Uiso   1.00
H73    H     0.30634   0.71536   0.95140   0.00000  Uiso   1.00
H74    H     0.14591   0.16688   0.84174   0.00000  Uiso   1.00
H75    H     0.61503   0.25574   0.77684   0.00000  Uiso   1.00
H76    H     0.23254   0.48031   0.07651   0.00000  Uiso   1.00
H77    H     0.12591   0.16531   0.19215   0.00000  Uiso   1.00
H78    H     0.03199   0.26564   0.17399   0.00000  Uiso   1.00
H79    H     0.25448   0.30780   0.14319   0.00000  Uiso   1.00
H80    H     0.07309   0.94007   0.28531   0.00000  Uiso   1.00
H81    H     0.95659   0.34927   0.11275   0.00000  Uiso   1.00
H82    H     0.42572   0.43812   0.04785   0.00000  Uiso   1.00
H83    H     0.04322   0.66270   0.34752   0.00000  Uiso   1.00
O84    O     0.99348   0.32026   0.95957   0.00000  Uiso   1.00
O85    O     0.60896   0.43682   0.87442   0.00000  Uiso   1.00
O86    O     0.10712   0.41948   0.26758   0.00000  Uiso   1.00
N87    N     0.11423   0.19602   0.90803   0.00000  Uiso   1.00
N88    N     0.55283   0.27911   0.84734   0.00000  Uiso   1.00
N89    N     0.19525   0.55415   0.12750   0.00000  Uiso   1.00
N90    N     0.01236   0.29416   0.05386   0.00000  Uiso   1.00
N91    N     0.45096   0.37725   0.99317   0.00000  Uiso   1.00
N92    N     0.09338   0.65229   0.27333   0.00000  Uiso   1.00
C93    C     0.29636   0.99891   0.44813   0.00000  Uiso   1.00
C94    C     0.22126   0.92122   0.47272   0.00000  Uiso   1.00
C95    C     0.21487   0.91055   0.41216   0.00000  Uiso   1.00
C96    C     0.14102   0.83489   0.44808   0.00000  Uiso   1.00
C97    C     0.03434   0.72374   0.47208   0.00000  Uiso   1.00
C98    C     0.34215   0.89830   0.45599   0.00000  Uiso   1.00
C99    C     0.43740   0.86838   0.38136   0.00000  Uiso   1.00
C100   C     0.46530   0.77343   0.40321   0.00000  Uiso   1.00
C101   C     0.54630   0.62677   0.40125   0.00000  Uiso   1.00
C102   C     0.24359   0.09809   0.53320   0.00000  Uiso   1.00
C103   C     0.25598   0.23617   0.52350   0.00000  Uiso   1.00
C104   C     0.20092   0.30943   0.61035   0.00000  Uiso   1.00
C105   C     0.12889   0.47298   0.72827   0.00000  Uiso   1.00
C106   C     0.17657   0.88349   0.61963   0.00000  Uiso   1.00
C107   C     0.15620   0.85853   0.56587   0.00000  Uiso   1.00
C108   C     0.08233   0.78286   0.60190   0.00000  Uiso   1.00
C109   C     0.07583   0.77209   0.54140   0.00000  Uiso   1.00
C110   C     0.27708   0.83561   0.54913   0.00000  Uiso   1.00
C111   C     0.30485   0.74069   0.57110   0.00000  Uiso   1.00
C112   C     0.40012   0.71063   0.49653   0.00000  Uiso   1.00
C113   C     0.17851   0.03541   0.62635   0.00000  Uiso   1.00
C114   C     0.12343   0.10847   0.71324   0.00000  Uiso   1.00
C115   C     0.13573   0.24663   0.70367   0.00000  Uiso   1.00
H116   H     0.34702   0.04771   0.37561   0.00000  Uiso   1.00
H117   H     0.26525   0.95907   0.34007   0.00000  Uiso   1.00
H118   H     0.48773   0.91691   0.30929   0.00000  Uiso   1.00
H119   H     0.30634   0.28464   0.45140   0.00000  Uiso   1.00
H120   H     0.14591   0.83312   0.34174   0.00000  Uiso   1.00
H121   H     0.61503   0.74426   0.27684   0.00000  Uiso   1.00
H122   H     0.23254   0.51969   0.57651   0.00000  Uiso   1.00
H123   H     0.12591   0.83469   0.69215   0.00000  Uiso   1.00
H124   H     0.03199   0.73436   0.67399   0.00000  Uiso   1.00
H125   H     0.25448   0.69220   0.64320   0.00000  Uiso   1.00
H126   H     0.07309   0.05993   0.78531   0.00000  Uiso   1.00
H127   H     0.95659   0.65073   0.61275   0.00000  Uiso   1.00
H128   H     0.42572   0.56188   0.54785   0.00000  Uiso   1.00
H129   H     0.04322   0.33730   0.84752   0.00000  Uiso   1.00
O130   O     0.99348   0.67974   0.45957   0.00000  Uiso   1.00
O131   O     0.60896   0.56318   0.37442   0.00000  Uiso   1.00
O132   O     0.10712   0.58052   0.76758   0.00000  Uiso   1.00
N133   N     0.11423   0.80398   0.40803   0.00000  Uiso   1.00
N134   N     0.55283   0.72089   0.34734   0.00000  Uiso   1.00
N135   N     0.19525   0.44585   0.62750   0.00000  Uiso   1.00
N136   N     0.01236   0.70584   0.55386   0.00000  Uiso   1.00
N137   N     0.45096   0.62275   0.49317   0.00000  Uiso   1.00
N138   N     0.09338   0.34771   0.77333   0.00000  Uiso   1.00
C139   C     0.70364   0.99891   0.05187   0.00000  Uiso   1.00
C140   C     0.77874   0.92122   0.02728   0.00000  Uiso   1.00
C141   C     0.78513   0.91055   0.08784   0.00000  Uiso   1.00
C142   C     0.85898   0.83489   0.05192   0.00000  Uiso   1.00
C143   C     0.96566   0.72374   0.02792   0.00000  Uiso   1.00
C144   C     0.65785   0.89830   0.04401   0.00000  Uiso   1.00
C145   C     0.56260   0.86838   0.11864   0.00000  Uiso   1.00
C146   C     0.53470   0.77343   0.09679   0.00000  Uiso   1.00
C147   C     0.45370   0.62677   0.09875   0.00000  Uiso   1.00
C148   C     0.75641   0.09809   0.96680   0.00000  Uiso   1.00
C149   C     0.74402   0.23617   0.97650   0.00000  Uiso   1.00
C150   C     0.79908   0.30943   0.88965   0.00000  Uiso   1.00
C151   C     0.87111   0.47298   0.77173   0.00000  Uiso   1.00
C152   C     0.82343   0.88349   0.88037   0.00000  Uiso   1.00
C153   C     0.84380   0.85853   0.93413   0.00000  Uiso   1.00
C154   C     0.91767   0.78286   0.89810   0.00000  Uiso   1.00
C155   C     0.92417   0.77209   0.95860   0.00000  Uiso   1.00
C156   C     0.72292   0.83561   0.95087   0.00000  Uiso   1.00
C157   C     0.69515   0.74069   0.92890   0.00000  Uiso   1.00
C158   C     0.59988   0.71063   0.00347   0.00000  Uiso   1.00
C159   C     0.82149   0.03541   0.87365   0.00000  Uiso   1.00
C160   C     0.87657   0.10847   0.78676   0.00000  Uiso   1.00
C161   C     0.86427   0.24663   0.79633   0.00000  Uiso   1.00
H162   H     0.65298   0.04771   0.12439   0.00000  Uiso   1.00
H163   H     0.73475   0.95907   0.15993   0.00000  Uiso   1.00
H164   H     0.51227   0.91691   0.19071   0.00000  Uiso   1.00
H165   H     0.69366   0.28464   0.04860   0.00000  Uiso   1.00
H166   H     0.85409   0.83312   0.15826   0.00000  Uiso   1.00
H167   H     0.38497   0.74426   0.22316   0.00000  Uiso   1.00
H168   H     0.76746   0.51969   0.92349   0.00000  Uiso   1.00
H169   H     0.87409   0.83469   0.80785   0.00000  Uiso   1.00
H170   H     0.96801   0.73436   0.82601   0.00000  Uiso   1.00
H171   H     0.74552   0.69220   0.85680   0.00000  Uiso   1.00
H172   H     0.92691   0.05993   0.71469   0.00000  Uiso   1.00
H173   H     0.04341   0.65073   0.88725   0.00000  Uiso   1.00
H174   H     0.57428   0.56188   0.95215   0.00000  Uiso   1.00
H175   H     0.95678   0.33730   0.65248   0.00000  Uiso   1.00
O176   O     0.00652   0.67974   0.04043   0.00000  Uiso   1.00
O177   O     0.39104   0.56318   0.12558   0.00000  Uiso   1.00
O178   O     0.89288   0.58052   0.73242   0.00000  Uiso   1.00
N179   N     0.88577   0.80398   0.09197   0.00000  Uiso   1.00
N180   N     0.44717   0.72089   0.15266   0.00000  Uiso   1.00
N181   N     0.80475   0.44585   0.87250   0.00000  Uiso   1.00
N182   N     0.98764   0.70584   0.94614   0.00000  Uiso   1.00
N183   N     0.54904   0.62275   0.00683   0.00000  Uiso   1.00
N184   N     0.90662   0.34771   0.72667   0.00000  Uiso   1.00
