data_job_04029
_audit_creation_date              2018-12-19
_audit_creation_method            'Materials Studio'
_symmetry_space_group_name_H-M    'P1'
_symmetry_Int_Tables_number       1
_symmetry_cell_setting            triclinic
loop_
_symmetry_equiv_pos_as_xyz
  x,y,z
_cell_length_a                    12.7953
_cell_length_b                    24.0210
_cell_length_c                    10.3871
_cell_angle_alpha                 90.0000
_cell_angle_beta                  66.8136
_cell_angle_gamma                 90.0000
loop_
_atom_site_label
_atom_site_type_symbol
_atom_site_fract_x
_atom_site_fract_y
_atom_site_fract_z
_atom_site_U_iso_or_equiv
_atom_site_adp_type
_atom_site_occupancy
C1     C     0.63705   0.12049   0.78513   0.00000  Uiso   1.00
C2     C     0.62244   0.11254   0.64750   0.00000  Uiso   1.00
C3     C     0.52275   0.12100   0.62711   0.00000  Uiso   1.00
C4     C     0.52683   0.11147   0.49339   0.00000  Uiso   1.00
C5     C     0.48888   0.10174   0.29634   0.00000  Uiso   1.00
C6     C     0.68093   0.06510   0.81557   0.00000  Uiso   1.00
C7     C     0.63043   0.03367   0.93650   0.00000  Uiso   1.00
C8     C     0.68375   0.98420   0.94425   0.00000  Uiso   1.00
C9     C     0.73666   0.90084   0.00817   0.00000  Uiso   1.00
C10    C     0.73423   0.16191   0.75440   0.00000  Uiso   1.00
C11    C     0.72856   0.21187   0.82393   0.00000  Uiso   1.00
C12    C     0.82677   0.24390   0.78021   0.00000  Uiso   1.00
C13    C     0.96243   0.31084   0.74916   0.00000  Uiso   1.00
C14    C     0.82157   0.08851   0.58388   0.00000  Uiso   1.00
C15    C     0.72267   0.09517   0.53820   0.00000  Uiso   1.00
C16    C     0.72690   0.08562   0.40446   0.00000  Uiso   1.00
C17    C     0.62723   0.09407   0.38388   0.00000  Uiso   1.00
C18    C     0.78115   0.04773   0.70627   0.00000  Uiso   1.00
C19    C     0.83457   0.99829   0.71385   0.00000  Uiso   1.00
C20    C     0.78416   0.96679   0.83475   0.00000  Uiso   1.00
C21    C     0.83446   0.14454   0.64509   0.00000  Uiso   1.00
C22    C     0.93270   0.17649   0.60127   0.00000  Uiso   1.00
C23    C     0.92718   0.22649   0.67071   0.00000  Uiso   1.00
H24    H     0.55903   0.13401   0.87023   0.00000  Uiso   1.00
H25    H     0.44520   0.13444   0.71174   0.00000  Uiso   1.00
H26    H     0.55287   0.04713   0.02108   0.00000  Uiso   1.00
H27    H     0.65099   0.22530   0.90851   0.00000  Uiso   1.00
H28    H     0.36320   0.12724   0.48782   0.00000  Uiso   1.00
H29    H     0.59024   0.94314   0.14010   0.00000  Uiso   1.00
H30    H     0.79713   0.31885   0.90275   0.00000  Uiso   1.00
H31    H     0.89961   0.07498   0.49878   0.00000  Uiso   1.00
H32    H     0.80447   0.07218   0.31989   0.00000  Uiso   1.00
H33    H     0.91213   0.98486   0.62924   0.00000  Uiso   1.00
H34    H     0.01025   0.16303   0.51668   0.00000  Uiso   1.00
H35    H     0.65479   0.07670   0.16979   0.00000  Uiso   1.00
H36    H     0.88183   0.89260   0.82208   0.00000  Uiso   1.00
H37    H     0.08873   0.26831   0.58472   0.00000  Uiso   1.00
O38    O     0.44026   0.10117   0.21785   0.00000  Uiso   1.00
O39    O     0.73814   0.85965   0.07362   0.00000  Uiso   1.00
O40    O     0.00957   0.35257   0.76222   0.00000  Uiso   1.00
N41    N     0.44489   0.11574   0.43752   0.00000  Uiso   1.00
N42    N     0.65715   0.94362   0.04735   0.00000  Uiso   1.00
N43    N     0.85058   0.29487   0.82547   0.00000  Uiso   1.00
N44    N     0.60179   0.08855   0.26639   0.00000  Uiso   1.00
N45    N     0.81405   0.91642   0.87622   0.00000  Uiso   1.00
N46    N     0.00749   0.26767   0.65434   0.00000  Uiso   1.00
C47    C     0.36295   0.62049   0.71487   0.00000  Uiso   1.00
C48    C     0.37756   0.61254   0.85250   0.00000  Uiso   1.00
C49    C     0.47725   0.62100   0.87289   0.00000  Uiso   1.00
C50    C     0.47317   0.61147   0.00661   0.00000  Uiso   1.00
C51    C     0.51112   0.60174   0.20366   0.00000  Uiso   1.00
C52    C     0.31907   0.56510   0.68443   0.00000  Uiso   1.00
C53    C     0.36957   0.53367   0.56350   0.00000  Uiso   1.00
C54    C     0.31625   0.48420   0.55575   0.00000  Uiso   1.00
C55    C     0.26334   0.40084   0.49183   0.00000  Uiso   1.00
C56    C     0.26577   0.66191   0.74560   0.00000  Uiso   1.00
C57    C     0.27144   0.71187   0.67607   0.00000  Uiso   1.00
C58    C     0.17323   0.74390   0.71979   0.00000  Uiso   1.00
C59    C     0.03757   0.81084   0.75084   0.00000  Uiso   1.00
C60    C     0.17843   0.58851   0.91612   0.00000  Uiso   1.00
C61    C     0.27733   0.59517   0.96180   0.00000  Uiso   1.00
C62    C     0.27310   0.58562   0.09554   0.00000  Uiso   1.00
C63    C     0.37277   0.59407   0.11612   0.00000  Uiso   1.00
C64    C     0.21885   0.54773   0.79373   0.00000  Uiso   1.00
C65    C     0.16543   0.49829   0.78615   0.00000  Uiso   1.00
C66    C     0.21584   0.46679   0.66525   0.00000  Uiso   1.00
C67    C     0.16554   0.64454   0.85491   0.00000  Uiso   1.00
C68    C     0.06730   0.67649   0.89873   0.00000  Uiso   1.00
C69    C     0.07282   0.72649   0.82929   0.00000  Uiso   1.00
H70    H     0.44097   0.63401   0.62977   0.00000  Uiso   1.00
H71    H     0.55480   0.63444   0.78826   0.00000  Uiso   1.00
H72    H     0.44713   0.54713   0.47892   0.00000  Uiso   1.00
H73    H     0.34901   0.72530   0.59149   0.00000  Uiso   1.00
H74    H     0.63680   0.62724   0.01218   0.00000  Uiso   1.00
H75    H     0.40976   0.44314   0.35990   0.00000  Uiso   1.00
H76    H     0.20287   0.81885   0.59725   0.00000  Uiso   1.00
H77    H     0.10039   0.57498   0.00122   0.00000  Uiso   1.00
H78    H     0.19553   0.57218   0.18011   0.00000  Uiso   1.00
H79    H     0.08787   0.48486   0.87076   0.00000  Uiso   1.00
H80    H     0.98975   0.66303   0.98332   0.00000  Uiso   1.00
H81    H     0.34521   0.57670   0.33021   0.00000  Uiso   1.00
H82    H     0.11817   0.39260   0.67792   0.00000  Uiso   1.00
H83    H     0.91127   0.76831   0.91528   0.00000  Uiso   1.00
O84    O     0.55974   0.60117   0.28215   0.00000  Uiso   1.00
O85    O     0.26186   0.35965   0.42638   0.00000  Uiso   1.00
O86    O     0.99043   0.85257   0.73778   0.00000  Uiso   1.00
N87    N     0.55511   0.61574   0.06248   0.00000  Uiso   1.00
N88    N     0.34285   0.44362   0.45265   0.00000  Uiso   1.00
N89    N     0.14942   0.79487   0.67453   0.00000  Uiso   1.00
N90    N     0.39821   0.58855   0.23361   0.00000  Uiso   1.00
N91    N     0.18595   0.41642   0.62378   0.00000  Uiso   1.00
N92    N     0.99251   0.76767   0.84566   0.00000  Uiso   1.00
C93    C     0.36295   0.87951   0.21487   0.00000  Uiso   1.00
C94    C     0.37756   0.88746   0.35250   0.00000  Uiso   1.00
C95    C     0.47725   0.87900   0.37289   0.00000  Uiso   1.00
C96    C     0.47317   0.88853   0.50661   0.00000  Uiso   1.00
C97    C     0.51112   0.89826   0.70366   0.00000  Uiso   1.00
C98    C     0.31907   0.93490   0.18443   0.00000  Uiso   1.00
C99    C     0.36957   0.96633   0.06350   0.00000  Uiso   1.00
C100   C     0.31625   0.01580   0.05575   0.00000  Uiso   1.00
C101   C     0.26334   0.09916   0.99183   0.00000  Uiso   1.00
C102   C     0.26577   0.83809   0.24560   0.00000  Uiso   1.00
C103   C     0.27144   0.78813   0.17607   0.00000  Uiso   1.00
C104   C     0.17323   0.75610   0.21979   0.00000  Uiso   1.00
C105   C     0.03757   0.68916   0.25084   0.00000  Uiso   1.00
C106   C     0.17843   0.91149   0.41612   0.00000  Uiso   1.00
C107   C     0.27733   0.90483   0.46180   0.00000  Uiso   1.00
C108   C     0.27310   0.91438   0.59554   0.00000  Uiso   1.00
C109   C     0.37277   0.90593   0.61612   0.00000  Uiso   1.00
C110   C     0.21885   0.95227   0.29373   0.00000  Uiso   1.00
C111   C     0.16543   0.00171   0.28615   0.00000  Uiso   1.00
C112   C     0.21584   0.03321   0.16525   0.00000  Uiso   1.00
C113   C     0.16554   0.85546   0.35491   0.00000  Uiso   1.00
C114   C     0.06730   0.82351   0.39873   0.00000  Uiso   1.00
C115   C     0.07282   0.77351   0.32929   0.00000  Uiso   1.00
H116   H     0.44097   0.86599   0.12977   0.00000  Uiso   1.00
H117   H     0.55480   0.86556   0.28826   0.00000  Uiso   1.00
H118   H     0.44713   0.95287   0.97892   0.00000  Uiso   1.00
H119   H     0.34901   0.77470   0.09149   0.00000  Uiso   1.00
H120   H     0.63680   0.87276   0.51218   0.00000  Uiso   1.00
H121   H     0.40976   0.05686   0.85990   0.00000  Uiso   1.00
H122   H     0.20287   0.68115   0.09725   0.00000  Uiso   1.00
H123   H     0.10039   0.92502   0.50122   0.00000  Uiso   1.00
H124   H     0.19553   0.92782   0.68011   0.00000  Uiso   1.00
H125   H     0.08787   0.01514   0.37076   0.00000  Uiso   1.00
H126   H     0.98975   0.83697   0.48332   0.00000  Uiso   1.00
H127   H     0.34521   0.92330   0.83021   0.00000  Uiso   1.00
H128   H     0.11817   0.10740   0.17792   0.00000  Uiso   1.00
H129   H     0.91127   0.73169   0.41528   0.00000  Uiso   1.00
O130   O     0.55974   0.89883   0.78215   0.00000  Uiso   1.00
O131   O     0.26186   0.14035   0.92638   0.00000  Uiso   1.00
O132   O     0.99043   0.64743   0.23778   0.00000  Uiso   1.00
N133   N     0.55511   0.88426   0.56248   0.00000  Uiso   1.00
N134   N     0.34285   0.05638   0.95265   0.00000  Uiso   1.00
N135   N     0.14942   0.70513   0.17453   0.00000  Uiso   1.00
N136   N     0.39821   0.91145   0.73361   0.00000  Uiso   1.00
N137   N     0.18595   0.08358   0.12378   0.00000  Uiso   1.00
N138   N     0.99251   0.73233   0.34566   0.00000  Uiso   1.00
C139   C     0.63705   0.37951   0.28513   0.00000  Uiso   1.00
C140   C     0.62244   0.38746   0.14750   0.00000  Uiso   1.00
C141   C     0.52275   0.37900   0.12711   0.00000  Uiso   1.00
C142   C     0.52683   0.38853   0.99339   0.00000  Uiso   1.00
C143   C     0.48888   0.39826   0.79634   0.00000  Uiso   1.00
C144   C     0.68093   0.43490   0.31557   0.00000  Uiso   1.00
C145   C     0.63043   0.46633   0.43650   0.00000  Uiso   1.00
C146   C     0.68375   0.51580   0.44425   0.00000  Uiso   1.00
C147   C     0.73666   0.59916   0.50817   0.00000  Uiso   1.00
C148   C     0.73423   0.33809   0.25440   0.00000  Uiso   1.00
C149   C     0.72856   0.28813   0.32393   0.00000  Uiso   1.00
C150   C     0.82677   0.25610   0.28021   0.00000  Uiso   1.00
C151   C     0.96243   0.18916   0.24916   0.00000  Uiso   1.00
C152   C     0.82157   0.41149   0.08388   0.00000  Uiso   1.00
C153   C     0.72267   0.40483   0.03820   0.00000  Uiso   1.00
C154   C     0.72690   0.41438   0.90446   0.00000  Uiso   1.00
C155   C     0.62723   0.40593   0.88388   0.00000  Uiso   1.00
C156   C     0.78115   0.45227   0.20627   0.00000  Uiso   1.00
C157   C     0.83457   0.50171   0.21385   0.00000  Uiso   1.00
C158   C     0.78416   0.53321   0.33475   0.00000  Uiso   1.00
C159   C     0.83446   0.35546   0.14509   0.00000  Uiso   1.00
C160   C     0.93270   0.32351   0.10127   0.00000  Uiso   1.00
C161   C     0.92718   0.27351   0.17071   0.00000  Uiso   1.00
H162   H     0.55903   0.36599   0.37023   0.00000  Uiso   1.00
H163   H     0.44520   0.36556   0.21174   0.00000  Uiso   1.00
H164   H     0.55287   0.45287   0.52108   0.00000  Uiso   1.00
H165   H     0.65099   0.27470   0.40851   0.00000  Uiso   1.00
H166   H     0.36320   0.37276   0.98782   0.00000  Uiso   1.00
H167   H     0.59024   0.55686   0.64010   0.00000  Uiso   1.00
H168   H     0.79713   0.18115   0.40275   0.00000  Uiso   1.00
H169   H     0.89961   0.42502   0.99878   0.00000  Uiso   1.00
H170   H     0.80447   0.42782   0.81989   0.00000  Uiso   1.00
H171   H     0.91213   0.51514   0.12924   0.00000  Uiso   1.00
H172   H     0.01025   0.33697   0.01668   0.00000  Uiso   1.00
H173   H     0.65479   0.42330   0.66979   0.00000  Uiso   1.00
H174   H     0.88183   0.60740   0.32208   0.00000  Uiso   1.00
H175   H     0.08873   0.23169   0.08472   0.00000  Uiso   1.00
O176   O     0.44026   0.39883   0.71785   0.00000  Uiso   1.00
O177   O     0.73814   0.64035   0.57362   0.00000  Uiso   1.00
O178   O     0.00957   0.14743   0.26222   0.00000  Uiso   1.00
N179   N     0.44489   0.38426   0.93752   0.00000  Uiso   1.00
N180   N     0.65715   0.55638   0.54735   0.00000  Uiso   1.00
N181   N     0.85058   0.20513   0.32547   0.00000  Uiso   1.00
N182   N     0.60179   0.41145   0.76639   0.00000  Uiso   1.00
N183   N     0.81405   0.58358   0.37622   0.00000  Uiso   1.00
N184   N     0.00749   0.23233   0.15434   0.00000  Uiso   1.00
