data_job_03154
_audit_creation_date              2018-12-19
_audit_creation_method            'Materials Studio'
_symmetry_space_group_name_H-M    'P1'
_symmetry_Int_Tables_number       1
_symmetry_cell_setting            triclinic
loop_
_symmetry_equiv_pos_as_xyz
  x,y,z
_cell_length_a                    12.5796
_cell_length_b                    14.2992
_cell_length_c                    15.6172
_cell_angle_alpha                 100.6340
_cell_angle_beta                  110.5569
_cell_angle_gamma                 69.0676
loop_
_atom_site_label
_atom_site_type_symbol
_atom_site_fract_x
_atom_site_fract_y
_atom_site_fract_z
_atom_site_U_iso_or_equiv
_atom_site_adp_type
_atom_site_occupancy
C1     C     0.30683   0.36618   0.98119   0.00000  Uiso   1.00
C2     C     0.22662   0.32216   0.00382   0.00000  Uiso   1.00
C3     C     0.18012   0.35491   0.07654   0.00000  Uiso   1.00
C4     C     0.10868   0.30476   0.08553   0.00000  Uiso   1.00
C5     C     0.98783   0.24855   0.13005   0.00000  Uiso   1.00
C6     C     0.41997   0.27912   0.97940   0.00000  Uiso   1.00
C7     C     0.53603   0.27569   0.03158   0.00000  Uiso   1.00
C8     C     0.62736   0.18931   0.02000   0.00000  Uiso   1.00
C9     C     0.80670   0.06630   0.02656   0.00000  Uiso   1.00
C10    C     0.24364   0.39632   0.88269   0.00000  Uiso   1.00
C11    C     0.21147   0.49142   0.85355   0.00000  Uiso   1.00
C12    C     0.15437   0.50371   0.76054   0.00000  Uiso   1.00
C13    C     0.05993   0.56267   0.61695   0.00000  Uiso   1.00
C14    C     0.26266   0.21889   0.86784   0.00000  Uiso   1.00
C15    C     0.20263   0.24216   0.94225   0.00000  Uiso   1.00
C16    C     0.13124   0.19195   0.95113   0.00000  Uiso   1.00
C17    C     0.08464   0.22462   0.02385   0.00000  Uiso   1.00
C18    C     0.39598   0.19912   0.91783   0.00000  Uiso   1.00
C19    C     0.48716   0.11273   0.90617   0.00000  Uiso   1.00
C20    C     0.60333   0.10916   0.95832   0.00000  Uiso   1.00
C21    C     0.21965   0.31632   0.82112   0.00000  Uiso   1.00
C22    C     0.16259   0.32846   0.72814   0.00000  Uiso   1.00
C23    C     0.13034   0.42356   0.69886   0.00000  Uiso   1.00
H24    H     0.32552   0.42846   0.02912   0.00000  Uiso   1.00
H25    H     0.19871   0.41682   0.12418   0.00000  Uiso   1.00
H26    H     0.55457   0.33761   0.07921   0.00000  Uiso   1.00
H27    H     0.23006   0.55331   0.90121   0.00000  Uiso   1.00
H28    H     0.04758   0.36860   0.20242   0.00000  Uiso   1.00
H29    H     0.79793   0.20161   0.10759   0.00000  Uiso   1.00
H30    H     0.11363   0.65646   0.73224   0.00000  Uiso   1.00
H31    H     0.24398   0.15660   0.81990   0.00000  Uiso   1.00
H32    H     0.11269   0.13004   0.90347   0.00000  Uiso   1.00
H33    H     0.46856   0.05084   0.85851   0.00000  Uiso   1.00
H34    H     0.14404   0.26654   0.68051   0.00000  Uiso   1.00
H35    H     0.97777   0.13584   0.02329   0.00000  Uiso   1.00
H36    H     0.72812   0.96885   0.92846   0.00000  Uiso   1.00
H37    H     0.04382   0.42369   0.55312   0.00000  Uiso   1.00
O38    O     0.92782   0.23963   0.17163   0.00000  Uiso   1.00
O39    O     0.91225   0.02055   0.04720   0.00000  Uiso   1.00
O40    O     0.01446   0.61730   0.55476   0.00000  Uiso   1.00
N41    N     0.04915   0.31748   0.14879   0.00000  Uiso   1.00
N42    N     0.75068   0.16134   0.06014   0.00000  Uiso   1.00
N43    N     0.11095   0.58658   0.70921   0.00000  Uiso   1.00
N44    N     0.01158   0.19223   0.05240   0.00000  Uiso   1.00
N45    N     0.71311   0.03610   0.96375   0.00000  Uiso   1.00
N46    N     0.07338   0.46134   0.61283   0.00000  Uiso   1.00
C47    C     0.69317   0.63382   0.01881   0.00000  Uiso   1.00
C48    C     0.77338   0.67784   0.99618   0.00000  Uiso   1.00
C49    C     0.81988   0.64509   0.92346   0.00000  Uiso   1.00
C50    C     0.89132   0.69524   0.91447   0.00000  Uiso   1.00
C51    C     0.01217   0.75145   0.86995   0.00000  Uiso   1.00
C52    C     0.58003   0.72088   0.02060   0.00000  Uiso   1.00
C53    C     0.46397   0.72431   0.96842   0.00000  Uiso   1.00
C54    C     0.37264   0.81069   0.98000   0.00000  Uiso   1.00
C55    C     0.19330   0.93370   0.97344   0.00000  Uiso   1.00
C56    C     0.75636   0.60368   0.11731   0.00000  Uiso   1.00
C57    C     0.78853   0.50858   0.14645   0.00000  Uiso   1.00
C58    C     0.84563   0.49629   0.23946   0.00000  Uiso   1.00
C59    C     0.94007   0.43733   0.38305   0.00000  Uiso   1.00
C60    C     0.73734   0.78111   0.13216   0.00000  Uiso   1.00
C61    C     0.79737   0.75784   0.05775   0.00000  Uiso   1.00
C62    C     0.86876   0.80805   0.04887   0.00000  Uiso   1.00
C63    C     0.91536   0.77538   0.97615   0.00000  Uiso   1.00
C64    C     0.60402   0.80088   0.08217   0.00000  Uiso   1.00
C65    C     0.51284   0.88727   0.09383   0.00000  Uiso   1.00
C66    C     0.39667   0.89084   0.04168   0.00000  Uiso   1.00
C67    C     0.78035   0.68368   0.17888   0.00000  Uiso   1.00
C68    C     0.83741   0.67154   0.27186   0.00000  Uiso   1.00
C69    C     0.86966   0.57644   0.30114   0.00000  Uiso   1.00
H70    H     0.67448   0.57154   0.97088   0.00000  Uiso   1.00
H71    H     0.80129   0.58318   0.87582   0.00000  Uiso   1.00
H72    H     0.44543   0.66239   0.92079   0.00000  Uiso   1.00
H73    H     0.76994   0.44669   0.09879   0.00000  Uiso   1.00
H74    H     0.95242   0.63140   0.79758   0.00000  Uiso   1.00
H75    H     0.20207   0.79839   0.89241   0.00000  Uiso   1.00
H76    H     0.88637   0.34354   0.26776   0.00000  Uiso   1.00
H77    H     0.75602   0.84340   0.18010   0.00000  Uiso   1.00
H78    H     0.88731   0.86996   0.09653   0.00000  Uiso   1.00
H79    H     0.53144   0.94916   0.14149   0.00000  Uiso   1.00
H80    H     0.85596   0.73346   0.31949   0.00000  Uiso   1.00
H81    H     0.02223   0.86416   0.97671   0.00000  Uiso   1.00
H82    H     0.27188   0.03115   0.07154   0.00000  Uiso   1.00
H83    H     0.95618   0.57631   0.44688   0.00000  Uiso   1.00
O84    O     0.07218   0.76037   0.82837   0.00000  Uiso   1.00
O85    O     0.08775   0.97945   0.95280   0.00000  Uiso   1.00
O86    O     0.98554   0.38270   0.44524   0.00000  Uiso   1.00
N87    N     0.95085   0.68252   0.85121   0.00000  Uiso   1.00
N88    N     0.24932   0.83866   0.93986   0.00000  Uiso   1.00
N89    N     0.88905   0.41342   0.29079   0.00000  Uiso   1.00
N90    N     0.98842   0.80777   0.94760   0.00000  Uiso   1.00
N91    N     0.28689   0.96390   0.03625   0.00000  Uiso   1.00
N92    N     0.92662   0.53866   0.38717   0.00000  Uiso   1.00
