data_job_05131
_audit_creation_date              2018-12-19
_audit_creation_method            'Materials Studio'
_symmetry_space_group_name_H-M    'P1'
_symmetry_Int_Tables_number       1
_symmetry_cell_setting            triclinic
loop_
_symmetry_equiv_pos_as_xyz
  x,y,z
_cell_length_a                    13.5350
_cell_length_b                    30.5737
_cell_length_c                    11.9891
_cell_angle_alpha                 94.1075
_cell_angle_beta                  89.9984
_cell_angle_gamma                 90.0057
loop_
_atom_site_label
_atom_site_type_symbol
_atom_site_fract_x
_atom_site_fract_y
_atom_site_fract_z
_atom_site_U_iso_or_equiv
_atom_site_adp_type
_atom_site_occupancy
C1     C     0.04358   0.66791   0.36069   0.00000  Uiso   1.00
C2     C     0.13758   0.68034   0.30038   0.00000  Uiso   1.00
C3     C     0.14911   0.71659   0.23825   0.00000  Uiso   1.00
C4     C     0.24090   0.72222   0.18959   0.00000  Uiso   1.00
C5     C     0.37507   0.74601   0.09390   0.00000  Uiso   1.00
C6     C     0.01832   0.62137   0.31544   0.00000  Uiso   1.00
C7     C     0.92956   0.60803   0.26599   0.00000  Uiso   1.00
C8     C     0.92096   0.56401   0.23002   0.00000  Uiso   1.00
C9     C     0.86994   0.49624   0.15779   0.00000  Uiso   1.00
C10    C     0.07250   0.66469   0.48275   0.00000  Uiso   1.00
C11    C     0.02929   0.68777   0.57399   0.00000  Uiso   1.00
C12    C     0.06628   0.68021   0.67890   0.00000  Uiso   1.00
C13    C     0.09939   0.67970   0.86645   0.00000  Uiso   1.00
C14    C     0.18610   0.61343   0.38477   0.00000  Uiso   1.00
C15    C     0.21499   0.65075   0.31346   0.00000  Uiso   1.00
C16    C     0.30679   0.65632   0.26489   0.00000  Uiso   1.00
C17    C     0.31845   0.69258   0.20269   0.00000  Uiso   1.00
C18    C     0.09573   0.59178   0.32851   0.00000  Uiso   1.00
C19    C     0.08724   0.54777   0.29263   0.00000  Uiso   1.00
C20    C     0.99850   0.53437   0.24312   0.00000  Uiso   1.00
C21    C     0.14991   0.63510   0.49584   0.00000  Uiso   1.00
C22    C     0.18697   0.62750   0.60063   0.00000  Uiso   1.00
C23    C     0.14383   0.65057   0.69200   0.00000  Uiso   1.00
H24    H     0.98331   0.69094   0.35051   0.00000  Uiso   1.00
H25    H     0.08918   0.73948   0.22813   0.00000  Uiso   1.00
H26    H     0.86967   0.63094   0.25588   0.00000  Uiso   1.00
H27    H     0.96939   0.71066   0.56384   0.00000  Uiso   1.00
H28    H     0.24069   0.78024   0.09819   0.00000  Uiso   1.00
H29    H     0.77782   0.55137   0.15674   0.00000  Uiso   1.00
H30    H     0.98808   0.71948   0.80612   0.00000  Uiso   1.00
H31    H     0.24637   0.59040   0.39496   0.00000  Uiso   1.00
H32    H     0.36668   0.63342   0.27502   0.00000  Uiso   1.00
H33    H     0.14716   0.52488   0.30277   0.00000  Uiso   1.00
H34    H     0.24688   0.60460   0.61072   0.00000  Uiso   1.00
H35    H     0.46591   0.69416   0.13624   0.00000  Uiso   1.00
H36    H     0.00304   0.46528   0.19479   0.00000  Uiso   1.00
H37    H     0.21331   0.63339   0.84417   0.00000  Uiso   1.00
O38    O     0.42769   0.76730   0.03749   0.00000  Uiso   1.00
O39    O     0.82042   0.46704   0.11432   0.00000  Uiso   1.00
O40    O     0.09628   0.68759   0.96629   0.00000  Uiso   1.00
N41    N     0.27719   0.75408   0.12363   0.00000  Uiso   1.00
N42    N     0.84444   0.54010   0.17835   0.00000  Uiso   1.00
N43    N     0.04100   0.69726   0.78547   0.00000  Uiso   1.00
N44    N     0.39838   0.70776   0.14410   0.00000  Uiso   1.00
N45    N     0.96563   0.49378   0.19882   0.00000  Uiso   1.00
N46    N     0.16220   0.65094   0.80594   0.00000  Uiso   1.00
C47    C     0.04363   0.88251   0.16404   0.00000  Uiso   1.00
C48    C     0.13762   0.87009   0.22436   0.00000  Uiso   1.00
C49    C     0.14913   0.83384   0.28650   0.00000  Uiso   1.00
C50    C     0.24091   0.82821   0.33516   0.00000  Uiso   1.00
C51    C     0.37506   0.80442   0.43087   0.00000  Uiso   1.00
C52    C     0.01838   0.92906   0.20928   0.00000  Uiso   1.00
C53    C     0.92963   0.94239   0.25873   0.00000  Uiso   1.00
C54    C     0.92103   0.98641   0.29468   0.00000  Uiso   1.00
C55    C     0.87004   0.05419   0.36690   0.00000  Uiso   1.00
C56    C     0.07256   0.88573   0.04198   0.00000  Uiso   1.00
C57    C     0.02935   0.86265   0.95074   0.00000  Uiso   1.00
C58    C     0.06635   0.87021   0.84583   0.00000  Uiso   1.00
C59    C     0.09948   0.87071   0.65828   0.00000  Uiso   1.00
C60    C     0.18617   0.93699   0.13996   0.00000  Uiso   1.00
C61    C     0.21504   0.89968   0.21128   0.00000  Uiso   1.00
C62    C     0.30683   0.89411   0.25986   0.00000  Uiso   1.00
C63    C     0.31847   0.85785   0.32206   0.00000  Uiso   1.00
C64    C     0.09580   0.95865   0.19620   0.00000  Uiso   1.00
C65    C     0.08733   0.00266   0.23208   0.00000  Uiso   1.00
C66    C     0.99859   0.01606   0.28158   0.00000  Uiso   1.00
C67    C     0.14999   0.91532   0.02889   0.00000  Uiso   1.00
C68    C     0.18706   0.92292   0.92410   0.00000  Uiso   1.00
C69    C     0.14392   0.89985   0.83273   0.00000  Uiso   1.00
H70    H     0.98335   0.85948   0.17422   0.00000  Uiso   1.00
H71    H     0.08919   0.81095   0.29661   0.00000  Uiso   1.00
H72    H     0.86972   0.91949   0.26883   0.00000  Uiso   1.00
H73    H     0.96944   0.83976   0.96090   0.00000  Uiso   1.00
H74    H     0.24066   0.77020   0.42657   0.00000  Uiso   1.00
H75    H     0.77790   0.99906   0.36795   0.00000  Uiso   1.00
H76    H     0.98815   0.83093   0.71861   0.00000  Uiso   1.00
H77    H     0.24645   0.96003   0.12977   0.00000  Uiso   1.00
H78    H     0.36673   0.91701   0.24972   0.00000  Uiso   1.00
H79    H     0.14726   0.02555   0.22194   0.00000  Uiso   1.00
H80    H     0.24698   0.94582   0.91401   0.00000  Uiso   1.00
H81    H     0.46593   0.85628   0.38852   0.00000  Uiso   1.00
H82    H     0.00316   0.08514   0.32990   0.00000  Uiso   1.00
H83    H     0.21342   0.91702   0.68056   0.00000  Uiso   1.00
O84    O     0.42766   0.78313   0.48728   0.00000  Uiso   1.00
O85    O     0.82052   0.08339   0.41036   0.00000  Uiso   1.00
O86    O     0.09638   0.86282   0.55845   0.00000  Uiso   1.00
N87    N     0.27718   0.79635   0.40113   0.00000  Uiso   1.00
N88    N     0.84452   0.01033   0.34635   0.00000  Uiso   1.00
N89    N     0.04108   0.85315   0.73927   0.00000  Uiso   1.00
N90    N     0.39839   0.84268   0.38066   0.00000  Uiso   1.00
N91    N     0.96574   0.05665   0.32587   0.00000  Uiso   1.00
N92    N     0.16229   0.89947   0.71879   0.00000  Uiso   1.00
C93    C     0.42671   0.17267   0.17240   0.00000  Uiso   1.00
C94    C     0.32908   0.18503   0.22979   0.00000  Uiso   1.00
C95    C     0.31096   0.22318   0.29644   0.00000  Uiso   1.00
C96    C     0.21678   0.22839   0.34133   0.00000  Uiso   1.00
C97    C     0.07635   0.25242   0.43369   0.00000  Uiso   1.00
C98    C     0.45540   0.12819   0.21255   0.00000  Uiso   1.00
C99    C     0.54350   0.11855   0.26470   0.00000  Uiso   1.00
C100   C     0.55566   0.07590   0.29506   0.00000  Uiso   1.00
C101   C     0.61138   0.01168   0.36059   0.00000  Uiso   1.00
C102   C     0.40312   0.16461   0.04826   0.00000  Uiso   1.00
C103   C     0.44727   0.18559   0.96227   0.00000  Uiso   1.00
C104   C     0.41543   0.17360   0.85429   0.00000  Uiso   1.00
C105   C     0.38997   0.16593   0.66474   0.00000  Uiso   1.00
C106   C     0.29167   0.11406   0.13357   0.00000  Uiso   1.00
C107   C     0.25573   0.15320   0.20870   0.00000  Uiso   1.00
C108   C     0.16155   0.15835   0.25349   0.00000  Uiso   1.00
C109   C     0.14329   0.19650   0.32019   0.00000  Uiso   1.00
C110   C     0.38206   0.09636   0.19147   0.00000  Uiso   1.00
C111   C     0.39409   0.05371   0.22174   0.00000  Uiso   1.00
C112   C     0.48218   0.04401   0.27393   0.00000  Uiso   1.00
C113   C     0.32976   0.13278   0.02717   0.00000  Uiso   1.00
C114   C     0.29785   0.12075   0.91931   0.00000  Uiso   1.00
C115   C     0.34194   0.14171   0.83317   0.00000  Uiso   1.00
H116   H     0.48382   0.19744   0.18882   0.00000  Uiso   1.00
H117   H     0.36775   0.24781   0.31276   0.00000  Uiso   1.00
H118   H     0.60026   0.14319   0.28100   0.00000  Uiso   1.00
H119   H     0.50403   0.21022   0.97862   0.00000  Uiso   1.00
H120   H     0.20672   0.28960   0.44089   0.00000  Uiso   1.00
H121   H     0.69699   0.06900   0.37391   0.00000  Uiso   1.00
H122   H     0.49409   0.21035   0.73626   0.00000  Uiso   1.00
H123   H     0.23456   0.08928   0.11715   0.00000  Uiso   1.00
H124   H     0.10480   0.13371   0.23715   0.00000  Uiso   1.00
H125   H     0.33731   0.02909   0.20540   0.00000  Uiso   1.00
H126   H     0.24109   0.09612   0.90302   0.00000  Uiso   1.00
H127   H     0.99330   0.19699   0.37953   0.00000  Uiso   1.00
H128   H     0.48358   0.97639   0.31255   0.00000  Uiso   1.00
H129   H     0.28067   0.11774   0.67491   0.00000  Uiso   1.00
O130   O     0.01916   0.27447   0.49047   0.00000  Uiso   1.00
O131   O     0.66238   0.98505   0.40257   0.00000  Uiso   1.00
O132   O     0.39617   0.17049   0.56601   0.00000  Uiso   1.00
N133   N     0.17429   0.26171   0.40996   0.00000  Uiso   1.00
N134   N     0.63266   0.05547   0.34735   0.00000  Uiso   1.00
N135   N     0.44298   0.18760   0.75121   0.00000  Uiso   1.00
N136   N     0.05945   0.21188   0.37694   0.00000  Uiso   1.00
N137   N     0.51782   0.00564   0.31434   0.00000  Uiso   1.00
N138   N     0.32814   0.13777   0.71819   0.00000  Uiso   1.00
C139   C     0.42655   0.37776   0.35216   0.00000  Uiso   1.00
C140   C     0.32891   0.36539   0.29476   0.00000  Uiso   1.00
C141   C     0.31078   0.32725   0.22808   0.00000  Uiso   1.00
C142   C     0.21660   0.32205   0.18319   0.00000  Uiso   1.00
C143   C     0.07617   0.29802   0.09081   0.00000  Uiso   1.00
C144   C     0.45526   0.42224   0.31204   0.00000  Uiso   1.00
C145   C     0.54337   0.43188   0.25991   0.00000  Uiso   1.00
C146   C     0.55555   0.47453   0.22958   0.00000  Uiso   1.00
C147   C     0.61131   0.53876   0.16409   0.00000  Uiso   1.00
C148   C     0.40294   0.38580   0.47630   0.00000  Uiso   1.00
C149   C     0.44707   0.36481   0.56229   0.00000  Uiso   1.00
C150   C     0.41522   0.37679   0.67026   0.00000  Uiso   1.00
C151   C     0.38974   0.38445   0.85982   0.00000  Uiso   1.00
C152   C     0.29152   0.43635   0.39102   0.00000  Uiso   1.00
C153   C     0.25558   0.39722   0.31587   0.00000  Uiso   1.00
C154   C     0.16139   0.39208   0.27107   0.00000  Uiso   1.00
C155   C     0.14313   0.35393   0.20434   0.00000  Uiso   1.00
C156   C     0.38192   0.45406   0.33314   0.00000  Uiso   1.00
C157   C     0.39398   0.49671   0.30289   0.00000  Uiso   1.00
C158   C     0.48208   0.50642   0.25072   0.00000  Uiso   1.00
C159   C     0.32960   0.41763   0.49741   0.00000  Uiso   1.00
C160   C     0.29768   0.42964   0.60527   0.00000  Uiso   1.00
C161   C     0.34175   0.40868   0.69140   0.00000  Uiso   1.00
H162   H     0.48365   0.35298   0.33573   0.00000  Uiso   1.00
H163   H     0.36756   0.30263   0.21176   0.00000  Uiso   1.00
H164   H     0.60011   0.40724   0.24360   0.00000  Uiso   1.00
H165   H     0.50382   0.34019   0.54593   0.00000  Uiso   1.00
H166   H     0.20653   0.26084   0.08360   0.00000  Uiso   1.00
H167   H     0.69689   0.48144   0.15074   0.00000  Uiso   1.00
H168   H     0.49385   0.34003   0.78828   0.00000  Uiso   1.00
H169   H     0.23442   0.46114   0.40745   0.00000  Uiso   1.00
H170   H     0.10466   0.41672   0.28741   0.00000  Uiso   1.00
H171   H     0.33721   0.52134   0.31924   0.00000  Uiso   1.00
H172   H     0.24092   0.45428   0.62157   0.00000  Uiso   1.00
H173   H     0.99315   0.35344   0.14499   0.00000  Uiso   1.00
H174   H     0.48351   0.57404   0.21214   0.00000  Uiso   1.00
H175   H     0.28047   0.43264   0.84967   0.00000  Uiso   1.00
O176   O     0.01898   0.27598   0.03401   0.00000  Uiso   1.00
O177   O     0.66232   0.56539   0.12212   0.00000  Uiso   1.00
O178   O     0.39594   0.37987   0.95855   0.00000  Uiso   1.00
N179   N     0.17411   0.28873   0.11454   0.00000  Uiso   1.00
N180   N     0.63256   0.49497   0.17730   0.00000  Uiso   1.00
N181   N     0.44276   0.36278   0.77334   0.00000  Uiso   1.00
N182   N     0.05929   0.33856   0.14757   0.00000  Uiso   1.00
N183   N     0.51775   0.54480   0.21034   0.00000  Uiso   1.00
N184   N     0.32794   0.41261   0.80638   0.00000  Uiso   1.00
C185   C     0.92785   0.38694   0.80502   0.00000  Uiso   1.00
C186   C     0.83369   0.37508   0.86587   0.00000  Uiso   1.00
C187   C     0.82145   0.33904   0.92858   0.00000  Uiso   1.00
C188   C     0.72964   0.33395   0.97767   0.00000  Uiso   1.00
C189   C     0.59513   0.31102   0.07422   0.00000  Uiso   1.00
C190   C     0.95431   0.43343   0.84955   0.00000  Uiso   1.00
C191   C     0.04349   0.44644   0.89850   0.00000  Uiso   1.00
C192   C     0.05323   0.49048   0.93383   0.00000  Uiso   1.00
C193   C     0.10602   0.55813   0.00496   0.00000  Uiso   1.00
C194   C     0.89873   0.39004   0.68297   0.00000  Uiso   1.00
C195   C     0.94118   0.36657   0.59186   0.00000  Uiso   1.00
C196   C     0.90413   0.37407   0.48694   0.00000  Uiso   1.00
C197   C     0.87061   0.37434   0.29944   0.00000  Uiso   1.00
C198   C     0.78658   0.44201   0.78070   0.00000  Uiso   1.00
C199   C     0.75696   0.40500   0.85267   0.00000  Uiso   1.00
C200   C     0.66515   0.39997   0.90167   0.00000  Uiso   1.00
C201   C     0.65277   0.36392   0.96443   0.00000  Uiso   1.00
C202   C     0.87759   0.46335   0.83634   0.00000  Uiso   1.00
C203   C     0.88719   0.50738   0.87160   0.00000  Uiso   1.00
C204   C     0.97636   0.52045   0.92060   0.00000  Uiso   1.00
C205   C     0.82199   0.41995   0.66976   0.00000  Uiso   1.00
C206   C     0.78488   0.42750   0.56496   0.00000  Uiso   1.00
C207   C     0.82726   0.40404   0.47371   0.00000  Uiso   1.00
H208   H     0.98759   0.36365   0.81530   0.00000  Uiso   1.00
H209   H     0.88085   0.31590   0.93879   0.00000  Uiso   1.00
H210   H     0.10286   0.42328   0.90870   0.00000  Uiso   1.00
H211   H     0.00056   0.34342   0.60211   0.00000  Uiso   1.00
H212   H     0.72869   0.27615   0.06990   0.00000  Uiso   1.00
H213   H     0.19682   0.50259   0.00644   0.00000  Uiso   1.00
H214   H     0.98110   0.33418   0.35993   0.00000  Uiso   1.00
H215   H     0.72684   0.46530   0.77041   0.00000  Uiso   1.00
H216   H     0.60578   0.42313   0.89144   0.00000  Uiso   1.00
H217   H     0.82780   0.53052   0.86136   0.00000  Uiso   1.00
H218   H     0.72550   0.45065   0.55477   0.00000  Uiso   1.00
H219   H     0.50543   0.36319   0.03148   0.00000  Uiso   1.00
H220   H     0.97357   0.58963   0.96801   0.00000  Uiso   1.00
H221   H     0.75785   0.42122   0.32151   0.00000  Uiso   1.00
O222   O     0.54214   0.29010   0.13114   0.00000  Uiso   1.00
O223   O     0.15633   0.58718   0.04786   0.00000  Uiso   1.00
O224   O     0.87330   0.36623   0.19967   0.00000  Uiso   1.00
N225   N     0.69275   0.30242   0.04423   0.00000  Uiso   1.00
N226   N     0.13042   0.51412   0.98491   0.00000  Uiso   1.00
N227   N     0.92876   0.35668   0.38048   0.00000  Uiso   1.00
N228   N     0.57262   0.34925   0.02355   0.00000  Uiso   1.00
N229   N     0.01029   0.56096   0.96424   0.00000  Uiso   1.00
N230   N     0.80863   0.40352   0.35980   0.00000  Uiso   1.00
C231   C     0.92805   0.16345   0.71962   0.00000  Uiso   1.00
C232   C     0.83391   0.17530   0.65875   0.00000  Uiso   1.00
C233   C     0.82169   0.21135   0.59605   0.00000  Uiso   1.00
C234   C     0.72989   0.21644   0.54695   0.00000  Uiso   1.00
C235   C     0.59540   0.23938   0.45039   0.00000  Uiso   1.00
C236   C     0.95449   0.11695   0.67509   0.00000  Uiso   1.00
C237   C     0.04367   0.10395   0.62613   0.00000  Uiso   1.00
C238   C     0.05339   0.05991   0.59080   0.00000  Uiso   1.00
C239   C     0.10614   0.99226   0.51968   0.00000  Uiso   1.00
C240   C     0.89892   0.16035   0.84166   0.00000  Uiso   1.00
C241   C     0.94138   0.18382   0.93277   0.00000  Uiso   1.00
C242   C     0.90431   0.17632   0.03769   0.00000  Uiso   1.00
C243   C     0.87077   0.17604   0.22519   0.00000  Uiso   1.00
C244   C     0.78675   0.10838   0.74393   0.00000  Uiso   1.00
C245   C     0.75716   0.14539   0.67196   0.00000  Uiso   1.00
C246   C     0.66535   0.15042   0.62295   0.00000  Uiso   1.00
C247   C     0.65300   0.18647   0.56019   0.00000  Uiso   1.00
C248   C     0.87775   0.08704   0.68829   0.00000  Uiso   1.00
C249   C     0.88734   0.04301   0.65303   0.00000  Uiso   1.00
C250   C     0.97650   0.02994   0.60403   0.00000  Uiso   1.00
C251   C     0.82216   0.13044   0.85487   0.00000  Uiso   1.00
C252   C     0.78504   0.12289   0.95966   0.00000  Uiso   1.00
C253   C     0.82743   0.14635   0.05092   0.00000  Uiso   1.00
H254   H     0.98780   0.18674   0.70933   0.00000  Uiso   1.00
H255   H     0.88110   0.23449   0.58584   0.00000  Uiso   1.00
H256   H     0.10305   0.12710   0.61593   0.00000  Uiso   1.00
H257   H     0.00077   0.20697   0.92252   0.00000  Uiso   1.00
H258   H     0.72897   0.27424   0.45472   0.00000  Uiso   1.00
H259   H     0.19698   0.04779   0.51820   0.00000  Uiso   1.00
H260   H     0.98130   0.21621   0.16470   0.00000  Uiso   1.00
H261   H     0.72699   0.08509   0.75421   0.00000  Uiso   1.00
H262   H     0.60597   0.12726   0.63318   0.00000  Uiso   1.00
H263   H     0.82793   0.01987   0.66327   0.00000  Uiso   1.00
H264   H     0.72564   0.09974   0.96985   0.00000  Uiso   1.00
H265   H     0.50566   0.18720   0.49314   0.00000  Uiso   1.00
H266   H     0.97368   0.96076   0.55662   0.00000  Uiso   1.00
H267   H     0.75799   0.12917   0.20312   0.00000  Uiso   1.00
O268   O     0.54242   0.26029   0.39347   0.00000  Uiso   1.00
O269   O     0.15644   0.96321   0.47678   0.00000  Uiso   1.00
O270   O     0.87347   0.18416   0.32496   0.00000  Uiso   1.00
N271   N     0.69302   0.24797   0.48039   0.00000  Uiso   1.00
N272   N     0.13057   0.03626   0.53973   0.00000  Uiso   1.00
N273   N     0.92894   0.19370   0.14415   0.00000  Uiso   1.00
N274   N     0.57286   0.20114   0.50106   0.00000  Uiso   1.00
N275   N     0.01041   0.98943   0.56040   0.00000  Uiso   1.00
N276   N     0.80879   0.14687   0.16482   0.00000  Uiso   1.00
C277   C     0.55060   0.86701   0.71132   0.00000  Uiso   1.00
C278   C     0.64801   0.85495   0.65306   0.00000  Uiso   1.00
C279   C     0.66576   0.81721   0.58465   0.00000  Uiso   1.00
C280   C     0.75979   0.81223   0.53923   0.00000  Uiso   1.00
C281   C     0.89985   0.78870   0.44533   0.00000  Uiso   1.00
C282   C     0.52201   0.91186   0.67342   0.00000  Uiso   1.00
C283   C     0.43381   0.92197   0.62215   0.00000  Uiso   1.00
C284   C     0.42176   0.96490   0.59388   0.00000  Uiso   1.00
C285   C     0.36616   0.02973   0.53168   0.00000  Uiso   1.00
C286   C     0.57459   0.87415   0.83556   0.00000  Uiso   1.00
C287   C     0.53058   0.85258   0.92062   0.00000  Uiso   1.00
C288   C     0.56279   0.86377   0.02887   0.00000  Uiso   1.00
C289   C     0.58882   0.87006   0.21840   0.00000  Uiso   1.00
C290   C     0.68603   0.92526   0.75232   0.00000  Uiso   1.00
C291   C     0.72157   0.88659   0.67533   0.00000  Uiso   1.00
C292   C     0.81560   0.88166   0.63001   0.00000  Uiso   1.00
C293   C     0.83349   0.84393   0.56154   0.00000  Uiso   1.00
C294   C     0.59556   0.94350   0.69569   0.00000  Uiso   1.00
C295   C     0.58364   0.98642   0.66751   0.00000  Uiso   1.00
C296   C     0.49545   0.99660   0.61619   0.00000  Uiso   1.00
C297   C     0.64815   0.90579   0.85783   0.00000  Uiso   1.00
C298   C     0.68042   0.91703   0.96597   0.00000  Uiso   1.00
C299   C     0.63648   0.89547   0.05118   0.00000  Uiso   1.00
H300   H     0.49333   0.84238   0.69398   0.00000  Uiso   1.00
H301   H     0.60881   0.79274   0.56743   0.00000  Uiso   1.00
H302   H     0.37689   0.89748   0.60493   0.00000  Uiso   1.00
H303   H     0.47366   0.82810   0.90335   0.00000  Uiso   1.00
H304   H     0.76928   0.75166   0.43690   0.00000  Uiso   1.00
H305   H     0.28025   0.97252   0.51602   0.00000  Uiso   1.00
H306   H     0.48429   0.82621   0.14530   0.00000  Uiso   1.00
H307   H     0.74330   0.94990   0.76966   0.00000  Uiso   1.00
H308   H     0.87251   0.90615   0.64726   0.00000  Uiso   1.00
H309   H     0.64058   0.01090   0.68476   0.00000  Uiso   1.00
H310   H     0.73735   0.94151   0.98318   0.00000  Uiso   1.00
H311   H     0.98331   0.84371   0.50169   0.00000  Uiso   1.00
H312   H     0.49427   0.06458   0.58081   0.00000  Uiso   1.00
H313   H     0.69832   0.91826   0.21009   0.00000  Uiso   1.00
O314   O     0.95677   0.76698   0.38738   0.00000  Uiso   1.00
O315   O     0.31517   0.05674   0.49120   0.00000  Uiso   1.00
O316   O     0.58287   0.86478   0.31679   0.00000  Uiso   1.00
N317   N     0.80193   0.77932   0.46897   0.00000  Uiso   1.00
N318   N     0.34471   0.98581   0.54292   0.00000  Uiso   1.00
N319   N     0.53546   0.84903   0.13125   0.00000  Uiso   1.00
N320   N     0.91709   0.82886   0.50383   0.00000  Uiso   1.00
N321   N     0.45988   0.03535   0.57778   0.00000  Uiso   1.00
N322   N     0.65062   0.89857   0.16611   0.00000  Uiso   1.00
C323   C     0.55053   0.68340   0.81342   0.00000  Uiso   1.00
C324   C     0.64794   0.69547   0.87169   0.00000  Uiso   1.00
C325   C     0.66570   0.73320   0.94011   0.00000  Uiso   1.00
C326   C     0.75973   0.73818   0.98554   0.00000  Uiso   1.00
C327   C     0.89978   0.76172   0.07945   0.00000  Uiso   1.00
C328   C     0.52192   0.63855   0.85130   0.00000  Uiso   1.00
C329   C     0.43371   0.62843   0.90258   0.00000  Uiso   1.00
C330   C     0.42165   0.58550   0.93083   0.00000  Uiso   1.00
C331   C     0.36603   0.52067   0.99301   0.00000  Uiso   1.00
C332   C     0.57453   0.67627   0.68918   0.00000  Uiso   1.00
C333   C     0.53053   0.69785   0.60413   0.00000  Uiso   1.00
C334   C     0.56275   0.68666   0.49588   0.00000  Uiso   1.00
C335   C     0.58879   0.68038   0.30635   0.00000  Uiso   1.00
C336   C     0.68595   0.62516   0.77241   0.00000  Uiso   1.00
C337   C     0.72149   0.66383   0.84941   0.00000  Uiso   1.00
C338   C     0.81552   0.66876   0.89474   0.00000  Uiso   1.00
C339   C     0.83341   0.70649   0.96322   0.00000  Uiso   1.00
C340   C     0.59547   0.60692   0.82903   0.00000  Uiso   1.00
C341   C     0.58354   0.56399   0.85720   0.00000  Uiso   1.00
C342   C     0.49534   0.55381   0.90851   0.00000  Uiso   1.00
C343   C     0.64808   0.64463   0.66690   0.00000  Uiso   1.00
C344   C     0.68036   0.63340   0.55876   0.00000  Uiso   1.00
C345   C     0.63643   0.65496   0.47357   0.00000  Uiso   1.00
H346   H     0.49326   0.70803   0.83076   0.00000  Uiso   1.00
H347   H     0.60875   0.75767   0.95734   0.00000  Uiso   1.00
H348   H     0.37680   0.65292   0.91979   0.00000  Uiso   1.00
H349   H     0.47362   0.72233   0.62140   0.00000  Uiso   1.00
H350   H     0.76922   0.79875   0.08788   0.00000  Uiso   1.00
H351   H     0.28013   0.57788   0.00868   0.00000  Uiso   1.00
H352   H     0.48427   0.72422   0.37945   0.00000  Uiso   1.00
H353   H     0.74321   0.60052   0.75507   0.00000  Uiso   1.00
H354   H     0.87243   0.64427   0.87749   0.00000  Uiso   1.00
H355   H     0.64047   0.53952   0.83995   0.00000  Uiso   1.00
H356   H     0.73728   0.60892   0.54156   0.00000  Uiso   1.00
H357   H     0.98323   0.70671   0.02308   0.00000  Uiso   1.00
H358   H     0.49413   0.48583   0.94387   0.00000  Uiso   1.00
H359   H     0.69827   0.63218   0.31465   0.00000  Uiso   1.00
O360   O     0.95670   0.78344   0.13741   0.00000  Uiso   1.00
O361   O     0.31502   0.49366   0.03348   0.00000  Uiso   1.00
O362   O     0.58285   0.68566   0.20796   0.00000  Uiso   1.00
N363   N     0.80186   0.77109   0.05581   0.00000  Uiso   1.00
N364   N     0.34459   0.56459   0.98178   0.00000  Uiso   1.00
N365   N     0.53543   0.70140   0.39350   0.00000  Uiso   1.00
N366   N     0.91702   0.72156   0.02094   0.00000  Uiso   1.00
N367   N     0.45975   0.51506   0.94691   0.00000  Uiso   1.00
N368   N     0.65058   0.65187   0.35863   0.00000  Uiso   1.00
