data_job_02571
_audit_creation_date              2018-12-19
_audit_creation_method            'Materials Studio'
_symmetry_space_group_name_H-M    'P1'
_symmetry_Int_Tables_number       1
_symmetry_cell_setting            triclinic
loop_
_symmetry_equiv_pos_as_xyz
  x,y,z
_cell_length_a                    19.6406
_cell_length_b                    12.4072
_cell_length_c                    9.3346
_cell_angle_alpha                 90.0000
_cell_angle_beta                  98.3942
_cell_angle_gamma                 90.0000
loop_
_atom_site_label
_atom_site_type_symbol
_atom_site_fract_x
_atom_site_fract_y
_atom_site_fract_z
_atom_site_U_iso_or_equiv
_atom_site_adp_type
_atom_site_occupancy
C1     C     0.15214   0.40042   0.94530   0.00000  Uiso   1.00
C2     C     0.18911   0.50721   0.93181   0.00000  Uiso   1.00
C3     C     0.24676   0.54314   0.02315   0.00000  Uiso   1.00
C4     C     0.27290   0.64315   0.99256   0.00000  Uiso   1.00
C5     C     0.33493   0.79959   0.98956   0.00000  Uiso   1.00
C6     C     0.07743   0.42908   0.95483   0.00000  Uiso   1.00
C7     C     0.04117   0.39929   0.06553   0.00000  Uiso   1.00
C8     C     0.97329   0.43352   0.05430   0.00000  Uiso   1.00
C9     C     0.86191   0.46858   0.08699   0.00000  Uiso   1.00
C10    C     0.15143   0.34292   0.80072   0.00000  Uiso   1.00
C11    C     0.17738   0.24068   0.78184   0.00000  Uiso   1.00
C12    C     0.17179   0.20235   0.64086   0.00000  Uiso   1.00
C13    C     0.17531   0.10364   0.43427   0.00000  Uiso   1.00
C14    C     0.09605   0.51413   0.72852   0.00000  Uiso   1.00
C15    C     0.15865   0.56897   0.81406   0.00000  Uiso   1.00
C16    C     0.18471   0.66895   0.78331   0.00000  Uiso   1.00
C17    C     0.24239   0.70502   0.87460   0.00000  Uiso   1.00
C18    C     0.04696   0.49084   0.83709   0.00000  Uiso   1.00
C19    C     0.97912   0.52510   0.82569   0.00000  Uiso   1.00
C20    C     0.94277   0.49539   0.93634   0.00000  Uiso   1.00
C21    C     0.12097   0.40468   0.68297   0.00000  Uiso   1.00
C22    C     0.11533   0.36649   0.54200   0.00000  Uiso   1.00
C23    C     0.14127   0.26422   0.52290   0.00000  Uiso   1.00
H24    H     0.17585   0.35234   0.03697   0.00000  Uiso   1.00
H25    H     0.27032   0.49532   0.11427   0.00000  Uiso   1.00
H26    H     0.06476   0.35149   0.15663   0.00000  Uiso   1.00
H27    H     0.20095   0.19291   0.87298   0.00000  Uiso   1.00
H28    H     0.36160   0.68110   0.14808   0.00000  Uiso   1.00
H29    H     0.92816   0.37779   0.23736   0.00000  Uiso   1.00
H30    H     0.21534   0.04339   0.63924   0.00000  Uiso   1.00
H31    H     0.07233   0.56222   0.63685   0.00000  Uiso   1.00
H32    H     0.16113   0.71673   0.69219   0.00000  Uiso   1.00
H33    H     0.95557   0.57289   0.73455   0.00000  Uiso   1.00
H34    H     0.09176   0.41431   0.45090   0.00000  Uiso   1.00
H35    H     0.27298   0.86081   0.80550   0.00000  Uiso   1.00
H36    H     0.83954   0.55749   0.89478   0.00000  Uiso   1.00
H37    H     0.12672   0.22309   0.29666   0.00000  Uiso   1.00
O38    O     0.37756   0.86882   0.02044   0.00000  Uiso   1.00
O39    O     0.80890   0.47087   0.13756   0.00000  Uiso   1.00
O40    O     0.18568   0.03214   0.35285   0.00000  Uiso   1.00
N41    N     0.32857   0.70218   0.05984   0.00000  Uiso   1.00
N42    N     0.92333   0.41862   0.14333   0.00000  Uiso   1.00
N43    N     0.19181   0.10597   0.58414   0.00000  Uiso   1.00
N44    N     0.28088   0.79888   0.87550   0.00000  Uiso   1.00
N45    N     0.87564   0.51532   0.95899   0.00000  Uiso   1.00
N46    N     0.14412   0.20266   0.39980   0.00000  Uiso   1.00
C47    C     0.63937   0.85416   0.45669   0.00000  Uiso   1.00
C48    C     0.68643   0.95033   0.49859   0.00000  Uiso   1.00
C49    C     0.74339   0.95097   0.60579   0.00000  Uiso   1.00
C50    C     0.77974   0.04697   0.62758   0.00000  Uiso   1.00
C51    C     0.85584   0.18231   0.70523   0.00000  Uiso   1.00
C52    C     0.56687   0.89168   0.47228   0.00000  Uiso   1.00
C53    C     0.52331   0.84299   0.55736   0.00000  Uiso   1.00
C54    C     0.45902   0.88962   0.55699   0.00000  Uiso   1.00
C55    C     0.34948   0.93386   0.59372   0.00000  Uiso   1.00
C56    C     0.63963   0.83655   0.29511   0.00000  Uiso   1.00
C57    C     0.65721   0.74150   0.23119   0.00000  Uiso   1.00
C58    C     0.65416   0.74170   0.08165   0.00000  Uiso   1.00
C59    C     0.65759   0.70033   0.84328   0.00000  Uiso   1.00
C60    C     0.60266   0.02352   0.30476   0.00000  Uiso   1.00
C61    C     0.66649   0.04231   0.41606   0.00000  Uiso   1.00
C62    C     0.70277   0.13834   0.43769   0.00000  Uiso   1.00
C63    C     0.75977   0.13912   0.54490   0.00000  Uiso   1.00
C64    C     0.54694   0.98366   0.38976   0.00000  Uiso   1.00
C65    C     0.48269   0.03036   0.38926   0.00000  Uiso   1.00
C66    C     0.43904   0.98177   0.47432   0.00000  Uiso   1.00
C67    C     0.61969   0.92853   0.21258   0.00000  Uiso   1.00
C68    C     0.61661   0.92887   0.06310   0.00000  Uiso   1.00
C69    C     0.63419   0.83385   0.99897   0.00000  Uiso   1.00
H70    H     0.65488   0.78255   0.52094   0.00000  Uiso   1.00
H71    H     0.75880   0.87977   0.66964   0.00000  Uiso   1.00
H72    H     0.53875   0.77181   0.62120   0.00000  Uiso   1.00
H73    H     0.67264   0.67033   0.29509   0.00000  Uiso   1.00
H74    H     0.86519   0.02813   0.79813   0.00000  Uiso   1.00
H75    H     0.40120   0.80046   0.69596   0.00000  Uiso   1.00
H76    H     0.68354   0.58648   0.00829   0.00000  Uiso   1.00
H77    H     0.58713   0.09513   0.24051   0.00000  Uiso   1.00
H78    H     0.68733   0.20951   0.37381   0.00000  Uiso   1.00
H79    H     0.46728   0.10154   0.32538   0.00000  Uiso   1.00
H80    H     0.60117   0.00007   0.99927   0.00000  Uiso   1.00
H81    H     0.80719   0.29576   0.55803   0.00000  Uiso   1.00
H82    H     0.34319   0.06809   0.45586   0.00000  Uiso   1.00
H83    H     0.62553   0.85411   0.76820   0.00000  Uiso   1.00
O84    O     0.90331   0.23155   0.77087   0.00000  Uiso   1.00
O85    O     0.29457   0.93285   0.63680   0.00000  Uiso   1.00
O86    O     0.66499   0.65211   0.73461   0.00000  Uiso   1.00
N87    N     0.83780   0.07541   0.72331   0.00000  Uiso   1.00
N88    N     0.40400   0.86257   0.62780   0.00000  Uiso   1.00
N89    N     0.66794   0.66250   0.98489   0.00000  Uiso   1.00
N90    N     0.80659   0.21942   0.59411   0.00000  Uiso   1.00
N91    N     0.37279   0.00658   0.49861   0.00000  Uiso   1.00
N92    N     0.63673   0.80651   0.85570   0.00000  Uiso   1.00
C93    C     0.84786   0.90042   0.05470   0.00000  Uiso   1.00
C94    C     0.81089   0.00721   0.06819   0.00000  Uiso   1.00
C95    C     0.75324   0.04314   0.97685   0.00000  Uiso   1.00
C96    C     0.72710   0.14315   0.00744   0.00000  Uiso   1.00
C97    C     0.66507   0.29959   0.01044   0.00000  Uiso   1.00
C98    C     0.92257   0.92908   0.04517   0.00000  Uiso   1.00
C99    C     0.95883   0.89929   0.93447   0.00000  Uiso   1.00
C100   C     0.02671   0.93352   0.94570   0.00000  Uiso   1.00
C101   C     0.13809   0.96858   0.91301   0.00000  Uiso   1.00
C102   C     0.84857   0.84292   0.19928   0.00000  Uiso   1.00
C103   C     0.82262   0.74068   0.21816   0.00000  Uiso   1.00
C104   C     0.82821   0.70235   0.35914   0.00000  Uiso   1.00
C105   C     0.82469   0.60364   0.56573   0.00000  Uiso   1.00
C106   C     0.90395   0.01413   0.27148   0.00000  Uiso   1.00
C107   C     0.84135   0.06897   0.18594   0.00000  Uiso   1.00
C108   C     0.81529   0.16895   0.21669   0.00000  Uiso   1.00
C109   C     0.75761   0.20502   0.12540   0.00000  Uiso   1.00
C110   C     0.95304   0.99084   0.16291   0.00000  Uiso   1.00
C111   C     0.02088   0.02510   0.17431   0.00000  Uiso   1.00
C112   C     0.05723   0.99539   0.06366   0.00000  Uiso   1.00
C113   C     0.87903   0.90468   0.31703   0.00000  Uiso   1.00
C114   C     0.88467   0.86649   0.45800   0.00000  Uiso   1.00
C115   C     0.85873   0.76422   0.47710   0.00000  Uiso   1.00
H116   H     0.82415   0.85234   0.96303   0.00000  Uiso   1.00
H117   H     0.72968   0.99532   0.88573   0.00000  Uiso   1.00
H118   H     0.93524   0.85149   0.84337   0.00000  Uiso   1.00
H119   H     0.79905   0.69291   0.12702   0.00000  Uiso   1.00
H120   H     0.63840   0.18110   0.85192   0.00000  Uiso   1.00
H121   H     0.07184   0.87779   0.76264   0.00000  Uiso   1.00
H122   H     0.78466   0.54339   0.36076   0.00000  Uiso   1.00
H123   H     0.92767   0.06222   0.36315   0.00000  Uiso   1.00
H124   H     0.83887   0.21673   0.30781   0.00000  Uiso   1.00
H125   H     0.04443   0.07289   0.26545   0.00000  Uiso   1.00
H126   H     0.90824   0.91431   0.54910   0.00000  Uiso   1.00
H127   H     0.72702   0.36081   0.19450   0.00000  Uiso   1.00
H128   H     0.16046   0.05749   0.10522   0.00000  Uiso   1.00
H129   H     0.87328   0.72309   0.70334   0.00000  Uiso   1.00
O130   O     0.62244   0.36882   0.97956   0.00000  Uiso   1.00
O131   O     0.19110   0.97087   0.86244   0.00000  Uiso   1.00
O132   O     0.81432   0.53214   0.64715   0.00000  Uiso   1.00
N133   N     0.67143   0.20218   0.94016   0.00000  Uiso   1.00
N134   N     0.07667   0.91862   0.85667   0.00000  Uiso   1.00
N135   N     0.80819   0.60597   0.41586   0.00000  Uiso   1.00
N136   N     0.71912   0.29888   0.12450   0.00000  Uiso   1.00
N137   N     0.12436   0.01532   0.04101   0.00000  Uiso   1.00
N138   N     0.85588   0.70266   0.60020   0.00000  Uiso   1.00
C139   C     0.36063   0.35416   0.54331   0.00000  Uiso   1.00
C140   C     0.31357   0.45033   0.50141   0.00000  Uiso   1.00
C141   C     0.25661   0.45097   0.39421   0.00000  Uiso   1.00
C142   C     0.22026   0.54697   0.37242   0.00000  Uiso   1.00
C143   C     0.14416   0.68231   0.29477   0.00000  Uiso   1.00
C144   C     0.43313   0.39168   0.52772   0.00000  Uiso   1.00
C145   C     0.47669   0.34299   0.44264   0.00000  Uiso   1.00
C146   C     0.54098   0.38962   0.44301   0.00000  Uiso   1.00
C147   C     0.65052   0.43386   0.40628   0.00000  Uiso   1.00
C148   C     0.36037   0.33655   0.70489   0.00000  Uiso   1.00
C149   C     0.34279   0.24150   0.76881   0.00000  Uiso   1.00
C150   C     0.34584   0.24170   0.91835   0.00000  Uiso   1.00
C151   C     0.34241   0.20033   0.15672   0.00000  Uiso   1.00
C152   C     0.39734   0.52352   0.69524   0.00000  Uiso   1.00
C153   C     0.33351   0.54231   0.58394   0.00000  Uiso   1.00
C154   C     0.29723   0.63834   0.56231   0.00000  Uiso   1.00
C155   C     0.24023   0.63912   0.45510   0.00000  Uiso   1.00
C156   C     0.45306   0.48366   0.61024   0.00000  Uiso   1.00
C157   C     0.51731   0.53036   0.61074   0.00000  Uiso   1.00
C158   C     0.56096   0.48177   0.52568   0.00000  Uiso   1.00
C159   C     0.38031   0.42853   0.78742   0.00000  Uiso   1.00
C160   C     0.38339   0.42887   0.93690   0.00000  Uiso   1.00
C161   C     0.36581   0.33385   0.00103   0.00000  Uiso   1.00
H162   H     0.34512   0.28255   0.47906   0.00000  Uiso   1.00
H163   H     0.24120   0.37977   0.33036   0.00000  Uiso   1.00
H164   H     0.46125   0.27181   0.37880   0.00000  Uiso   1.00
H165   H     0.32736   0.17033   0.70491   0.00000  Uiso   1.00
H166   H     0.13481   0.52813   0.20187   0.00000  Uiso   1.00
H167   H     0.59880   0.30046   0.30404   0.00000  Uiso   1.00
H168   H     0.31646   0.08648   0.99171   0.00000  Uiso   1.00
H169   H     0.41287   0.59513   0.75949   0.00000  Uiso   1.00
H170   H     0.31267   0.70951   0.62619   0.00000  Uiso   1.00
H171   H     0.53272   0.60154   0.67462   0.00000  Uiso   1.00
H172   H     0.39883   0.50007   0.00073   0.00000  Uiso   1.00
H173   H     0.19281   0.79576   0.44197   0.00000  Uiso   1.00
H174   H     0.65681   0.56809   0.54414   0.00000  Uiso   1.00
H175   H     0.37447   0.35411   0.23180   0.00000  Uiso   1.00
O176   O     0.09669   0.73155   0.22913   0.00000  Uiso   1.00
O177   O     0.70543   0.43285   0.36320   0.00000  Uiso   1.00
O178   O     0.33501   0.15211   0.26539   0.00000  Uiso   1.00
N179   N     0.16220   0.57541   0.27669   0.00000  Uiso   1.00
N180   N     0.59600   0.36257   0.37220   0.00000  Uiso   1.00
N181   N     0.33206   0.16250   0.01511   0.00000  Uiso   1.00
N182   N     0.19341   0.71942   0.40589   0.00000  Uiso   1.00
N183   N     0.62721   0.50658   0.50139   0.00000  Uiso   1.00
N184   N     0.36327   0.30651   0.14430   0.00000  Uiso   1.00
