data_job_02020
_audit_creation_date              2018-12-19
_audit_creation_method            'Materials Studio'
_symmetry_space_group_name_H-M    'P1'
_symmetry_Int_Tables_number       1
_symmetry_cell_setting            triclinic
loop_
_symmetry_equiv_pos_as_xyz
  x,y,z
_cell_length_a                    12.6170
_cell_length_b                    19.1610
_cell_length_c                    11.9067
_cell_angle_alpha                 90.0000
_cell_angle_beta                  73.9580
_cell_angle_gamma                 90.0000
loop_
_atom_site_label
_atom_site_type_symbol
_atom_site_fract_x
_atom_site_fract_y
_atom_site_fract_z
_atom_site_U_iso_or_equiv
_atom_site_adp_type
_atom_site_occupancy
C1     C     0.74395   0.04481   0.26665   0.00000  Uiso   1.00
C2     C     0.82653   0.08437   0.16983   0.00000  Uiso   1.00
C3     C     0.88102   0.05785   0.06068   0.00000  Uiso   1.00
C4     C     0.95336   0.10237   0.98438   0.00000  Uiso   1.00
C5     C     0.07902   0.15337   0.82923   0.00000  Uiso   1.00
C6     C     0.78839   0.04829   0.37332   0.00000  Uiso   1.00
C7     C     0.81079   0.99144   0.43527   0.00000  Uiso   1.00
C8     C     0.85100   0.00558   0.53028   0.00000  Uiso   1.00
C9     C     0.91735   0.00057   0.69110   0.00000  Uiso   1.00
C10    C     0.63859   0.08824   0.29694   0.00000  Uiso   1.00
C11    C     0.53502   0.06497   0.29471   0.00000  Uiso   1.00
C12    C     0.44910   0.11275   0.32545   0.00000  Uiso   1.00
C13    C     0.28287   0.16976   0.36768   0.00000  Uiso   1.00
C14    C     0.77552   0.17102   0.32523   0.00000  Uiso   1.00
C15    C     0.84368   0.15293   0.20165   0.00000  Uiso   1.00
C16    C     0.91594   0.19750   0.12549   0.00000  Uiso   1.00
C17    C     0.97053   0.17105   0.01625   0.00000  Uiso   1.00
C18    C     0.80553   0.11685   0.40514   0.00000  Uiso   1.00
C19    C     0.84571   0.13108   0.50008   0.00000  Uiso   1.00
C20    C     0.86817   0.07426   0.56215   0.00000  Uiso   1.00
C21    C     0.65573   0.15680   0.32876   0.00000  Uiso   1.00
C22    C     0.56995   0.20462   0.35951   0.00000  Uiso   1.00
C23    C     0.46628   0.18143   0.35732   0.00000  Uiso   1.00
H24    H     0.73061   0.99143   0.24188   0.00000  Uiso   1.00
H25    H     0.86774   0.00479   0.03610   0.00000  Uiso   1.00
H26    H     0.79750   0.93839   0.41063   0.00000  Uiso   1.00
H27    H     0.52179   0.01192   0.27009   0.00000  Uiso   1.00
H28    H     0.02737   0.04984   0.82200   0.00000  Uiso   1.00
H29    H     0.87923   0.90982   0.61174   0.00000  Uiso   1.00
H30    H     0.29783   0.06486   0.31538   0.00000  Uiso   1.00
H31    H     0.78886   0.22440   0.35000   0.00000  Uiso   1.00
H32    H     0.92920   0.25055   0.15014   0.00000  Uiso   1.00
H33    H     0.85896   0.18414   0.52468   0.00000  Uiso   1.00
H34    H     0.58324   0.25767   0.38413   0.00000  Uiso   1.00
H35    H     0.07725   0.24930   0.91456   0.00000  Uiso   1.00
H36    H     0.92911   0.10928   0.70432   0.00000  Uiso   1.00
H37    H     0.34771   0.26432   0.40795   0.00000  Uiso   1.00
O38    O     0.14360   0.16256   0.73487   0.00000  Uiso   1.00
O39    O     0.94923   0.97886   0.77100   0.00000  Uiso   1.00
O40    O     0.18645   0.18227   0.38217   0.00000  Uiso   1.00
N41    N     0.01983   0.09320   0.87120   0.00000  Uiso   1.00
N42    N     0.88135   0.96229   0.60956   0.00000  Uiso   1.00
N43    N     0.33778   0.10723   0.33251   0.00000  Uiso   1.00
N44    N     0.04667   0.20053   0.92101   0.00000  Uiso   1.00
N45    N     0.90819   0.06962   0.65937   0.00000  Uiso   1.00
N46    N     0.36462   0.21456   0.38232   0.00000  Uiso   1.00
C47    C     0.25605   0.54481   0.23335   0.00000  Uiso   1.00
C48    C     0.17347   0.58437   0.33017   0.00000  Uiso   1.00
C49    C     0.11898   0.55785   0.43932   0.00000  Uiso   1.00
C50    C     0.04664   0.60237   0.51562   0.00000  Uiso   1.00
C51    C     0.92098   0.65337   0.67077   0.00000  Uiso   1.00
C52    C     0.21161   0.54829   0.12668   0.00000  Uiso   1.00
C53    C     0.18921   0.49144   0.06473   0.00000  Uiso   1.00
C54    C     0.14900   0.50558   0.96972   0.00000  Uiso   1.00
C55    C     0.08265   0.50057   0.80890   0.00000  Uiso   1.00
C56    C     0.36141   0.58824   0.20306   0.00000  Uiso   1.00
C57    C     0.46498   0.56497   0.20529   0.00000  Uiso   1.00
C58    C     0.55090   0.61275   0.17455   0.00000  Uiso   1.00
C59    C     0.71713   0.66976   0.13232   0.00000  Uiso   1.00
C60    C     0.22448   0.67102   0.17477   0.00000  Uiso   1.00
C61    C     0.15632   0.65293   0.29835   0.00000  Uiso   1.00
C62    C     0.08406   0.69750   0.37451   0.00000  Uiso   1.00
C63    C     0.02947   0.67105   0.48375   0.00000  Uiso   1.00
C64    C     0.19447   0.61685   0.09486   0.00000  Uiso   1.00
C65    C     0.15429   0.63108   0.99992   0.00000  Uiso   1.00
C66    C     0.13183   0.57426   0.93785   0.00000  Uiso   1.00
C67    C     0.34427   0.65680   0.17124   0.00000  Uiso   1.00
C68    C     0.43005   0.70462   0.14049   0.00000  Uiso   1.00
C69    C     0.53372   0.68143   0.14268   0.00000  Uiso   1.00
H70    H     0.26939   0.49143   0.25812   0.00000  Uiso   1.00
H71    H     0.13226   0.50479   0.46390   0.00000  Uiso   1.00
H72    H     0.20250   0.43839   0.08937   0.00000  Uiso   1.00
H73    H     0.47821   0.51192   0.22991   0.00000  Uiso   1.00
H74    H     0.97263   0.54984   0.67800   0.00000  Uiso   1.00
H75    H     0.12077   0.40982   0.88826   0.00000  Uiso   1.00
H76    H     0.70217   0.56486   0.18462   0.00000  Uiso   1.00
H77    H     0.21114   0.72440   0.15000   0.00000  Uiso   1.00
H78    H     0.07080   0.75055   0.34986   0.00000  Uiso   1.00
H79    H     0.14104   0.68414   0.97532   0.00000  Uiso   1.00
H80    H     0.41676   0.75767   0.11587   0.00000  Uiso   1.00
H81    H     0.92275   0.74930   0.58544   0.00000  Uiso   1.00
H82    H     0.07089   0.60928   0.79568   0.00000  Uiso   1.00
H83    H     0.65229   0.76432   0.09205   0.00000  Uiso   1.00
O84    O     0.85640   0.66256   0.76513   0.00000  Uiso   1.00
O85    O     0.05077   0.47886   0.72900   0.00000  Uiso   1.00
O86    O     0.81355   0.68227   0.11783   0.00000  Uiso   1.00
N87    N     0.98017   0.59320   0.62880   0.00000  Uiso   1.00
N88    N     0.11865   0.46229   0.89044   0.00000  Uiso   1.00
N89    N     0.66222   0.60723   0.16749   0.00000  Uiso   1.00
N90    N     0.95333   0.70053   0.57899   0.00000  Uiso   1.00
N91    N     0.09181   0.56962   0.84063   0.00000  Uiso   1.00
N92    N     0.63538   0.71456   0.11768   0.00000  Uiso   1.00
C93    C     0.25605   0.95519   0.73335   0.00000  Uiso   1.00
C94    C     0.17347   0.91563   0.83017   0.00000  Uiso   1.00
C95    C     0.11898   0.94215   0.93932   0.00000  Uiso   1.00
C96    C     0.04664   0.89763   0.01562   0.00000  Uiso   1.00
C97    C     0.92098   0.84663   0.17077   0.00000  Uiso   1.00
C98    C     0.21161   0.95171   0.62668   0.00000  Uiso   1.00
C99    C     0.18921   0.00856   0.56473   0.00000  Uiso   1.00
C100   C     0.14900   0.99442   0.46972   0.00000  Uiso   1.00
C101   C     0.08265   0.99943   0.30890   0.00000  Uiso   1.00
C102   C     0.36141   0.91176   0.70306   0.00000  Uiso   1.00
C103   C     0.46498   0.93503   0.70529   0.00000  Uiso   1.00
C104   C     0.55090   0.88725   0.67455   0.00000  Uiso   1.00
C105   C     0.71713   0.83024   0.63232   0.00000  Uiso   1.00
C106   C     0.22448   0.82898   0.67477   0.00000  Uiso   1.00
C107   C     0.15632   0.84707   0.79835   0.00000  Uiso   1.00
C108   C     0.08406   0.80250   0.87451   0.00000  Uiso   1.00
C109   C     0.02947   0.82895   0.98375   0.00000  Uiso   1.00
C110   C     0.19447   0.88315   0.59486   0.00000  Uiso   1.00
C111   C     0.15429   0.86892   0.49992   0.00000  Uiso   1.00
C112   C     0.13183   0.92574   0.43785   0.00000  Uiso   1.00
C113   C     0.34427   0.84320   0.67124   0.00000  Uiso   1.00
C114   C     0.43005   0.79538   0.64049   0.00000  Uiso   1.00
C115   C     0.53372   0.81857   0.64268   0.00000  Uiso   1.00
H116   H     0.26939   0.00857   0.75812   0.00000  Uiso   1.00
H117   H     0.13226   0.99521   0.96390   0.00000  Uiso   1.00
H118   H     0.20250   0.06161   0.58937   0.00000  Uiso   1.00
H119   H     0.47821   0.98808   0.72991   0.00000  Uiso   1.00
H120   H     0.97263   0.95016   0.17800   0.00000  Uiso   1.00
H121   H     0.12077   0.09018   0.38826   0.00000  Uiso   1.00
H122   H     0.70217   0.93514   0.68462   0.00000  Uiso   1.00
H123   H     0.21114   0.77560   0.65000   0.00000  Uiso   1.00
H124   H     0.07080   0.74945   0.84986   0.00000  Uiso   1.00
H125   H     0.14104   0.81586   0.47532   0.00000  Uiso   1.00
H126   H     0.41676   0.74233   0.61587   0.00000  Uiso   1.00
H127   H     0.92275   0.75070   0.08544   0.00000  Uiso   1.00
H128   H     0.07089   0.89072   0.29568   0.00000  Uiso   1.00
H129   H     0.65229   0.73568   0.59205   0.00000  Uiso   1.00
O130   O     0.85640   0.83744   0.26513   0.00000  Uiso   1.00
O131   O     0.05077   0.02114   0.22900   0.00000  Uiso   1.00
O132   O     0.81355   0.81773   0.61783   0.00000  Uiso   1.00
N133   N     0.98017   0.90680   0.12880   0.00000  Uiso   1.00
N134   N     0.11865   0.03771   0.39044   0.00000  Uiso   1.00
N135   N     0.66222   0.89277   0.66749   0.00000  Uiso   1.00
N136   N     0.95333   0.79947   0.07899   0.00000  Uiso   1.00
N137   N     0.09181   0.93038   0.34063   0.00000  Uiso   1.00
N138   N     0.63538   0.78544   0.61768   0.00000  Uiso   1.00
C139   C     0.74395   0.45519   0.76665   0.00000  Uiso   1.00
C140   C     0.82653   0.41563   0.66983   0.00000  Uiso   1.00
C141   C     0.88102   0.44215   0.56068   0.00000  Uiso   1.00
C142   C     0.95336   0.39763   0.48438   0.00000  Uiso   1.00
C143   C     0.07902   0.34663   0.32923   0.00000  Uiso   1.00
C144   C     0.78839   0.45171   0.87332   0.00000  Uiso   1.00
C145   C     0.81079   0.50856   0.93527   0.00000  Uiso   1.00
C146   C     0.85100   0.49442   0.03028   0.00000  Uiso   1.00
C147   C     0.91735   0.49943   0.19110   0.00000  Uiso   1.00
C148   C     0.63859   0.41176   0.79694   0.00000  Uiso   1.00
C149   C     0.53502   0.43503   0.79471   0.00000  Uiso   1.00
C150   C     0.44910   0.38725   0.82545   0.00000  Uiso   1.00
C151   C     0.28287   0.33024   0.86768   0.00000  Uiso   1.00
C152   C     0.77552   0.32898   0.82523   0.00000  Uiso   1.00
C153   C     0.84368   0.34707   0.70165   0.00000  Uiso   1.00
C154   C     0.91594   0.30250   0.62549   0.00000  Uiso   1.00
C155   C     0.97053   0.32895   0.51625   0.00000  Uiso   1.00
C156   C     0.80553   0.38315   0.90514   0.00000  Uiso   1.00
C157   C     0.84571   0.36892   0.00008   0.00000  Uiso   1.00
C158   C     0.86817   0.42574   0.06215   0.00000  Uiso   1.00
C159   C     0.65573   0.34320   0.82876   0.00000  Uiso   1.00
C160   C     0.56995   0.29538   0.85951   0.00000  Uiso   1.00
C161   C     0.46628   0.31857   0.85732   0.00000  Uiso   1.00
H162   H     0.73061   0.50857   0.74188   0.00000  Uiso   1.00
H163   H     0.86774   0.49521   0.53610   0.00000  Uiso   1.00
H164   H     0.79750   0.56161   0.91063   0.00000  Uiso   1.00
H165   H     0.52179   0.48808   0.77009   0.00000  Uiso   1.00
H166   H     0.02737   0.45016   0.32200   0.00000  Uiso   1.00
H167   H     0.87923   0.59018   0.11174   0.00000  Uiso   1.00
H168   H     0.29783   0.43514   0.81538   0.00000  Uiso   1.00
H169   H     0.78886   0.27560   0.85000   0.00000  Uiso   1.00
H170   H     0.92920   0.24945   0.65014   0.00000  Uiso   1.00
H171   H     0.85896   0.31586   0.02468   0.00000  Uiso   1.00
H172   H     0.58324   0.24233   0.88413   0.00000  Uiso   1.00
H173   H     0.07725   0.25070   0.41456   0.00000  Uiso   1.00
H174   H     0.92911   0.39072   0.20432   0.00000  Uiso   1.00
H175   H     0.34771   0.23568   0.90795   0.00000  Uiso   1.00
O176   O     0.14360   0.33744   0.23487   0.00000  Uiso   1.00
O177   O     0.94923   0.52114   0.27100   0.00000  Uiso   1.00
O178   O     0.18645   0.31773   0.88217   0.00000  Uiso   1.00
N179   N     0.01983   0.40680   0.37120   0.00000  Uiso   1.00
N180   N     0.88135   0.53771   0.10956   0.00000  Uiso   1.00
N181   N     0.33778   0.39277   0.83251   0.00000  Uiso   1.00
N182   N     0.04667   0.29947   0.42101   0.00000  Uiso   1.00
N183   N     0.90819   0.43038   0.15937   0.00000  Uiso   1.00
N184   N     0.36462   0.28544   0.88232   0.00000  Uiso   1.00
