data_job_05652
_audit_creation_date              2018-12-19
_audit_creation_method            'Materials Studio'
_symmetry_space_group_name_H-M    'P1'
_symmetry_Int_Tables_number       1
_symmetry_cell_setting            triclinic
loop_
_symmetry_equiv_pos_as_xyz
  x,y,z
_cell_length_a                    21.7713
_cell_length_b                    22.3485
_cell_length_c                    10.2392
_cell_angle_alpha                 90.0000
_cell_angle_beta                  90.0000
_cell_angle_gamma                 90.0000
loop_
_atom_site_label
_atom_site_type_symbol
_atom_site_fract_x
_atom_site_fract_y
_atom_site_fract_z
_atom_site_U_iso_or_equiv
_atom_site_adp_type
_atom_site_occupancy
C1     C     0.12819   0.14743   0.62242   0.00000  Uiso   1.00
C2     C     0.19657   0.16067   0.60811   0.00000  Uiso   1.00
C3     C     0.22180   0.20862   0.54075   0.00000  Uiso   1.00
C4     C     0.28542   0.21286   0.53905   0.00000  Uiso   1.00
C5     C     0.38597   0.23982   0.50713   0.00000  Uiso   1.00
C6     C     0.11888   0.08415   0.57035   0.00000  Uiso   1.00
C7     C     0.07877   0.06776   0.47124   0.00000  Uiso   1.00
C8     C     0.07698   0.00758   0.43777   0.00000  Uiso   1.00
C9     C     0.05688   0.91574   0.34728   0.00000  Uiso   1.00
C10    C     0.11580   0.14418   0.76883   0.00000  Uiso   1.00
C11    C     0.07311   0.17827   0.83661   0.00000  Uiso   1.00
C12    C     0.06872   0.16863   0.97025   0.00000  Uiso   1.00
C13    C     0.04384   0.17001   0.18793   0.00000  Uiso   1.00
C14    C     0.19631   0.06968   0.73921   0.00000  Uiso   1.00
C15    C     0.23357   0.11844   0.67155   0.00000  Uiso   1.00
C16    C     0.29717   0.12261   0.66996   0.00000  Uiso   1.00
C17    C     0.32249   0.17056   0.60261   0.00000  Uiso   1.00
C18    C     0.15587   0.04192   0.63378   0.00000  Uiso   1.00
C19    C     0.15414   0.98175   0.60045   0.00000  Uiso   1.00
C20    C     0.11405   0.96528   0.50132   0.00000  Uiso   1.00
C21    C     0.15280   0.10196   0.83227   0.00000  Uiso   1.00
C22    C     0.14847   0.09226   0.96582   0.00000  Uiso   1.00
C23    C     0.10578   0.12633   0.03379   0.00000  Uiso   1.00
H24    H     0.09939   0.18030   0.57303   0.00000  Uiso   1.00
H25    H     0.19316   0.24128   0.49166   0.00000  Uiso   1.00
H26    H     0.05015   0.10045   0.42218   0.00000  Uiso   1.00
H27    H     0.04448   0.21094   0.78749   0.00000  Uiso   1.00
H28    H     0.31343   0.29026   0.42938   0.00000  Uiso   1.00
H29    H     0.01187   0.99330   0.28290   0.00000  Uiso   1.00
H30    H     0.99993   0.22630   0.05323   0.00000  Uiso   1.00
H31    H     0.22511   0.03681   0.78860   0.00000  Uiso   1.00
H32    H     0.32579   0.08992   0.71906   0.00000  Uiso   1.00
H33    H     0.18277   0.94909   0.64957   0.00000  Uiso   1.00
H34    H     0.17711   0.05958   0.01488   0.00000  Uiso   1.00
H35    H     0.42108   0.16741   0.61394   0.00000  Uiso   1.00
H36    H     0.11951   0.87045   0.46746   0.00000  Uiso   1.00
H37    H     0.10758   0.10345   0.23779   0.00000  Uiso   1.00
O38    O     0.43122   0.26636   0.47198   0.00000  Uiso   1.00
O39    O     0.03557   0.87675   0.27983   0.00000  Uiso   1.00
O40    O     0.01990   0.18244   0.29048   0.00000  Uiso   1.00
N41    N     0.32495   0.25407   0.48238   0.00000  Uiso   1.00
N42    N     0.04302   0.97643   0.34541   0.00000  Uiso   1.00
N43    N     0.03184   0.19425   0.06560   0.00000  Uiso   1.00
N44    N     0.38288   0.18796   0.58169   0.00000  Uiso   1.00
N45    N     0.10094   0.91032   0.44472   0.00000  Uiso   1.00
N46    N     0.08976   0.12814   0.16491   0.00000  Uiso   1.00
C47    C     0.37181   0.85257   0.12242   0.00000  Uiso   1.00
C48    C     0.30343   0.83933   0.10811   0.00000  Uiso   1.00
C49    C     0.27820   0.79138   0.04075   0.00000  Uiso   1.00
C50    C     0.21458   0.78714   0.03905   0.00000  Uiso   1.00
C51    C     0.11403   0.76018   0.00713   0.00000  Uiso   1.00
C52    C     0.38112   0.91585   0.07035   0.00000  Uiso   1.00
C53    C     0.42123   0.93224   0.97124   0.00000  Uiso   1.00
C54    C     0.42302   0.99242   0.93777   0.00000  Uiso   1.00
C55    C     0.44312   0.08426   0.84728   0.00000  Uiso   1.00
C56    C     0.38420   0.85582   0.26883   0.00000  Uiso   1.00
C57    C     0.42689   0.82173   0.33661   0.00000  Uiso   1.00
C58    C     0.43128   0.83137   0.47025   0.00000  Uiso   1.00
C59    C     0.45616   0.82999   0.68793   0.00000  Uiso   1.00
C60    C     0.30369   0.93032   0.23921   0.00000  Uiso   1.00
C61    C     0.26643   0.88156   0.17155   0.00000  Uiso   1.00
C62    C     0.20283   0.87739   0.16996   0.00000  Uiso   1.00
C63    C     0.17751   0.82944   0.10261   0.00000  Uiso   1.00
C64    C     0.34413   0.95808   0.13378   0.00000  Uiso   1.00
C65    C     0.34586   0.01825   0.10045   0.00000  Uiso   1.00
C66    C     0.38595   0.03472   0.00132   0.00000  Uiso   1.00
C67    C     0.34720   0.89804   0.33227   0.00000  Uiso   1.00
C68    C     0.35153   0.90774   0.46582   0.00000  Uiso   1.00
C69    C     0.39422   0.87367   0.53379   0.00000  Uiso   1.00
H70    H     0.40061   0.81970   0.07303   0.00000  Uiso   1.00
H71    H     0.30684   0.75872   0.99166   0.00000  Uiso   1.00
H72    H     0.44985   0.89955   0.92218   0.00000  Uiso   1.00
H73    H     0.45552   0.78906   0.28749   0.00000  Uiso   1.00
H74    H     0.18657   0.70974   0.92938   0.00000  Uiso   1.00
H75    H     0.48813   0.00670   0.78290   0.00000  Uiso   1.00
H76    H     0.50007   0.77370   0.55323   0.00000  Uiso   1.00
H77    H     0.27489   0.96319   0.28860   0.00000  Uiso   1.00
H78    H     0.17421   0.91008   0.21906   0.00000  Uiso   1.00
H79    H     0.31723   0.05091   0.14957   0.00000  Uiso   1.00
H80    H     0.32289   0.94042   0.51488   0.00000  Uiso   1.00
H81    H     0.07892   0.83259   0.11394   0.00000  Uiso   1.00
H82    H     0.38049   0.12955   0.96746   0.00000  Uiso   1.00
H83    H     0.39242   0.89655   0.73779   0.00000  Uiso   1.00
O84    O     0.06878   0.73364   0.97198   0.00000  Uiso   1.00
O85    O     0.46443   0.12325   0.77983   0.00000  Uiso   1.00
O86    O     0.48010   0.81756   0.79048   0.00000  Uiso   1.00
N87    N     0.17505   0.74593   0.98238   0.00000  Uiso   1.00
N88    N     0.45698   0.02357   0.84541   0.00000  Uiso   1.00
N89    N     0.46816   0.80575   0.56560   0.00000  Uiso   1.00
N90    N     0.11712   0.81204   0.08169   0.00000  Uiso   1.00
N91    N     0.39906   0.08968   0.94472   0.00000  Uiso   1.00
N92    N     0.41024   0.87186   0.66491   0.00000  Uiso   1.00
C93    C     0.87181   0.64743   0.87758   0.00000  Uiso   1.00
C94    C     0.80343   0.66067   0.89189   0.00000  Uiso   1.00
C95    C     0.77820   0.70862   0.95925   0.00000  Uiso   1.00
C96    C     0.71458   0.71286   0.96095   0.00000  Uiso   1.00
C97    C     0.61403   0.73982   0.99287   0.00000  Uiso   1.00
C98    C     0.88112   0.58415   0.92965   0.00000  Uiso   1.00
C99    C     0.92123   0.56776   0.02876   0.00000  Uiso   1.00
C100   C     0.92302   0.50758   0.06223   0.00000  Uiso   1.00
C101   C     0.94312   0.41574   0.15272   0.00000  Uiso   1.00
C102   C     0.88420   0.64418   0.73117   0.00000  Uiso   1.00
C103   C     0.92689   0.67827   0.66339   0.00000  Uiso   1.00
C104   C     0.93128   0.66863   0.52975   0.00000  Uiso   1.00
C105   C     0.95616   0.67001   0.31207   0.00000  Uiso   1.00
C106   C     0.80369   0.56968   0.76079   0.00000  Uiso   1.00
C107   C     0.76643   0.61844   0.82845   0.00000  Uiso   1.00
C108   C     0.70283   0.62261   0.83004   0.00000  Uiso   1.00
C109   C     0.67751   0.67056   0.89739   0.00000  Uiso   1.00
C110   C     0.84413   0.54192   0.86622   0.00000  Uiso   1.00
C111   C     0.84586   0.48175   0.89955   0.00000  Uiso   1.00
C112   C     0.88595   0.46528   0.99868   0.00000  Uiso   1.00
C113   C     0.84720   0.60196   0.66773   0.00000  Uiso   1.00
C114   C     0.85153   0.59226   0.53418   0.00000  Uiso   1.00
C115   C     0.89422   0.62633   0.46621   0.00000  Uiso   1.00
H116   H     0.90061   0.68030   0.92697   0.00000  Uiso   1.00
H117   H     0.80684   0.74128   0.00834   0.00000  Uiso   1.00
H118   H     0.94985   0.60045   0.07782   0.00000  Uiso   1.00
H119   H     0.95552   0.71094   0.71251   0.00000  Uiso   1.00
H120   H     0.68657   0.79026   0.07062   0.00000  Uiso   1.00
H121   H     0.98813   0.49330   0.21710   0.00000  Uiso   1.00
H122   H     0.00007   0.72630   0.44677   0.00000  Uiso   1.00
H123   H     0.77489   0.53681   0.71140   0.00000  Uiso   1.00
H124   H     0.67421   0.58992   0.78094   0.00000  Uiso   1.00
H125   H     0.81723   0.44909   0.85043   0.00000  Uiso   1.00
H126   H     0.82289   0.55958   0.48512   0.00000  Uiso   1.00
H127   H     0.57892   0.66741   0.88606   0.00000  Uiso   1.00
H128   H     0.88049   0.37045   0.03254   0.00000  Uiso   1.00
H129   H     0.89242   0.60345   0.26221   0.00000  Uiso   1.00
O130   O     0.56878   0.76636   0.02802   0.00000  Uiso   1.00
O131   O     0.96443   0.37675   0.22017   0.00000  Uiso   1.00
O132   O     0.98010   0.68244   0.20952   0.00000  Uiso   1.00
N133   N     0.67505   0.75407   0.01762   0.00000  Uiso   1.00
N134   N     0.95698   0.47643   0.15459   0.00000  Uiso   1.00
N135   N     0.96816   0.69425   0.43440   0.00000  Uiso   1.00
N136   N     0.61712   0.68796   0.91831   0.00000  Uiso   1.00
N137   N     0.89906   0.41032   0.05528   0.00000  Uiso   1.00
N138   N     0.91024   0.62814   0.33509   0.00000  Uiso   1.00
C139   C     0.62819   0.35257   0.37758   0.00000  Uiso   1.00
C140   C     0.69657   0.33933   0.39189   0.00000  Uiso   1.00
C141   C     0.72180   0.29138   0.45925   0.00000  Uiso   1.00
C142   C     0.78542   0.28714   0.46095   0.00000  Uiso   1.00
C143   C     0.88597   0.26018   0.49287   0.00000  Uiso   1.00
C144   C     0.61888   0.41585   0.42965   0.00000  Uiso   1.00
C145   C     0.57877   0.43224   0.52876   0.00000  Uiso   1.00
C146   C     0.57698   0.49242   0.56223   0.00000  Uiso   1.00
C147   C     0.55688   0.58426   0.65272   0.00000  Uiso   1.00
C148   C     0.61580   0.35582   0.23117   0.00000  Uiso   1.00
C149   C     0.57311   0.32173   0.16339   0.00000  Uiso   1.00
C150   C     0.56872   0.33137   0.02975   0.00000  Uiso   1.00
C151   C     0.54384   0.32999   0.81207   0.00000  Uiso   1.00
C152   C     0.69631   0.43032   0.26079   0.00000  Uiso   1.00
C153   C     0.73357   0.38156   0.32845   0.00000  Uiso   1.00
C154   C     0.79717   0.37739   0.33004   0.00000  Uiso   1.00
C155   C     0.82249   0.32944   0.39739   0.00000  Uiso   1.00
C156   C     0.65587   0.45808   0.36622   0.00000  Uiso   1.00
C157   C     0.65414   0.51825   0.39955   0.00000  Uiso   1.00
C158   C     0.61405   0.53472   0.49868   0.00000  Uiso   1.00
C159   C     0.65280   0.39804   0.16773   0.00000  Uiso   1.00
C160   C     0.64847   0.40774   0.03418   0.00000  Uiso   1.00
C161   C     0.60578   0.37367   0.96621   0.00000  Uiso   1.00
H162   H     0.59939   0.31970   0.42697   0.00000  Uiso   1.00
H163   H     0.69316   0.25872   0.50834   0.00000  Uiso   1.00
H164   H     0.55015   0.39955   0.57782   0.00000  Uiso   1.00
H165   H     0.54448   0.28906   0.21251   0.00000  Uiso   1.00
H166   H     0.81343   0.20974   0.57062   0.00000  Uiso   1.00
H167   H     0.51187   0.50670   0.71710   0.00000  Uiso   1.00
H168   H     0.49993   0.27370   0.94677   0.00000  Uiso   1.00
H169   H     0.72511   0.46319   0.21140   0.00000  Uiso   1.00
H170   H     0.82579   0.41008   0.28094   0.00000  Uiso   1.00
H171   H     0.68277   0.55091   0.35043   0.00000  Uiso   1.00
H172   H     0.67711   0.44042   0.98512   0.00000  Uiso   1.00
H173   H     0.92108   0.33259   0.38606   0.00000  Uiso   1.00
H174   H     0.61951   0.62955   0.53254   0.00000  Uiso   1.00
H175   H     0.60758   0.39655   0.76221   0.00000  Uiso   1.00
O176   O     0.93122   0.23364   0.52802   0.00000  Uiso   1.00
O177   O     0.53557   0.62325   0.72017   0.00000  Uiso   1.00
O178   O     0.51990   0.31756   0.70952   0.00000  Uiso   1.00
N179   N     0.82495   0.24593   0.51762   0.00000  Uiso   1.00
N180   N     0.54302   0.52357   0.65459   0.00000  Uiso   1.00
N181   N     0.53184   0.30575   0.93440   0.00000  Uiso   1.00
N182   N     0.88288   0.31204   0.41831   0.00000  Uiso   1.00
N183   N     0.60094   0.58968   0.55528   0.00000  Uiso   1.00
N184   N     0.58976   0.37186   0.83509   0.00000  Uiso   1.00
C185   C     0.87181   0.85257   0.37758   0.00000  Uiso   1.00
C186   C     0.80343   0.83933   0.39189   0.00000  Uiso   1.00
C187   C     0.77820   0.79138   0.45925   0.00000  Uiso   1.00
C188   C     0.71458   0.78714   0.46095   0.00000  Uiso   1.00
C189   C     0.61403   0.76018   0.49287   0.00000  Uiso   1.00
C190   C     0.88112   0.91585   0.42965   0.00000  Uiso   1.00
C191   C     0.92123   0.93224   0.52876   0.00000  Uiso   1.00
C192   C     0.92302   0.99242   0.56223   0.00000  Uiso   1.00
C193   C     0.94312   0.08426   0.65272   0.00000  Uiso   1.00
C194   C     0.88420   0.85582   0.23117   0.00000  Uiso   1.00
C195   C     0.92689   0.82173   0.16339   0.00000  Uiso   1.00
C196   C     0.93128   0.83137   0.02975   0.00000  Uiso   1.00
C197   C     0.95616   0.82999   0.81207   0.00000  Uiso   1.00
C198   C     0.80369   0.93032   0.26079   0.00000  Uiso   1.00
C199   C     0.76643   0.88156   0.32845   0.00000  Uiso   1.00
C200   C     0.70283   0.87739   0.33004   0.00000  Uiso   1.00
C201   C     0.67751   0.82944   0.39739   0.00000  Uiso   1.00
C202   C     0.84413   0.95808   0.36622   0.00000  Uiso   1.00
C203   C     0.84586   0.01825   0.39955   0.00000  Uiso   1.00
C204   C     0.88595   0.03472   0.49868   0.00000  Uiso   1.00
C205   C     0.84720   0.89804   0.16773   0.00000  Uiso   1.00
C206   C     0.85153   0.90774   0.03418   0.00000  Uiso   1.00
C207   C     0.89422   0.87367   0.96621   0.00000  Uiso   1.00
H208   H     0.90061   0.81970   0.42697   0.00000  Uiso   1.00
H209   H     0.80684   0.75872   0.50834   0.00000  Uiso   1.00
H210   H     0.94985   0.89955   0.57782   0.00000  Uiso   1.00
H211   H     0.95552   0.78906   0.21251   0.00000  Uiso   1.00
H212   H     0.68657   0.70974   0.57062   0.00000  Uiso   1.00
H213   H     0.98813   0.00670   0.71710   0.00000  Uiso   1.00
H214   H     0.00007   0.77370   0.94677   0.00000  Uiso   1.00
H215   H     0.77489   0.96319   0.21140   0.00000  Uiso   1.00
H216   H     0.67421   0.91008   0.28094   0.00000  Uiso   1.00
H217   H     0.81723   0.05091   0.35043   0.00000  Uiso   1.00
H218   H     0.82289   0.94042   0.98512   0.00000  Uiso   1.00
H219   H     0.57892   0.83259   0.38606   0.00000  Uiso   1.00
H220   H     0.88049   0.12955   0.53254   0.00000  Uiso   1.00
H221   H     0.89242   0.89655   0.76221   0.00000  Uiso   1.00
O222   O     0.56878   0.73364   0.52802   0.00000  Uiso   1.00
O223   O     0.96443   0.12325   0.72017   0.00000  Uiso   1.00
O224   O     0.98010   0.81756   0.70952   0.00000  Uiso   1.00
N225   N     0.67505   0.74593   0.51762   0.00000  Uiso   1.00
N226   N     0.95698   0.02357   0.65459   0.00000  Uiso   1.00
N227   N     0.96816   0.80575   0.93440   0.00000  Uiso   1.00
N228   N     0.61712   0.81204   0.41831   0.00000  Uiso   1.00
N229   N     0.89906   0.08968   0.55528   0.00000  Uiso   1.00
N230   N     0.91024   0.87186   0.83509   0.00000  Uiso   1.00
C231   C     0.62819   0.14743   0.87758   0.00000  Uiso   1.00
C232   C     0.69657   0.16067   0.89189   0.00000  Uiso   1.00
C233   C     0.72180   0.20862   0.95925   0.00000  Uiso   1.00
C234   C     0.78542   0.21286   0.96095   0.00000  Uiso   1.00
C235   C     0.88597   0.23982   0.99287   0.00000  Uiso   1.00
C236   C     0.61888   0.08415   0.92965   0.00000  Uiso   1.00
C237   C     0.57877   0.06776   0.02876   0.00000  Uiso   1.00
C238   C     0.57698   0.00758   0.06223   0.00000  Uiso   1.00
C239   C     0.55688   0.91574   0.15272   0.00000  Uiso   1.00
C240   C     0.61580   0.14418   0.73117   0.00000  Uiso   1.00
C241   C     0.57311   0.17827   0.66339   0.00000  Uiso   1.00
C242   C     0.56872   0.16863   0.52975   0.00000  Uiso   1.00
C243   C     0.54384   0.17001   0.31207   0.00000  Uiso   1.00
C244   C     0.69631   0.06968   0.76079   0.00000  Uiso   1.00
C245   C     0.73357   0.11844   0.82845   0.00000  Uiso   1.00
C246   C     0.79717   0.12261   0.83004   0.00000  Uiso   1.00
C247   C     0.82249   0.17056   0.89739   0.00000  Uiso   1.00
C248   C     0.65587   0.04192   0.86622   0.00000  Uiso   1.00
C249   C     0.65414   0.98175   0.89955   0.00000  Uiso   1.00
C250   C     0.61405   0.96528   0.99868   0.00000  Uiso   1.00
C251   C     0.65280   0.10196   0.66773   0.00000  Uiso   1.00
C252   C     0.64847   0.09226   0.53418   0.00000  Uiso   1.00
C253   C     0.60578   0.12633   0.46621   0.00000  Uiso   1.00
H254   H     0.59939   0.18030   0.92697   0.00000  Uiso   1.00
H255   H     0.69316   0.24128   0.00834   0.00000  Uiso   1.00
H256   H     0.55015   0.10045   0.07782   0.00000  Uiso   1.00
H257   H     0.54448   0.21094   0.71251   0.00000  Uiso   1.00
H258   H     0.81343   0.29026   0.07062   0.00000  Uiso   1.00
H259   H     0.51187   0.99330   0.21710   0.00000  Uiso   1.00
H260   H     0.49993   0.22630   0.44677   0.00000  Uiso   1.00
H261   H     0.72511   0.03681   0.71140   0.00000  Uiso   1.00
H262   H     0.82579   0.08992   0.78094   0.00000  Uiso   1.00
H263   H     0.68277   0.94909   0.85043   0.00000  Uiso   1.00
H264   H     0.67711   0.05958   0.48512   0.00000  Uiso   1.00
H265   H     0.92108   0.16741   0.88606   0.00000  Uiso   1.00
H266   H     0.61951   0.87045   0.03254   0.00000  Uiso   1.00
H267   H     0.60758   0.10345   0.26221   0.00000  Uiso   1.00
O268   O     0.93122   0.26636   0.02802   0.00000  Uiso   1.00
O269   O     0.53557   0.87675   0.22017   0.00000  Uiso   1.00
O270   O     0.51990   0.18244   0.20952   0.00000  Uiso   1.00
N271   N     0.82495   0.25407   0.01762   0.00000  Uiso   1.00
N272   N     0.54302   0.97643   0.15459   0.00000  Uiso   1.00
N273   N     0.53184   0.19425   0.43440   0.00000  Uiso   1.00
N274   N     0.88288   0.18796   0.91831   0.00000  Uiso   1.00
N275   N     0.60094   0.91032   0.05528   0.00000  Uiso   1.00
N276   N     0.58976   0.12814   0.33509   0.00000  Uiso   1.00
C277   C     0.12819   0.35257   0.12242   0.00000  Uiso   1.00
C278   C     0.19657   0.33933   0.10811   0.00000  Uiso   1.00
C279   C     0.22180   0.29138   0.04075   0.00000  Uiso   1.00
C280   C     0.28542   0.28714   0.03905   0.00000  Uiso   1.00
C281   C     0.38597   0.26018   0.00713   0.00000  Uiso   1.00
C282   C     0.11888   0.41585   0.07035   0.00000  Uiso   1.00
C283   C     0.07877   0.43224   0.97124   0.00000  Uiso   1.00
C284   C     0.07698   0.49242   0.93777   0.00000  Uiso   1.00
C285   C     0.05688   0.58426   0.84728   0.00000  Uiso   1.00
C286   C     0.11580   0.35582   0.26883   0.00000  Uiso   1.00
C287   C     0.07311   0.32173   0.33661   0.00000  Uiso   1.00
C288   C     0.06872   0.33137   0.47025   0.00000  Uiso   1.00
C289   C     0.04384   0.32999   0.68793   0.00000  Uiso   1.00
C290   C     0.19631   0.43032   0.23921   0.00000  Uiso   1.00
C291   C     0.23357   0.38156   0.17155   0.00000  Uiso   1.00
C292   C     0.29717   0.37739   0.16996   0.00000  Uiso   1.00
C293   C     0.32249   0.32944   0.10261   0.00000  Uiso   1.00
C294   C     0.15587   0.45808   0.13378   0.00000  Uiso   1.00
C295   C     0.15414   0.51825   0.10045   0.00000  Uiso   1.00
C296   C     0.11405   0.53472   0.00132   0.00000  Uiso   1.00
C297   C     0.15280   0.39804   0.33227   0.00000  Uiso   1.00
C298   C     0.14847   0.40774   0.46582   0.00000  Uiso   1.00
C299   C     0.10578   0.37367   0.53379   0.00000  Uiso   1.00
H300   H     0.09939   0.31970   0.07303   0.00000  Uiso   1.00
H301   H     0.19316   0.25872   0.99166   0.00000  Uiso   1.00
H302   H     0.05015   0.39955   0.92218   0.00000  Uiso   1.00
H303   H     0.04448   0.28906   0.28749   0.00000  Uiso   1.00
H304   H     0.31343   0.20974   0.92938   0.00000  Uiso   1.00
H305   H     0.01187   0.50670   0.78290   0.00000  Uiso   1.00
H306   H     0.99993   0.27370   0.55323   0.00000  Uiso   1.00
H307   H     0.22511   0.46319   0.28860   0.00000  Uiso   1.00
H308   H     0.32579   0.41008   0.21906   0.00000  Uiso   1.00
H309   H     0.18277   0.55091   0.14957   0.00000  Uiso   1.00
H310   H     0.17711   0.44042   0.51488   0.00000  Uiso   1.00
H311   H     0.42108   0.33259   0.11394   0.00000  Uiso   1.00
H312   H     0.11951   0.62955   0.96746   0.00000  Uiso   1.00
H313   H     0.10758   0.39655   0.73779   0.00000  Uiso   1.00
O314   O     0.43122   0.23364   0.97198   0.00000  Uiso   1.00
O315   O     0.03557   0.62325   0.77983   0.00000  Uiso   1.00
O316   O     0.01990   0.31756   0.79048   0.00000  Uiso   1.00
N317   N     0.32495   0.24593   0.98238   0.00000  Uiso   1.00
N318   N     0.04302   0.52357   0.84541   0.00000  Uiso   1.00
N319   N     0.03184   0.30575   0.56560   0.00000  Uiso   1.00
N320   N     0.38288   0.31204   0.08169   0.00000  Uiso   1.00
N321   N     0.10094   0.58968   0.94472   0.00000  Uiso   1.00
N322   N     0.08976   0.37186   0.66491   0.00000  Uiso   1.00
C323   C     0.37181   0.64743   0.62242   0.00000  Uiso   1.00
C324   C     0.30343   0.66067   0.60811   0.00000  Uiso   1.00
C325   C     0.27820   0.70862   0.54075   0.00000  Uiso   1.00
C326   C     0.21458   0.71286   0.53905   0.00000  Uiso   1.00
C327   C     0.11403   0.73982   0.50713   0.00000  Uiso   1.00
C328   C     0.38112   0.58415   0.57035   0.00000  Uiso   1.00
C329   C     0.42123   0.56776   0.47124   0.00000  Uiso   1.00
C330   C     0.42302   0.50758   0.43777   0.00000  Uiso   1.00
C331   C     0.44312   0.41574   0.34728   0.00000  Uiso   1.00
C332   C     0.38420   0.64418   0.76883   0.00000  Uiso   1.00
C333   C     0.42689   0.67827   0.83661   0.00000  Uiso   1.00
C334   C     0.43128   0.66863   0.97025   0.00000  Uiso   1.00
C335   C     0.45616   0.67001   0.18793   0.00000  Uiso   1.00
C336   C     0.30369   0.56968   0.73921   0.00000  Uiso   1.00
C337   C     0.26643   0.61844   0.67155   0.00000  Uiso   1.00
C338   C     0.20283   0.62261   0.66996   0.00000  Uiso   1.00
C339   C     0.17751   0.67056   0.60261   0.00000  Uiso   1.00
C340   C     0.34413   0.54192   0.63378   0.00000  Uiso   1.00
C341   C     0.34586   0.48175   0.60045   0.00000  Uiso   1.00
C342   C     0.38595   0.46528   0.50132   0.00000  Uiso   1.00
C343   C     0.34720   0.60196   0.83227   0.00000  Uiso   1.00
C344   C     0.35153   0.59226   0.96582   0.00000  Uiso   1.00
C345   C     0.39422   0.62633   0.03379   0.00000  Uiso   1.00
H346   H     0.40061   0.68030   0.57303   0.00000  Uiso   1.00
H347   H     0.30684   0.74128   0.49166   0.00000  Uiso   1.00
H348   H     0.44985   0.60045   0.42218   0.00000  Uiso   1.00
H349   H     0.45552   0.71094   0.78749   0.00000  Uiso   1.00
H350   H     0.18657   0.79026   0.42938   0.00000  Uiso   1.00
H351   H     0.48813   0.49330   0.28290   0.00000  Uiso   1.00
H352   H     0.50007   0.72630   0.05323   0.00000  Uiso   1.00
H353   H     0.27489   0.53681   0.78860   0.00000  Uiso   1.00
H354   H     0.17421   0.58992   0.71906   0.00000  Uiso   1.00
H355   H     0.31723   0.44909   0.64957   0.00000  Uiso   1.00
H356   H     0.32289   0.55958   0.01488   0.00000  Uiso   1.00
H357   H     0.07892   0.66741   0.61394   0.00000  Uiso   1.00
H358   H     0.38049   0.37045   0.46746   0.00000  Uiso   1.00
H359   H     0.39242   0.60345   0.23779   0.00000  Uiso   1.00
O360   O     0.06878   0.76636   0.47198   0.00000  Uiso   1.00
O361   O     0.46443   0.37675   0.27983   0.00000  Uiso   1.00
O362   O     0.48010   0.68244   0.29048   0.00000  Uiso   1.00
N363   N     0.17505   0.75407   0.48238   0.00000  Uiso   1.00
N364   N     0.45698   0.47643   0.34541   0.00000  Uiso   1.00
N365   N     0.46816   0.69425   0.06560   0.00000  Uiso   1.00
N366   N     0.11712   0.68796   0.58169   0.00000  Uiso   1.00
N367   N     0.39906   0.41032   0.44472   0.00000  Uiso   1.00
N368   N     0.41024   0.62814   0.16491   0.00000  Uiso   1.00
