data_job_05090
_audit_creation_date              2018-12-19
_audit_creation_method            'Materials Studio'
_symmetry_space_group_name_H-M    'P1'
_symmetry_Int_Tables_number       1
_symmetry_cell_setting            triclinic
loop_
_symmetry_equiv_pos_as_xyz
  x,y,z
_cell_length_a                    15.8901
_cell_length_b                    15.1971
_cell_length_c                    11.5071
_cell_angle_alpha                 90.0000
_cell_angle_beta                  83.6226
_cell_angle_gamma                 90.0000
loop_
_atom_site_label
_atom_site_type_symbol
_atom_site_fract_x
_atom_site_fract_y
_atom_site_fract_z
_atom_site_U_iso_or_equiv
_atom_site_adp_type
_atom_site_occupancy
C1     C     0.27307   0.25597   0.65744   0.00000  Uiso   1.00
C2     C     0.21750   0.32982   0.71321   0.00000  Uiso   1.00
C3     C     0.23886   0.41836   0.71345   0.00000  Uiso   1.00
C4     C     0.17932   0.47557   0.76917   0.00000  Uiso   1.00
C5     C     0.10492   0.59485   0.84768   0.00000  Uiso   1.00
C6     C     0.28243   0.18971   0.75469   0.00000  Uiso   1.00
C7     C     0.35839   0.16044   0.78979   0.00000  Uiso   1.00
C8     C     0.35350   0.09970   0.88042   0.00000  Uiso   1.00
C9     C     0.37990   0.00141   0.02328   0.00000  Uiso   1.00
C10    C     0.22079   0.21012   0.57195   0.00000  Uiso   1.00
C11    C     0.24493   0.19797   0.45339   0.00000  Uiso   1.00
C12    C     0.18815   0.15439   0.39017   0.00000  Uiso   1.00
C13    C     0.11886   0.08777   0.24928   0.00000  Uiso   1.00
C14    C     0.12933   0.20014   0.75598   0.00000  Uiso   1.00
C15    C     0.13942   0.29949   0.76674   0.00000  Uiso   1.00
C16    C     0.07983   0.35659   0.82247   0.00000  Uiso   1.00
C17    C     0.10110   0.44519   0.82278   0.00000  Uiso   1.00
C18    C     0.20435   0.15939   0.80822   0.00000  Uiso   1.00
C19    C     0.19935   0.09867   0.89881   0.00000  Uiso   1.00
C20    C     0.27528   0.06932   0.93404   0.00000  Uiso   1.00
C21    C     0.14271   0.17979   0.62547   0.00000  Uiso   1.00
C22    C     0.08589   0.13621   0.56242   0.00000  Uiso   1.00
C23    C     0.10994   0.12401   0.44379   0.00000  Uiso   1.00
H24    H     0.33386   0.27958   0.61577   0.00000  Uiso   1.00
H25    H     0.29930   0.44180   0.67203   0.00000  Uiso   1.00
H26    H     0.41880   0.18392   0.74835   0.00000  Uiso   1.00
H27    H     0.30536   0.22145   0.41200   0.00000  Uiso   1.00
H28    H     0.22656   0.60828   0.75803   0.00000  Uiso   1.00
H29    H     0.47853   0.06450   0.91894   0.00000  Uiso   1.00
H30    H     0.23932   0.14363   0.20969   0.00000  Uiso   1.00
H31    H     0.06854   0.17652   0.79765   0.00000  Uiso   1.00
H32    H     0.01941   0.33310   0.86388   0.00000  Uiso   1.00
H33    H     0.13892   0.07521   0.94021   0.00000  Uiso   1.00
H34    H     0.02547   0.11275   0.60386   0.00000  Uiso   1.00
H35    H     0.99939   0.52005   0.91376   0.00000  Uiso   1.00
H36    H     0.25137   0.97626   0.07466   0.00000  Uiso   1.00
H37    H     0.01216   0.05541   0.36541   0.00000  Uiso   1.00
O38    O     0.08546   0.66902   0.87622   0.00000  Uiso   1.00
O39    O     0.41604   0.95558   0.08730   0.00000  Uiso   1.00
O40    O     0.10220   0.05942   0.15678   0.00000  Uiso   1.00
N41    N     0.17983   0.56603   0.78557   0.00000  Uiso   1.00
N42    N     0.41541   0.05763   0.93602   0.00000  Uiso   1.00
N43    N     0.19178   0.13160   0.27294   0.00000  Uiso   1.00
N44    N     0.05759   0.51855   0.86936   0.00000  Uiso   1.00
N45    N     0.29318   0.01016   0.01981   0.00000  Uiso   1.00
N46    N     0.06954   0.08413   0.35673   0.00000  Uiso   1.00
C47    C     0.72693   0.25597   0.84256   0.00000  Uiso   1.00
C48    C     0.78250   0.32982   0.78679   0.00000  Uiso   1.00
C49    C     0.76114   0.41836   0.78655   0.00000  Uiso   1.00
C50    C     0.82068   0.47557   0.73083   0.00000  Uiso   1.00
C51    C     0.89508   0.59485   0.65232   0.00000  Uiso   1.00
C52    C     0.71757   0.18971   0.74531   0.00000  Uiso   1.00
C53    C     0.64161   0.16044   0.71021   0.00000  Uiso   1.00
C54    C     0.64650   0.09970   0.61958   0.00000  Uiso   1.00
C55    C     0.62010   0.00141   0.47672   0.00000  Uiso   1.00
C56    C     0.77921   0.21012   0.92805   0.00000  Uiso   1.00
C57    C     0.75507   0.19797   0.04661   0.00000  Uiso   1.00
C58    C     0.81185   0.15439   0.10983   0.00000  Uiso   1.00
C59    C     0.88114   0.08777   0.25072   0.00000  Uiso   1.00
C60    C     0.87067   0.20014   0.74402   0.00000  Uiso   1.00
C61    C     0.86058   0.29949   0.73326   0.00000  Uiso   1.00
C62    C     0.92017   0.35659   0.67753   0.00000  Uiso   1.00
C63    C     0.89890   0.44519   0.67722   0.00000  Uiso   1.00
C64    C     0.79565   0.15939   0.69178   0.00000  Uiso   1.00
C65    C     0.80065   0.09867   0.60119   0.00000  Uiso   1.00
C66    C     0.72472   0.06932   0.56596   0.00000  Uiso   1.00
C67    C     0.85729   0.17979   0.87453   0.00000  Uiso   1.00
C68    C     0.91411   0.13621   0.93758   0.00000  Uiso   1.00
C69    C     0.89006   0.12401   0.05621   0.00000  Uiso   1.00
H70    H     0.66614   0.27958   0.88423   0.00000  Uiso   1.00
H71    H     0.70070   0.44180   0.82797   0.00000  Uiso   1.00
H72    H     0.58120   0.18392   0.75165   0.00000  Uiso   1.00
H73    H     0.69464   0.22145   0.08800   0.00000  Uiso   1.00
H74    H     0.77344   0.60828   0.74197   0.00000  Uiso   1.00
H75    H     0.52147   0.06450   0.58106   0.00000  Uiso   1.00
H76    H     0.76068   0.14363   0.29031   0.00000  Uiso   1.00
H77    H     0.93146   0.17652   0.70235   0.00000  Uiso   1.00
H78    H     0.98059   0.33310   0.63612   0.00000  Uiso   1.00
H79    H     0.86108   0.07521   0.55979   0.00000  Uiso   1.00
H80    H     0.97453   0.11275   0.89614   0.00000  Uiso   1.00
H81    H     0.00061   0.52005   0.58624   0.00000  Uiso   1.00
H82    H     0.74863   0.97626   0.42534   0.00000  Uiso   1.00
H83    H     0.98784   0.05541   0.13459   0.00000  Uiso   1.00
O84    O     0.91454   0.66902   0.62378   0.00000  Uiso   1.00
O85    O     0.58396   0.95558   0.41270   0.00000  Uiso   1.00
O86    O     0.89780   0.05942   0.34322   0.00000  Uiso   1.00
N87    N     0.82017   0.56603   0.71443   0.00000  Uiso   1.00
N88    N     0.58459   0.05763   0.56398   0.00000  Uiso   1.00
N89    N     0.80822   0.13160   0.22706   0.00000  Uiso   1.00
N90    N     0.94241   0.51855   0.63064   0.00000  Uiso   1.00
N91    N     0.70682   0.01016   0.48019   0.00000  Uiso   1.00
N92    N     0.93046   0.08413   0.14327   0.00000  Uiso   1.00
C93    C     0.72693   0.74403   0.34256   0.00000  Uiso   1.00
C94    C     0.78250   0.67018   0.28679   0.00000  Uiso   1.00
C95    C     0.76114   0.58164   0.28655   0.00000  Uiso   1.00
C96    C     0.82068   0.52443   0.23083   0.00000  Uiso   1.00
C97    C     0.89508   0.40515   0.15232   0.00000  Uiso   1.00
C98    C     0.71757   0.81029   0.24531   0.00000  Uiso   1.00
C99    C     0.64161   0.83956   0.21021   0.00000  Uiso   1.00
C100   C     0.64650   0.90030   0.11958   0.00000  Uiso   1.00
C101   C     0.62010   0.99859   0.97672   0.00000  Uiso   1.00
C102   C     0.77921   0.78988   0.42805   0.00000  Uiso   1.00
C103   C     0.75507   0.80203   0.54661   0.00000  Uiso   1.00
C104   C     0.81185   0.84561   0.60983   0.00000  Uiso   1.00
C105   C     0.88114   0.91223   0.75072   0.00000  Uiso   1.00
C106   C     0.87067   0.79986   0.24402   0.00000  Uiso   1.00
C107   C     0.86058   0.70051   0.23326   0.00000  Uiso   1.00
C108   C     0.92017   0.64341   0.17753   0.00000  Uiso   1.00
C109   C     0.89890   0.55481   0.17722   0.00000  Uiso   1.00
C110   C     0.79565   0.84061   0.19178   0.00000  Uiso   1.00
C111   C     0.80065   0.90133   0.10119   0.00000  Uiso   1.00
C112   C     0.72472   0.93068   0.06596   0.00000  Uiso   1.00
C113   C     0.85729   0.82021   0.37453   0.00000  Uiso   1.00
C114   C     0.91411   0.86379   0.43758   0.00000  Uiso   1.00
C115   C     0.89006   0.87599   0.55621   0.00000  Uiso   1.00
H116   H     0.66614   0.72042   0.38423   0.00000  Uiso   1.00
H117   H     0.70070   0.55820   0.32797   0.00000  Uiso   1.00
H118   H     0.58120   0.81608   0.25165   0.00000  Uiso   1.00
H119   H     0.69464   0.77855   0.58800   0.00000  Uiso   1.00
H120   H     0.77344   0.39172   0.24197   0.00000  Uiso   1.00
H121   H     0.52147   0.93550   0.08106   0.00000  Uiso   1.00
H122   H     0.76068   0.85637   0.79031   0.00000  Uiso   1.00
H123   H     0.93146   0.82348   0.20235   0.00000  Uiso   1.00
H124   H     0.98059   0.66690   0.13612   0.00000  Uiso   1.00
H125   H     0.86108   0.92479   0.05979   0.00000  Uiso   1.00
H126   H     0.97453   0.88725   0.39614   0.00000  Uiso   1.00
H127   H     0.00061   0.47995   0.08624   0.00000  Uiso   1.00
H128   H     0.74863   0.02374   0.92534   0.00000  Uiso   1.00
H129   H     0.98784   0.94459   0.63459   0.00000  Uiso   1.00
O130   O     0.91454   0.33098   0.12378   0.00000  Uiso   1.00
O131   O     0.58396   0.04442   0.91270   0.00000  Uiso   1.00
O132   O     0.89780   0.94058   0.84322   0.00000  Uiso   1.00
N133   N     0.82017   0.43397   0.21443   0.00000  Uiso   1.00
N134   N     0.58459   0.94237   0.06398   0.00000  Uiso   1.00
N135   N     0.80822   0.86840   0.72706   0.00000  Uiso   1.00
N136   N     0.94241   0.48145   0.13064   0.00000  Uiso   1.00
N137   N     0.70682   0.98984   0.98019   0.00000  Uiso   1.00
N138   N     0.93046   0.91587   0.64327   0.00000  Uiso   1.00
C139   C     0.27307   0.74403   0.15744   0.00000  Uiso   1.00
C140   C     0.21750   0.67018   0.21321   0.00000  Uiso   1.00
C141   C     0.23886   0.58164   0.21345   0.00000  Uiso   1.00
C142   C     0.17932   0.52443   0.26917   0.00000  Uiso   1.00
C143   C     0.10492   0.40515   0.34768   0.00000  Uiso   1.00
C144   C     0.28243   0.81029   0.25469   0.00000  Uiso   1.00
C145   C     0.35839   0.83956   0.28979   0.00000  Uiso   1.00
C146   C     0.35350   0.90030   0.38042   0.00000  Uiso   1.00
C147   C     0.37990   0.99859   0.52328   0.00000  Uiso   1.00
C148   C     0.22079   0.78988   0.07195   0.00000  Uiso   1.00
C149   C     0.24493   0.80203   0.95339   0.00000  Uiso   1.00
C150   C     0.18815   0.84561   0.89017   0.00000  Uiso   1.00
C151   C     0.11886   0.91223   0.74928   0.00000  Uiso   1.00
C152   C     0.12933   0.79986   0.25598   0.00000  Uiso   1.00
C153   C     0.13942   0.70051   0.26674   0.00000  Uiso   1.00
C154   C     0.07983   0.64341   0.32247   0.00000  Uiso   1.00
C155   C     0.10110   0.55481   0.32278   0.00000  Uiso   1.00
C156   C     0.20435   0.84061   0.30822   0.00000  Uiso   1.00
C157   C     0.19935   0.90133   0.39881   0.00000  Uiso   1.00
C158   C     0.27528   0.93068   0.43404   0.00000  Uiso   1.00
C159   C     0.14271   0.82021   0.12547   0.00000  Uiso   1.00
C160   C     0.08589   0.86379   0.06242   0.00000  Uiso   1.00
C161   C     0.10994   0.87599   0.94379   0.00000  Uiso   1.00
H162   H     0.33386   0.72042   0.11577   0.00000  Uiso   1.00
H163   H     0.29930   0.55820   0.17203   0.00000  Uiso   1.00
H164   H     0.41880   0.81608   0.24835   0.00000  Uiso   1.00
H165   H     0.30536   0.77855   0.91200   0.00000  Uiso   1.00
H166   H     0.22656   0.39172   0.25803   0.00000  Uiso   1.00
H167   H     0.47853   0.93550   0.41894   0.00000  Uiso   1.00
H168   H     0.23932   0.85637   0.70969   0.00000  Uiso   1.00
H169   H     0.06854   0.82348   0.29765   0.00000  Uiso   1.00
H170   H     0.01941   0.66690   0.36388   0.00000  Uiso   1.00
H171   H     0.13892   0.92479   0.44021   0.00000  Uiso   1.00
H172   H     0.02547   0.88725   0.10386   0.00000  Uiso   1.00
H173   H     0.99939   0.47995   0.41376   0.00000  Uiso   1.00
H174   H     0.25137   0.02374   0.57466   0.00000  Uiso   1.00
H175   H     0.01216   0.94459   0.86541   0.00000  Uiso   1.00
O176   O     0.08546   0.33098   0.37622   0.00000  Uiso   1.00
O177   O     0.41604   0.04442   0.58730   0.00000  Uiso   1.00
O178   O     0.10220   0.94058   0.65678   0.00000  Uiso   1.00
N179   N     0.17983   0.43397   0.28557   0.00000  Uiso   1.00
N180   N     0.41541   0.94237   0.43602   0.00000  Uiso   1.00
N181   N     0.19178   0.86840   0.77294   0.00000  Uiso   1.00
N182   N     0.05759   0.48145   0.36936   0.00000  Uiso   1.00
N183   N     0.29318   0.98984   0.51981   0.00000  Uiso   1.00
N184   N     0.06954   0.91587   0.85673   0.00000  Uiso   1.00
