data_job_01653
_audit_creation_date              2018-12-19
_audit_creation_method            'Materials Studio'
_symmetry_space_group_name_H-M    'P1'
_symmetry_Int_Tables_number       1
_symmetry_cell_setting            triclinic
loop_
_symmetry_equiv_pos_as_xyz
  x,y,z
_cell_length_a                    20.1373
_cell_length_b                    28.2082
_cell_length_c                    11.4703
_cell_angle_alpha                 90.0000
_cell_angle_beta                  90.0000
_cell_angle_gamma                 90.0000
loop_
_atom_site_label
_atom_site_type_symbol
_atom_site_fract_x
_atom_site_fract_y
_atom_site_fract_z
_atom_site_U_iso_or_equiv
_atom_site_adp_type
_atom_site_occupancy
C1     C     0.42510   0.89245   0.36356   0.00000  Uiso   1.00
C2     C     0.48345   0.87075   0.42940   0.00000  Uiso   1.00
C3     C     0.48661   0.86347   0.54892   0.00000  Uiso   1.00
C4     C     0.54434   0.84315   0.59232   0.00000  Uiso   1.00
C5     C     0.62694   0.81139   0.70575   0.00000  Uiso   1.00
C6     C     0.45322   0.93466   0.29674   0.00000  Uiso   1.00
C7     C     0.43096   0.98111   0.30473   0.00000  Uiso   1.00
C8     C     0.46324   0.01459   0.23644   0.00000  Uiso   1.00
C9     C     0.49888   0.08203   0.14386   0.00000  Uiso   1.00
C10    C     0.40504   0.85609   0.27170   0.00000  Uiso   1.00
C11    C     0.34226   0.83650   0.25860   0.00000  Uiso   1.00
C12    C     0.33397   0.80384   0.16921   0.00000  Uiso   1.00
C13    C     0.29480   0.74930   0.03775   0.00000  Uiso   1.00
C14    C     0.52199   0.86931   0.22808   0.00000  Uiso   1.00
C15    C     0.53607   0.85818   0.35581   0.00000  Uiso   1.00
C16    C     0.59381   0.83787   0.39903   0.00000  Uiso   1.00
C17    C     0.59706   0.83056   0.51860   0.00000  Uiso   1.00
C18    C     0.50584   0.92209   0.22316   0.00000  Uiso   1.00
C19    C     0.53816   0.95551   0.15484   0.00000  Uiso   1.00
C20    C     0.51596   0.00200   0.16272   0.00000  Uiso   1.00
C21    C     0.45766   0.84352   0.19811   0.00000  Uiso   1.00
C22    C     0.44946   0.81089   0.10872   0.00000  Uiso   1.00
C23    C     0.38669   0.79125   0.09549   0.00000  Uiso   1.00
H24    H     0.38413   0.90224   0.42085   0.00000  Uiso   1.00
H25    H     0.44588   0.87321   0.60584   0.00000  Uiso   1.00
H26    H     0.39023   0.99082   0.36167   0.00000  Uiso   1.00
H27    H     0.30155   0.84623   0.31556   0.00000  Uiso   1.00
H28    H     0.53756   0.83549   0.77850   0.00000  Uiso   1.00
H29    H     0.42021   0.08349   0.26363   0.00000  Uiso   1.00
H30    H     0.23320   0.77859   0.16639   0.00000  Uiso   1.00
H31    H     0.56296   0.85953   0.17079   0.00000  Uiso   1.00
H32    H     0.63453   0.82815   0.34207   0.00000  Uiso   1.00
H33    H     0.57888   0.94577   0.09790   0.00000  Uiso   1.00
H34    H     0.49020   0.80117   0.05179   0.00000  Uiso   1.00
H35    H     0.69067   0.79892   0.56441   0.00000  Uiso   1.00
H36    H     0.57332   0.04692   0.04953   0.00000  Uiso   1.00
H37    H     0.38632   0.74202   0.95230   0.00000  Uiso   1.00
O38    O     0.65797   0.79735   0.78864   0.00000  Uiso   1.00
O39    O     0.50401   0.12271   0.11313   0.00000  Uiso   1.00
O40    O     0.25867   0.72269   0.98558   0.00000  Uiso   1.00
N41    N     0.56377   0.83118   0.70460   0.00000  Uiso   1.00
N42    N     0.45406   0.06305   0.22324   0.00000  Uiso   1.00
N43    N     0.27922   0.77800   0.13232   0.00000  Uiso   1.00
N44    N     0.64616   0.81150   0.58940   0.00000  Uiso   1.00
N45    N     0.53645   0.04337   0.10804   0.00000  Uiso   1.00
N46    N     0.36161   0.75832   0.01712   0.00000  Uiso   1.00
C47    C     0.07490   0.10755   0.36356   0.00000  Uiso   1.00
C48    C     0.01655   0.12925   0.42940   0.00000  Uiso   1.00
C49    C     0.01339   0.13653   0.54892   0.00000  Uiso   1.00
C50    C     0.95566   0.15685   0.59232   0.00000  Uiso   1.00
C51    C     0.87306   0.18861   0.70575   0.00000  Uiso   1.00
C52    C     0.04678   0.06534   0.29674   0.00000  Uiso   1.00
C53    C     0.06904   0.01889   0.30473   0.00000  Uiso   1.00
C54    C     0.03676   0.98541   0.23644   0.00000  Uiso   1.00
C55    C     0.00112   0.91797   0.14386   0.00000  Uiso   1.00
C56    C     0.09496   0.14391   0.27170   0.00000  Uiso   1.00
C57    C     0.15774   0.16350   0.25860   0.00000  Uiso   1.00
C58    C     0.16603   0.19616   0.16921   0.00000  Uiso   1.00
C59    C     0.20520   0.25070   0.03775   0.00000  Uiso   1.00
C60    C     0.97801   0.13069   0.22808   0.00000  Uiso   1.00
C61    C     0.96393   0.14182   0.35581   0.00000  Uiso   1.00
C62    C     0.90619   0.16213   0.39903   0.00000  Uiso   1.00
C63    C     0.90294   0.16944   0.51860   0.00000  Uiso   1.00
C64    C     0.99416   0.07791   0.22316   0.00000  Uiso   1.00
C65    C     0.96184   0.04449   0.15484   0.00000  Uiso   1.00
C66    C     0.98404   0.99800   0.16272   0.00000  Uiso   1.00
C67    C     0.04234   0.15648   0.19811   0.00000  Uiso   1.00
C68    C     0.05054   0.18911   0.10872   0.00000  Uiso   1.00
C69    C     0.11331   0.20875   0.09549   0.00000  Uiso   1.00
H70    H     0.11587   0.09776   0.42085   0.00000  Uiso   1.00
H71    H     0.05412   0.12679   0.60584   0.00000  Uiso   1.00
H72    H     0.10977   0.00918   0.36167   0.00000  Uiso   1.00
H73    H     0.19845   0.15377   0.31556   0.00000  Uiso   1.00
H74    H     0.96244   0.16451   0.77850   0.00000  Uiso   1.00
H75    H     0.07979   0.91651   0.26363   0.00000  Uiso   1.00
H76    H     0.26680   0.22141   0.16639   0.00000  Uiso   1.00
H77    H     0.93704   0.14047   0.17079   0.00000  Uiso   1.00
H78    H     0.86547   0.17185   0.34207   0.00000  Uiso   1.00
H79    H     0.92112   0.05423   0.09790   0.00000  Uiso   1.00
H80    H     0.00980   0.19883   0.05179   0.00000  Uiso   1.00
H81    H     0.80933   0.20108   0.56441   0.00000  Uiso   1.00
H82    H     0.92668   0.95308   0.04953   0.00000  Uiso   1.00
H83    H     0.11368   0.25798   0.95230   0.00000  Uiso   1.00
O84    O     0.84203   0.20265   0.78864   0.00000  Uiso   1.00
O85    O     0.99599   0.87729   0.11313   0.00000  Uiso   1.00
O86    O     0.24133   0.27731   0.98558   0.00000  Uiso   1.00
N87    N     0.93623   0.16882   0.70460   0.00000  Uiso   1.00
N88    N     0.04594   0.93695   0.22324   0.00000  Uiso   1.00
N89    N     0.22078   0.22200   0.13232   0.00000  Uiso   1.00
N90    N     0.85384   0.18850   0.58940   0.00000  Uiso   1.00
N91    N     0.96355   0.95663   0.10804   0.00000  Uiso   1.00
N92    N     0.13839   0.24168   0.01712   0.00000  Uiso   1.00
C93    C     0.07490   0.39245   0.13644   0.00000  Uiso   1.00
C94    C     0.01655   0.37075   0.07060   0.00000  Uiso   1.00
C95    C     0.01339   0.36347   0.95108   0.00000  Uiso   1.00
C96    C     0.95566   0.34315   0.90768   0.00000  Uiso   1.00
C97    C     0.87306   0.31139   0.79425   0.00000  Uiso   1.00
C98    C     0.04678   0.43466   0.20326   0.00000  Uiso   1.00
C99    C     0.06904   0.48111   0.19527   0.00000  Uiso   1.00
C100   C     0.03676   0.51459   0.26356   0.00000  Uiso   1.00
C101   C     0.00112   0.58203   0.35614   0.00000  Uiso   1.00
C102   C     0.09496   0.35609   0.22830   0.00000  Uiso   1.00
C103   C     0.15774   0.33650   0.24140   0.00000  Uiso   1.00
C104   C     0.16603   0.30384   0.33079   0.00000  Uiso   1.00
C105   C     0.20520   0.24930   0.46225   0.00000  Uiso   1.00
C106   C     0.97801   0.36931   0.27192   0.00000  Uiso   1.00
C107   C     0.96393   0.35818   0.14419   0.00000  Uiso   1.00
C108   C     0.90619   0.33787   0.10097   0.00000  Uiso   1.00
C109   C     0.90294   0.33056   0.98140   0.00000  Uiso   1.00
C110   C     0.99416   0.42209   0.27684   0.00000  Uiso   1.00
C111   C     0.96184   0.45551   0.34516   0.00000  Uiso   1.00
C112   C     0.98404   0.50200   0.33728   0.00000  Uiso   1.00
C113   C     0.04234   0.34352   0.30189   0.00000  Uiso   1.00
C114   C     0.05054   0.31089   0.39128   0.00000  Uiso   1.00
C115   C     0.11331   0.29125   0.40451   0.00000  Uiso   1.00
H116   H     0.11587   0.40224   0.07915   0.00000  Uiso   1.00
H117   H     0.05412   0.37321   0.89416   0.00000  Uiso   1.00
H118   H     0.10977   0.49082   0.13833   0.00000  Uiso   1.00
H119   H     0.19845   0.34623   0.18444   0.00000  Uiso   1.00
H120   H     0.96244   0.33549   0.72150   0.00000  Uiso   1.00
H121   H     0.07979   0.58349   0.23637   0.00000  Uiso   1.00
H122   H     0.26680   0.27859   0.33361   0.00000  Uiso   1.00
H123   H     0.93704   0.35953   0.32921   0.00000  Uiso   1.00
H124   H     0.86547   0.32815   0.15793   0.00000  Uiso   1.00
H125   H     0.92112   0.44577   0.40210   0.00000  Uiso   1.00
H126   H     0.00980   0.30117   0.44821   0.00000  Uiso   1.00
H127   H     0.80933   0.29892   0.93559   0.00000  Uiso   1.00
H128   H     0.92668   0.54692   0.45047   0.00000  Uiso   1.00
H129   H     0.11368   0.24202   0.54770   0.00000  Uiso   1.00
O130   O     0.84203   0.29735   0.71136   0.00000  Uiso   1.00
O131   O     0.99599   0.62271   0.38687   0.00000  Uiso   1.00
O132   O     0.24133   0.22269   0.51442   0.00000  Uiso   1.00
N133   N     0.93623   0.33118   0.79540   0.00000  Uiso   1.00
N134   N     0.04594   0.56305   0.27676   0.00000  Uiso   1.00
N135   N     0.22078   0.27800   0.36768   0.00000  Uiso   1.00
N136   N     0.85384   0.31150   0.91060   0.00000  Uiso   1.00
N137   N     0.96355   0.54337   0.39196   0.00000  Uiso   1.00
N138   N     0.13839   0.25832   0.48288   0.00000  Uiso   1.00
C139   C     0.42510   0.60755   0.13644   0.00000  Uiso   1.00
C140   C     0.48345   0.62925   0.07060   0.00000  Uiso   1.00
C141   C     0.48661   0.63653   0.95108   0.00000  Uiso   1.00
C142   C     0.54434   0.65685   0.90768   0.00000  Uiso   1.00
C143   C     0.62694   0.68861   0.79425   0.00000  Uiso   1.00
C144   C     0.45322   0.56534   0.20326   0.00000  Uiso   1.00
C145   C     0.43096   0.51889   0.19527   0.00000  Uiso   1.00
C146   C     0.46324   0.48541   0.26356   0.00000  Uiso   1.00
C147   C     0.49888   0.41797   0.35614   0.00000  Uiso   1.00
C148   C     0.40504   0.64391   0.22830   0.00000  Uiso   1.00
C149   C     0.34226   0.66350   0.24140   0.00000  Uiso   1.00
C150   C     0.33397   0.69616   0.33079   0.00000  Uiso   1.00
C151   C     0.29480   0.75070   0.46225   0.00000  Uiso   1.00
C152   C     0.52199   0.63069   0.27192   0.00000  Uiso   1.00
C153   C     0.53607   0.64182   0.14419   0.00000  Uiso   1.00
C154   C     0.59381   0.66213   0.10097   0.00000  Uiso   1.00
C155   C     0.59706   0.66944   0.98140   0.00000  Uiso   1.00
C156   C     0.50584   0.57791   0.27684   0.00000  Uiso   1.00
C157   C     0.53816   0.54449   0.34516   0.00000  Uiso   1.00
C158   C     0.51596   0.49800   0.33728   0.00000  Uiso   1.00
C159   C     0.45766   0.65648   0.30189   0.00000  Uiso   1.00
C160   C     0.44946   0.68911   0.39128   0.00000  Uiso   1.00
C161   C     0.38669   0.70875   0.40451   0.00000  Uiso   1.00
H162   H     0.38413   0.59776   0.07915   0.00000  Uiso   1.00
H163   H     0.44588   0.62679   0.89416   0.00000  Uiso   1.00
H164   H     0.39023   0.50918   0.13833   0.00000  Uiso   1.00
H165   H     0.30155   0.65377   0.18444   0.00000  Uiso   1.00
H166   H     0.53756   0.66451   0.72150   0.00000  Uiso   1.00
H167   H     0.42021   0.41651   0.23637   0.00000  Uiso   1.00
H168   H     0.23320   0.72141   0.33361   0.00000  Uiso   1.00
H169   H     0.56296   0.64047   0.32921   0.00000  Uiso   1.00
H170   H     0.63453   0.67185   0.15793   0.00000  Uiso   1.00
H171   H     0.57888   0.55423   0.40210   0.00000  Uiso   1.00
H172   H     0.49020   0.69883   0.44821   0.00000  Uiso   1.00
H173   H     0.69067   0.70108   0.93559   0.00000  Uiso   1.00
H174   H     0.57332   0.45308   0.45047   0.00000  Uiso   1.00
H175   H     0.38632   0.75798   0.54770   0.00000  Uiso   1.00
O176   O     0.65797   0.70265   0.71136   0.00000  Uiso   1.00
O177   O     0.50401   0.37729   0.38687   0.00000  Uiso   1.00
O178   O     0.25867   0.77731   0.51442   0.00000  Uiso   1.00
N179   N     0.56377   0.66882   0.79540   0.00000  Uiso   1.00
N180   N     0.45406   0.43695   0.27676   0.00000  Uiso   1.00
N181   N     0.27922   0.72200   0.36768   0.00000  Uiso   1.00
N182   N     0.64616   0.68850   0.91060   0.00000  Uiso   1.00
N183   N     0.53645   0.45663   0.39196   0.00000  Uiso   1.00
N184   N     0.36161   0.74168   0.48288   0.00000  Uiso   1.00
C185   C     0.57490   0.10755   0.63644   0.00000  Uiso   1.00
C186   C     0.51655   0.12925   0.57060   0.00000  Uiso   1.00
C187   C     0.51339   0.13653   0.45108   0.00000  Uiso   1.00
C188   C     0.45566   0.15685   0.40768   0.00000  Uiso   1.00
C189   C     0.37306   0.18861   0.29425   0.00000  Uiso   1.00
C190   C     0.54678   0.06534   0.70326   0.00000  Uiso   1.00
C191   C     0.56904   0.01889   0.69527   0.00000  Uiso   1.00
C192   C     0.53676   0.98541   0.76356   0.00000  Uiso   1.00
C193   C     0.50112   0.91797   0.85614   0.00000  Uiso   1.00
C194   C     0.59496   0.14391   0.72830   0.00000  Uiso   1.00
C195   C     0.65774   0.16350   0.74140   0.00000  Uiso   1.00
C196   C     0.66603   0.19616   0.83079   0.00000  Uiso   1.00
C197   C     0.70520   0.25070   0.96225   0.00000  Uiso   1.00
C198   C     0.47801   0.13069   0.77192   0.00000  Uiso   1.00
C199   C     0.46393   0.14182   0.64419   0.00000  Uiso   1.00
C200   C     0.40619   0.16213   0.60097   0.00000  Uiso   1.00
C201   C     0.40294   0.16944   0.48140   0.00000  Uiso   1.00
C202   C     0.49416   0.07791   0.77684   0.00000  Uiso   1.00
C203   C     0.46184   0.04449   0.84516   0.00000  Uiso   1.00
C204   C     0.48404   0.99800   0.83728   0.00000  Uiso   1.00
C205   C     0.54234   0.15648   0.80189   0.00000  Uiso   1.00
C206   C     0.55054   0.18911   0.89128   0.00000  Uiso   1.00
C207   C     0.61331   0.20875   0.90451   0.00000  Uiso   1.00
H208   H     0.61587   0.09776   0.57915   0.00000  Uiso   1.00
H209   H     0.55412   0.12679   0.39416   0.00000  Uiso   1.00
H210   H     0.60977   0.00918   0.63833   0.00000  Uiso   1.00
H211   H     0.69845   0.15377   0.68444   0.00000  Uiso   1.00
H212   H     0.46244   0.16451   0.22150   0.00000  Uiso   1.00
H213   H     0.57979   0.91651   0.73637   0.00000  Uiso   1.00
H214   H     0.76680   0.22141   0.83361   0.00000  Uiso   1.00
H215   H     0.43704   0.14047   0.82921   0.00000  Uiso   1.00
H216   H     0.36547   0.17185   0.65793   0.00000  Uiso   1.00
H217   H     0.42112   0.05423   0.90210   0.00000  Uiso   1.00
H218   H     0.50980   0.19883   0.94821   0.00000  Uiso   1.00
H219   H     0.30933   0.20108   0.43559   0.00000  Uiso   1.00
H220   H     0.42668   0.95308   0.95047   0.00000  Uiso   1.00
H221   H     0.61368   0.25798   0.04770   0.00000  Uiso   1.00
O222   O     0.34203   0.20265   0.21136   0.00000  Uiso   1.00
O223   O     0.49599   0.87729   0.88687   0.00000  Uiso   1.00
O224   O     0.74133   0.27731   0.01442   0.00000  Uiso   1.00
N225   N     0.43623   0.16882   0.29540   0.00000  Uiso   1.00
N226   N     0.54594   0.93695   0.77676   0.00000  Uiso   1.00
N227   N     0.72078   0.22200   0.86768   0.00000  Uiso   1.00
N228   N     0.35384   0.18850   0.41060   0.00000  Uiso   1.00
N229   N     0.46355   0.95663   0.89196   0.00000  Uiso   1.00
N230   N     0.63839   0.24168   0.98288   0.00000  Uiso   1.00
C231   C     0.92510   0.89245   0.63644   0.00000  Uiso   1.00
C232   C     0.98345   0.87075   0.57060   0.00000  Uiso   1.00
C233   C     0.98661   0.86347   0.45108   0.00000  Uiso   1.00
C234   C     0.04434   0.84315   0.40768   0.00000  Uiso   1.00
C235   C     0.12694   0.81139   0.29425   0.00000  Uiso   1.00
C236   C     0.95322   0.93466   0.70326   0.00000  Uiso   1.00
C237   C     0.93096   0.98111   0.69527   0.00000  Uiso   1.00
C238   C     0.96324   0.01459   0.76356   0.00000  Uiso   1.00
C239   C     0.99888   0.08203   0.85614   0.00000  Uiso   1.00
C240   C     0.90504   0.85609   0.72830   0.00000  Uiso   1.00
C241   C     0.84226   0.83650   0.74140   0.00000  Uiso   1.00
C242   C     0.83397   0.80384   0.83079   0.00000  Uiso   1.00
C243   C     0.79480   0.74930   0.96225   0.00000  Uiso   1.00
C244   C     0.02199   0.86931   0.77192   0.00000  Uiso   1.00
C245   C     0.03607   0.85818   0.64419   0.00000  Uiso   1.00
C246   C     0.09381   0.83787   0.60097   0.00000  Uiso   1.00
C247   C     0.09706   0.83056   0.48140   0.00000  Uiso   1.00
C248   C     0.00584   0.92209   0.77684   0.00000  Uiso   1.00
C249   C     0.03816   0.95551   0.84516   0.00000  Uiso   1.00
C250   C     0.01596   0.00200   0.83728   0.00000  Uiso   1.00
C251   C     0.95766   0.84352   0.80189   0.00000  Uiso   1.00
C252   C     0.94946   0.81089   0.89128   0.00000  Uiso   1.00
C253   C     0.88669   0.79125   0.90451   0.00000  Uiso   1.00
H254   H     0.88413   0.90224   0.57915   0.00000  Uiso   1.00
H255   H     0.94588   0.87321   0.39416   0.00000  Uiso   1.00
H256   H     0.89023   0.99082   0.63833   0.00000  Uiso   1.00
H257   H     0.80155   0.84623   0.68444   0.00000  Uiso   1.00
H258   H     0.03756   0.83549   0.22150   0.00000  Uiso   1.00
H259   H     0.92021   0.08349   0.73637   0.00000  Uiso   1.00
H260   H     0.73320   0.77859   0.83361   0.00000  Uiso   1.00
H261   H     0.06296   0.85953   0.82921   0.00000  Uiso   1.00
H262   H     0.13453   0.82815   0.65793   0.00000  Uiso   1.00
H263   H     0.07888   0.94577   0.90210   0.00000  Uiso   1.00
H264   H     0.99020   0.80117   0.94821   0.00000  Uiso   1.00
H265   H     0.19067   0.79892   0.43559   0.00000  Uiso   1.00
H266   H     0.07332   0.04692   0.95047   0.00000  Uiso   1.00
H267   H     0.88632   0.74202   0.04770   0.00000  Uiso   1.00
O268   O     0.15797   0.79735   0.21136   0.00000  Uiso   1.00
O269   O     0.00401   0.12271   0.88687   0.00000  Uiso   1.00
O270   O     0.75867   0.72269   0.01442   0.00000  Uiso   1.00
N271   N     0.06377   0.83118   0.29540   0.00000  Uiso   1.00
N272   N     0.95406   0.06305   0.77676   0.00000  Uiso   1.00
N273   N     0.77922   0.77800   0.86768   0.00000  Uiso   1.00
N274   N     0.14616   0.81150   0.41060   0.00000  Uiso   1.00
N275   N     0.03645   0.04337   0.89196   0.00000  Uiso   1.00
N276   N     0.86161   0.75832   0.98288   0.00000  Uiso   1.00
C277   C     0.92510   0.60755   0.86356   0.00000  Uiso   1.00
C278   C     0.98345   0.62925   0.92940   0.00000  Uiso   1.00
C279   C     0.98661   0.63653   0.04892   0.00000  Uiso   1.00
C280   C     0.04434   0.65685   0.09232   0.00000  Uiso   1.00
C281   C     0.12694   0.68861   0.20575   0.00000  Uiso   1.00
C282   C     0.95322   0.56534   0.79674   0.00000  Uiso   1.00
C283   C     0.93096   0.51889   0.80473   0.00000  Uiso   1.00
C284   C     0.96324   0.48541   0.73644   0.00000  Uiso   1.00
C285   C     0.99888   0.41797   0.64386   0.00000  Uiso   1.00
C286   C     0.90504   0.64391   0.77170   0.00000  Uiso   1.00
C287   C     0.84226   0.66350   0.75860   0.00000  Uiso   1.00
C288   C     0.83397   0.69616   0.66921   0.00000  Uiso   1.00
C289   C     0.79480   0.75070   0.53775   0.00000  Uiso   1.00
C290   C     0.02199   0.63069   0.72808   0.00000  Uiso   1.00
C291   C     0.03607   0.64182   0.85581   0.00000  Uiso   1.00
C292   C     0.09381   0.66213   0.89903   0.00000  Uiso   1.00
C293   C     0.09706   0.66944   0.01860   0.00000  Uiso   1.00
C294   C     0.00584   0.57791   0.72316   0.00000  Uiso   1.00
C295   C     0.03816   0.54449   0.65484   0.00000  Uiso   1.00
C296   C     0.01596   0.49800   0.66272   0.00000  Uiso   1.00
C297   C     0.95766   0.65648   0.69811   0.00000  Uiso   1.00
C298   C     0.94946   0.68911   0.60872   0.00000  Uiso   1.00
C299   C     0.88669   0.70875   0.59549   0.00000  Uiso   1.00
H300   H     0.88413   0.59776   0.92085   0.00000  Uiso   1.00
H301   H     0.94588   0.62679   0.10584   0.00000  Uiso   1.00
H302   H     0.89023   0.50918   0.86167   0.00000  Uiso   1.00
H303   H     0.80155   0.65377   0.81556   0.00000  Uiso   1.00
H304   H     0.03756   0.66451   0.27850   0.00000  Uiso   1.00
H305   H     0.92021   0.41651   0.76363   0.00000  Uiso   1.00
H306   H     0.73320   0.72141   0.66639   0.00000  Uiso   1.00
H307   H     0.06296   0.64047   0.67079   0.00000  Uiso   1.00
H308   H     0.13453   0.67185   0.84207   0.00000  Uiso   1.00
H309   H     0.07888   0.55423   0.59790   0.00000  Uiso   1.00
H310   H     0.99020   0.69883   0.55179   0.00000  Uiso   1.00
H311   H     0.19067   0.70108   0.06441   0.00000  Uiso   1.00
H312   H     0.07332   0.45308   0.54953   0.00000  Uiso   1.00
H313   H     0.88632   0.75798   0.45230   0.00000  Uiso   1.00
O314   O     0.15797   0.70265   0.28864   0.00000  Uiso   1.00
O315   O     0.00401   0.37729   0.61313   0.00000  Uiso   1.00
O316   O     0.75867   0.77731   0.48558   0.00000  Uiso   1.00
N317   N     0.06377   0.66882   0.20460   0.00000  Uiso   1.00
N318   N     0.95406   0.43695   0.72324   0.00000  Uiso   1.00
N319   N     0.77922   0.72200   0.63232   0.00000  Uiso   1.00
N320   N     0.14616   0.68850   0.08940   0.00000  Uiso   1.00
N321   N     0.03645   0.45663   0.60804   0.00000  Uiso   1.00
N322   N     0.86161   0.74168   0.51712   0.00000  Uiso   1.00
C323   C     0.57490   0.39245   0.86356   0.00000  Uiso   1.00
C324   C     0.51655   0.37075   0.92940   0.00000  Uiso   1.00
C325   C     0.51339   0.36347   0.04892   0.00000  Uiso   1.00
C326   C     0.45566   0.34315   0.09232   0.00000  Uiso   1.00
C327   C     0.37306   0.31139   0.20575   0.00000  Uiso   1.00
C328   C     0.54678   0.43466   0.79674   0.00000  Uiso   1.00
C329   C     0.56904   0.48111   0.80473   0.00000  Uiso   1.00
C330   C     0.53676   0.51459   0.73644   0.00000  Uiso   1.00
C331   C     0.50112   0.58203   0.64386   0.00000  Uiso   1.00
C332   C     0.59496   0.35609   0.77170   0.00000  Uiso   1.00
C333   C     0.65774   0.33650   0.75860   0.00000  Uiso   1.00
C334   C     0.66603   0.30384   0.66921   0.00000  Uiso   1.00
C335   C     0.70520   0.24930   0.53775   0.00000  Uiso   1.00
C336   C     0.47801   0.36931   0.72808   0.00000  Uiso   1.00
C337   C     0.46393   0.35818   0.85581   0.00000  Uiso   1.00
C338   C     0.40619   0.33787   0.89903   0.00000  Uiso   1.00
C339   C     0.40294   0.33056   0.01860   0.00000  Uiso   1.00
C340   C     0.49416   0.42209   0.72316   0.00000  Uiso   1.00
C341   C     0.46184   0.45551   0.65484   0.00000  Uiso   1.00
C342   C     0.48404   0.50200   0.66272   0.00000  Uiso   1.00
C343   C     0.54234   0.34352   0.69811   0.00000  Uiso   1.00
C344   C     0.55054   0.31089   0.60872   0.00000  Uiso   1.00
C345   C     0.61331   0.29125   0.59549   0.00000  Uiso   1.00
H346   H     0.61587   0.40224   0.92085   0.00000  Uiso   1.00
H347   H     0.55412   0.37321   0.10584   0.00000  Uiso   1.00
H348   H     0.60977   0.49082   0.86167   0.00000  Uiso   1.00
H349   H     0.69845   0.34623   0.81556   0.00000  Uiso   1.00
H350   H     0.46244   0.33549   0.27850   0.00000  Uiso   1.00
H351   H     0.57979   0.58349   0.76363   0.00000  Uiso   1.00
H352   H     0.76680   0.27859   0.66639   0.00000  Uiso   1.00
H353   H     0.43704   0.35953   0.67079   0.00000  Uiso   1.00
H354   H     0.36547   0.32815   0.84207   0.00000  Uiso   1.00
H355   H     0.42112   0.44577   0.59790   0.00000  Uiso   1.00
H356   H     0.50980   0.30117   0.55179   0.00000  Uiso   1.00
H357   H     0.30933   0.29892   0.06441   0.00000  Uiso   1.00
H358   H     0.42668   0.54692   0.54953   0.00000  Uiso   1.00
H359   H     0.61368   0.24202   0.45230   0.00000  Uiso   1.00
O360   O     0.34203   0.29735   0.28864   0.00000  Uiso   1.00
O361   O     0.49599   0.62271   0.61313   0.00000  Uiso   1.00
O362   O     0.74133   0.22269   0.48558   0.00000  Uiso   1.00
N363   N     0.43623   0.33118   0.20460   0.00000  Uiso   1.00
N364   N     0.54594   0.56305   0.72324   0.00000  Uiso   1.00
N365   N     0.72078   0.27800   0.63232   0.00000  Uiso   1.00
N366   N     0.35384   0.31150   0.08940   0.00000  Uiso   1.00
N367   N     0.46355   0.54337   0.60804   0.00000  Uiso   1.00
N368   N     0.63839   0.25832   0.51712   0.00000  Uiso   1.00
