data_job_02515
_audit_creation_date              2018-12-19
_audit_creation_method            'Materials Studio'
_symmetry_space_group_name_H-M    'P1'
_symmetry_Int_Tables_number       1
_symmetry_cell_setting            triclinic
loop_
_symmetry_equiv_pos_as_xyz
  x,y,z
_cell_length_a                    9.4057
_cell_length_b                    14.4974
_cell_length_c                    45.0998
_cell_angle_alpha                 90.0000
_cell_angle_beta                  90.0000
_cell_angle_gamma                 90.0000
loop_
_atom_site_label
_atom_site_type_symbol
_atom_site_fract_x
_atom_site_fract_y
_atom_site_fract_z
_atom_site_U_iso_or_equiv
_atom_site_adp_type
_atom_site_occupancy
C1     C     0.60475   0.90588   0.11721   0.00000  Uiso   1.00
C2     C     0.51131   0.96339   0.13774   0.00000  Uiso   1.00
C3     C     0.49416   0.94944   0.16797   0.00000  Uiso   1.00
C4     C     0.40395   0.00953   0.18283   0.00000  Uiso   1.00
C5     C     0.26951   0.08793   0.21698   0.00000  Uiso   1.00
C6     C     0.50721   0.87087   0.09265   0.00000  Uiso   1.00
C7     C     0.48664   0.77914   0.08497   0.00000  Uiso   1.00
C8     C     0.39300   0.76135   0.06187   0.00000  Uiso   1.00
C9     C     0.25228   0.69612   0.02600   0.00000  Uiso   1.00
C10    C     0.70685   0.97350   0.10246   0.00000  Uiso   1.00
C11    C     0.85413   0.96804   0.10302   0.00000  Uiso   1.00
C12    C     0.92857   0.03665   0.08817   0.00000  Uiso   1.00
C13    C     0.09782   0.13076   0.06753   0.00000  Uiso   1.00
C14    C     0.47505   0.03740   0.08983   0.00000  Uiso   1.00
C15    C     0.44086   0.03482   0.12287   0.00000  Uiso   1.00
C16    C     0.35066   0.09495   0.13769   0.00000  Uiso   1.00
C17    C     0.33338   0.08109   0.16794   0.00000  Uiso   1.00
C18    C     0.43676   0.94230   0.07778   0.00000  Uiso   1.00
C19    C     0.34314   0.92464   0.05469   0.00000  Uiso   1.00
C20    C     0.32242   0.83291   0.04698   0.00000  Uiso   1.00
C21    C     0.63640   0.04494   0.08759   0.00000  Uiso   1.00
C22    C     0.71063   0.11355   0.07274   0.00000  Uiso   1.00
C23    C     0.85800   0.10821   0.07328   0.00000  Uiso   1.00
H24    H     0.65960   0.85027   0.12878   0.00000  Uiso   1.00
H25    H     0.54869   0.89415   0.17947   0.00000  Uiso   1.00
H26    H     0.54118   0.72387   0.09648   0.00000  Uiso   1.00
H27    H     0.90861   0.91276   0.11453   0.00000  Uiso   1.00
H28    H     0.39461   0.97428   0.22911   0.00000  Uiso   1.00
H29    H     0.37882   0.61525   0.05412   0.00000  Uiso   1.00
H30    H     0.15363   0.01354   0.09217   0.00000  Uiso   1.00
H31    H     0.42020   0.09301   0.07825   0.00000  Uiso   1.00
H32    H     0.29615   0.15022   0.12617   0.00000  Uiso   1.00
H33    H     0.28865   0.97994   0.04319   0.00000  Uiso   1.00
H34    H     0.65608   0.16882   0.06123   0.00000  Uiso   1.00
H35    H     0.18964   0.18212   0.18585   0.00000  Uiso   1.00
H36    H     0.17386   0.82308   0.01086   0.00000  Uiso   1.00
H37    H     0.94866   0.22137   0.04892   0.00000  Uiso   1.00
O38    O     0.21480   0.11143   0.23992   0.00000  Uiso   1.00
O39    O     0.19412   0.64040   0.01033   0.00000  Uiso   1.00
O40    O     0.21064   0.16295   0.06026   0.00000  Uiso   1.00
N41    N     0.36342   0.01536   0.21236   0.00000  Uiso   1.00
N42    N     0.34864   0.67968   0.04875   0.00000  Uiso   1.00
N43    N     0.07302   0.05204   0.08432   0.00000  Uiso   1.00
N44    N     0.25312   0.12719   0.18908   0.00000  Uiso   1.00
N45    N     0.23835   0.79152   0.02548   0.00000  Uiso   1.00
N46    N     0.96273   0.16387   0.06105   0.00000  Uiso   1.00
C47    C     0.85292   0.09976   0.37924   0.00000  Uiso   1.00
C48    C     0.75835   0.04401   0.35843   0.00000  Uiso   1.00
C49    C     0.74082   0.05988   0.32831   0.00000  Uiso   1.00
C50    C     0.64955   0.00119   0.31315   0.00000  Uiso   1.00
C51    C     0.51346   0.92560   0.27864   0.00000  Uiso   1.00
C52    C     0.75630   0.13381   0.40409   0.00000  Uiso   1.00
C53    C     0.73707   0.22518   0.41236   0.00000  Uiso   1.00
C54    C     0.64409   0.24208   0.43564   0.00000  Uiso   1.00
C55    C     0.50490   0.30589   0.47203   0.00000  Uiso   1.00
C56    C     0.95441   0.03072   0.39347   0.00000  Uiso   1.00
C57    C     0.10175   0.03540   0.39282   0.00000  Uiso   1.00
C58    C     0.17557   0.96552   0.40718   0.00000  Uiso   1.00
C59    C     0.34397   0.86926   0.42709   0.00000  Uiso   1.00
C60    C     0.72202   0.96733   0.40590   0.00000  Uiso   1.00
C61    C     0.68725   0.97208   0.37291   0.00000  Uiso   1.00
C62    C     0.59599   0.91336   0.35780   0.00000  Uiso   1.00
C63    C     0.57833   0.92913   0.32766   0.00000  Uiso   1.00
C64    C     0.68520   0.06188   0.41857   0.00000  Uiso   1.00
C65    C     0.59224   0.07865   0.44185   0.00000  Uiso   1.00
C66    C     0.57286   0.17002   0.45015   0.00000  Uiso   1.00
C67    C     0.88331   0.95878   0.40796   0.00000  Uiso   1.00
C68    C     0.95692   0.88888   0.42232   0.00000  Uiso   1.00
C69    C     0.10434   0.89346   0.42169   0.00000  Uiso   1.00
H70    H     0.90827   0.15577   0.36797   0.00000  Uiso   1.00
H71    H     0.79585   0.11556   0.31711   0.00000  Uiso   1.00
H72    H     0.79211   0.28083   0.40115   0.00000  Uiso   1.00
H73    H     0.15673   0.09108   0.38162   0.00000  Uiso   1.00
H74    H     0.63981   0.03928   0.26711   0.00000  Uiso   1.00
H75    H     0.63197   0.38775   0.44431   0.00000  Uiso   1.00
H76    H     0.40084   0.98764   0.40313   0.00000  Uiso   1.00
H77    H     0.66667   0.91133   0.41718   0.00000  Uiso   1.00
H78    H     0.54098   0.85770   0.36901   0.00000  Uiso   1.00
H79    H     0.53724   0.02297   0.45305   0.00000  Uiso   1.00
H80    H     0.90186   0.83323   0.43352   0.00000  Uiso   1.00
H81    H     0.43295   0.82999   0.30924   0.00000  Uiso   1.00
H82    H     0.42511   0.17847   0.48644   0.00000  Uiso   1.00
H83    H     0.19398   0.77835   0.44526   0.00000  Uiso   1.00
O84    O     0.45802   0.90378   0.25560   0.00000  Uiso   1.00
O85    O     0.44776   0.36097   0.48809   0.00000  Uiso   1.00
O86    O     0.45650   0.83603   0.43406   0.00000  Uiso   1.00
N87    N     0.60839   0.99737   0.28363   0.00000  Uiso   1.00
N88    N     0.60104   0.32317   0.44931   0.00000  Uiso   1.00
N89    N     0.31988   0.94911   0.41081   0.00000  Uiso   1.00
N90    N     0.49708   0.88475   0.30630   0.00000  Uiso   1.00
N91    N     0.48973   0.21056   0.47197   0.00000  Uiso   1.00
N92    N     0.20857   0.83650   0.43348   0.00000  Uiso   1.00
C93    C     0.39525   0.09412   0.61721   0.00000  Uiso   1.00
C94    C     0.48869   0.03661   0.63774   0.00000  Uiso   1.00
C95    C     0.50584   0.05056   0.66797   0.00000  Uiso   1.00
C96    C     0.59605   0.99047   0.68283   0.00000  Uiso   1.00
C97    C     0.73049   0.91207   0.71698   0.00000  Uiso   1.00
C98    C     0.49279   0.12913   0.59265   0.00000  Uiso   1.00
C99    C     0.51336   0.22086   0.58497   0.00000  Uiso   1.00
C100   C     0.60700   0.23865   0.56187   0.00000  Uiso   1.00
C101   C     0.74772   0.30388   0.52600   0.00000  Uiso   1.00
C102   C     0.29315   0.02650   0.60246   0.00000  Uiso   1.00
C103   C     0.14587   0.03196   0.60302   0.00000  Uiso   1.00
C104   C     0.07143   0.96335   0.58817   0.00000  Uiso   1.00
C105   C     0.90218   0.86924   0.56753   0.00000  Uiso   1.00
C106   C     0.52495   0.96260   0.58983   0.00000  Uiso   1.00
C107   C     0.55914   0.96518   0.62287   0.00000  Uiso   1.00
C108   C     0.64934   0.90505   0.63769   0.00000  Uiso   1.00
C109   C     0.66662   0.91891   0.66794   0.00000  Uiso   1.00
C110   C     0.56324   0.05770   0.57778   0.00000  Uiso   1.00
C111   C     0.65686   0.07536   0.55469   0.00000  Uiso   1.00
C112   C     0.67758   0.16709   0.54698   0.00000  Uiso   1.00
C113   C     0.36360   0.95506   0.58759   0.00000  Uiso   1.00
C114   C     0.28937   0.88645   0.57274   0.00000  Uiso   1.00
C115   C     0.14200   0.89179   0.57328   0.00000  Uiso   1.00
H116   H     0.34040   0.14973   0.62878   0.00000  Uiso   1.00
H117   H     0.45131   0.10585   0.67947   0.00000  Uiso   1.00
H118   H     0.45882   0.27613   0.59648   0.00000  Uiso   1.00
H119   H     0.09139   0.08724   0.61453   0.00000  Uiso   1.00
H120   H     0.60539   0.02572   0.72911   0.00000  Uiso   1.00
H121   H     0.62118   0.38475   0.55412   0.00000  Uiso   1.00
H122   H     0.84637   0.98646   0.59217   0.00000  Uiso   1.00
H123   H     0.57980   0.90699   0.57825   0.00000  Uiso   1.00
H124   H     0.70385   0.84978   0.62617   0.00000  Uiso   1.00
H125   H     0.71135   0.02006   0.54319   0.00000  Uiso   1.00
H126   H     0.34392   0.83118   0.56123   0.00000  Uiso   1.00
H127   H     0.81036   0.81788   0.68585   0.00000  Uiso   1.00
H128   H     0.82614   0.17692   0.51086   0.00000  Uiso   1.00
H129   H     0.05134   0.77863   0.54892   0.00000  Uiso   1.00
O130   O     0.78520   0.88857   0.73992   0.00000  Uiso   1.00
O131   O     0.80588   0.35960   0.51033   0.00000  Uiso   1.00
O132   O     0.78936   0.83705   0.56026   0.00000  Uiso   1.00
N133   N     0.63658   0.98464   0.71236   0.00000  Uiso   1.00
N134   N     0.65136   0.32032   0.54875   0.00000  Uiso   1.00
N135   N     0.92698   0.94796   0.58432   0.00000  Uiso   1.00
N136   N     0.74688   0.87281   0.68908   0.00000  Uiso   1.00
N137   N     0.76165   0.20848   0.52548   0.00000  Uiso   1.00
N138   N     0.03727   0.83613   0.56105   0.00000  Uiso   1.00
C139   C     0.14708   0.90024   0.87924   0.00000  Uiso   1.00
C140   C     0.24165   0.95599   0.85843   0.00000  Uiso   1.00
C141   C     0.25918   0.94012   0.82831   0.00000  Uiso   1.00
C142   C     0.35045   0.99881   0.81315   0.00000  Uiso   1.00
C143   C     0.48654   0.07440   0.77864   0.00000  Uiso   1.00
C144   C     0.24370   0.86619   0.90409   0.00000  Uiso   1.00
C145   C     0.26293   0.77482   0.91236   0.00000  Uiso   1.00
C146   C     0.35591   0.75792   0.93564   0.00000  Uiso   1.00
C147   C     0.49510   0.69411   0.97203   0.00000  Uiso   1.00
C148   C     0.04559   0.96929   0.89347   0.00000  Uiso   1.00
C149   C     0.89825   0.96460   0.89282   0.00000  Uiso   1.00
C150   C     0.82443   0.03448   0.90718   0.00000  Uiso   1.00
C151   C     0.65603   0.13074   0.92709   0.00000  Uiso   1.00
C152   C     0.27798   0.03267   0.90590   0.00000  Uiso   1.00
C153   C     0.31275   0.02792   0.87291   0.00000  Uiso   1.00
C154   C     0.40401   0.08664   0.85780   0.00000  Uiso   1.00
C155   C     0.42167   0.07087   0.82766   0.00000  Uiso   1.00
C156   C     0.31480   0.93812   0.91857   0.00000  Uiso   1.00
C157   C     0.40776   0.92135   0.94185   0.00000  Uiso   1.00
C158   C     0.42714   0.82998   0.95015   0.00000  Uiso   1.00
C159   C     0.11669   0.04122   0.90796   0.00000  Uiso   1.00
C160   C     0.04308   0.11112   0.92232   0.00000  Uiso   1.00
C161   C     0.89566   0.10654   0.92169   0.00000  Uiso   1.00
H162   H     0.09173   0.84423   0.86797   0.00000  Uiso   1.00
H163   H     0.20415   0.88444   0.81711   0.00000  Uiso   1.00
H164   H     0.20789   0.71917   0.90115   0.00000  Uiso   1.00
H165   H     0.84327   0.90892   0.88162   0.00000  Uiso   1.00
H166   H     0.36019   0.96072   0.76711   0.00000  Uiso   1.00
H167   H     0.36803   0.61225   0.94431   0.00000  Uiso   1.00
H168   H     0.59916   0.01236   0.90313   0.00000  Uiso   1.00
H169   H     0.33333   0.08867   0.91718   0.00000  Uiso   1.00
H170   H     0.45902   0.14230   0.86901   0.00000  Uiso   1.00
H171   H     0.46276   0.97703   0.95305   0.00000  Uiso   1.00
H172   H     0.09814   0.16677   0.93352   0.00000  Uiso   1.00
H173   H     0.56705   0.17001   0.80924   0.00000  Uiso   1.00
H174   H     0.57489   0.82153   0.98644   0.00000  Uiso   1.00
H175   H     0.80602   0.22165   0.94526   0.00000  Uiso   1.00
O176   O     0.54198   0.09622   0.75560   0.00000  Uiso   1.00
O177   O     0.55224   0.63903   0.98809   0.00000  Uiso   1.00
O178   O     0.54350   0.16397   0.93406   0.00000  Uiso   1.00
N179   N     0.39161   0.00263   0.78363   0.00000  Uiso   1.00
N180   N     0.39896   0.67683   0.94931   0.00000  Uiso   1.00
N181   N     0.68012   0.05089   0.91081   0.00000  Uiso   1.00
N182   N     0.50292   0.11525   0.80630   0.00000  Uiso   1.00
N183   N     0.51027   0.78944   0.97197   0.00000  Uiso   1.00
N184   N     0.79143   0.16350   0.93348   0.00000  Uiso   1.00
C185   C     0.10475   0.59412   0.11721   0.00000  Uiso   1.00
C186   C     0.01131   0.53661   0.13774   0.00000  Uiso   1.00
C187   C     0.99416   0.55056   0.16797   0.00000  Uiso   1.00
C188   C     0.90395   0.49047   0.18283   0.00000  Uiso   1.00
C189   C     0.76951   0.41207   0.21698   0.00000  Uiso   1.00
C190   C     0.00721   0.62913   0.09265   0.00000  Uiso   1.00
C191   C     0.98664   0.72086   0.08497   0.00000  Uiso   1.00
C192   C     0.89300   0.73865   0.06187   0.00000  Uiso   1.00
C193   C     0.75228   0.80388   0.02600   0.00000  Uiso   1.00
C194   C     0.20685   0.52650   0.10246   0.00000  Uiso   1.00
C195   C     0.35413   0.53196   0.10302   0.00000  Uiso   1.00
C196   C     0.42857   0.46335   0.08817   0.00000  Uiso   1.00
C197   C     0.59782   0.36924   0.06753   0.00000  Uiso   1.00
C198   C     0.97505   0.46260   0.08983   0.00000  Uiso   1.00
C199   C     0.94086   0.46518   0.12287   0.00000  Uiso   1.00
C200   C     0.85066   0.40505   0.13769   0.00000  Uiso   1.00
C201   C     0.83338   0.41891   0.16794   0.00000  Uiso   1.00
C202   C     0.93676   0.55770   0.07778   0.00000  Uiso   1.00
C203   C     0.84314   0.57536   0.05469   0.00000  Uiso   1.00
C204   C     0.82242   0.66709   0.04698   0.00000  Uiso   1.00
C205   C     0.13640   0.45506   0.08759   0.00000  Uiso   1.00
C206   C     0.21063   0.38645   0.07274   0.00000  Uiso   1.00
C207   C     0.35800   0.39179   0.07328   0.00000  Uiso   1.00
H208   H     0.15960   0.64973   0.12878   0.00000  Uiso   1.00
H209   H     0.04869   0.60585   0.17947   0.00000  Uiso   1.00
H210   H     0.04118   0.77613   0.09648   0.00000  Uiso   1.00
H211   H     0.40861   0.58724   0.11453   0.00000  Uiso   1.00
H212   H     0.89461   0.52572   0.22911   0.00000  Uiso   1.00
H213   H     0.87882   0.88475   0.05412   0.00000  Uiso   1.00
H214   H     0.65363   0.48646   0.09217   0.00000  Uiso   1.00
H215   H     0.92020   0.40699   0.07825   0.00000  Uiso   1.00
H216   H     0.79615   0.34978   0.12617   0.00000  Uiso   1.00
H217   H     0.78865   0.52006   0.04319   0.00000  Uiso   1.00
H218   H     0.15608   0.33118   0.06123   0.00000  Uiso   1.00
H219   H     0.68964   0.31788   0.18585   0.00000  Uiso   1.00
H220   H     0.67386   0.67692   0.01086   0.00000  Uiso   1.00
H221   H     0.44866   0.27863   0.04892   0.00000  Uiso   1.00
O222   O     0.71480   0.38857   0.23992   0.00000  Uiso   1.00
O223   O     0.69412   0.85960   0.01033   0.00000  Uiso   1.00
O224   O     0.71064   0.33705   0.06026   0.00000  Uiso   1.00
N225   N     0.86342   0.48464   0.21236   0.00000  Uiso   1.00
N226   N     0.84864   0.82032   0.04875   0.00000  Uiso   1.00
N227   N     0.57302   0.44796   0.08432   0.00000  Uiso   1.00
N228   N     0.75312   0.37281   0.18908   0.00000  Uiso   1.00
N229   N     0.73835   0.70848   0.02548   0.00000  Uiso   1.00
N230   N     0.46273   0.33613   0.06105   0.00000  Uiso   1.00
C231   C     0.35292   0.40024   0.37924   0.00000  Uiso   1.00
C232   C     0.25835   0.45599   0.35843   0.00000  Uiso   1.00
C233   C     0.24082   0.44012   0.32831   0.00000  Uiso   1.00
C234   C     0.14955   0.49881   0.31315   0.00000  Uiso   1.00
C235   C     0.01346   0.57440   0.27864   0.00000  Uiso   1.00
C236   C     0.25630   0.36619   0.40409   0.00000  Uiso   1.00
C237   C     0.23707   0.27482   0.41236   0.00000  Uiso   1.00
C238   C     0.14409   0.25792   0.43564   0.00000  Uiso   1.00
C239   C     0.00490   0.19411   0.47203   0.00000  Uiso   1.00
C240   C     0.45441   0.46928   0.39347   0.00000  Uiso   1.00
C241   C     0.60175   0.46460   0.39282   0.00000  Uiso   1.00
C242   C     0.67557   0.53448   0.40718   0.00000  Uiso   1.00
C243   C     0.84397   0.63074   0.42709   0.00000  Uiso   1.00
C244   C     0.22202   0.53267   0.40590   0.00000  Uiso   1.00
C245   C     0.18725   0.52792   0.37291   0.00000  Uiso   1.00
C246   C     0.09599   0.58664   0.35780   0.00000  Uiso   1.00
C247   C     0.07833   0.57087   0.32766   0.00000  Uiso   1.00
C248   C     0.18520   0.43812   0.41857   0.00000  Uiso   1.00
C249   C     0.09224   0.42135   0.44185   0.00000  Uiso   1.00
C250   C     0.07286   0.32998   0.45015   0.00000  Uiso   1.00
C251   C     0.38331   0.54122   0.40796   0.00000  Uiso   1.00
C252   C     0.45692   0.61112   0.42232   0.00000  Uiso   1.00
C253   C     0.60434   0.60654   0.42169   0.00000  Uiso   1.00
H254   H     0.40827   0.34423   0.36797   0.00000  Uiso   1.00
H255   H     0.29585   0.38444   0.31711   0.00000  Uiso   1.00
H256   H     0.29211   0.21917   0.40115   0.00000  Uiso   1.00
H257   H     0.65673   0.40892   0.38162   0.00000  Uiso   1.00
H258   H     0.13981   0.46072   0.26711   0.00000  Uiso   1.00
H259   H     0.13197   0.11225   0.44431   0.00000  Uiso   1.00
H260   H     0.90084   0.51236   0.40313   0.00000  Uiso   1.00
H261   H     0.16667   0.58867   0.41718   0.00000  Uiso   1.00
H262   H     0.04098   0.64230   0.36901   0.00000  Uiso   1.00
H263   H     0.03724   0.47703   0.45305   0.00000  Uiso   1.00
H264   H     0.40186   0.66677   0.43352   0.00000  Uiso   1.00
H265   H     0.93295   0.67001   0.30924   0.00000  Uiso   1.00
H266   H     0.92511   0.32153   0.48644   0.00000  Uiso   1.00
H267   H     0.69398   0.72165   0.44526   0.00000  Uiso   1.00
O268   O     0.95802   0.59622   0.25560   0.00000  Uiso   1.00
O269   O     0.94776   0.13903   0.48809   0.00000  Uiso   1.00
O270   O     0.95650   0.66397   0.43406   0.00000  Uiso   1.00
N271   N     0.10839   0.50263   0.28363   0.00000  Uiso   1.00
N272   N     0.10104   0.17683   0.44931   0.00000  Uiso   1.00
N273   N     0.81988   0.55089   0.41081   0.00000  Uiso   1.00
N274   N     0.99708   0.61525   0.30630   0.00000  Uiso   1.00
N275   N     0.98973   0.28944   0.47197   0.00000  Uiso   1.00
N276   N     0.70857   0.66350   0.43348   0.00000  Uiso   1.00
C277   C     0.89525   0.40588   0.61721   0.00000  Uiso   1.00
C278   C     0.98869   0.46339   0.63774   0.00000  Uiso   1.00
C279   C     0.00584   0.44944   0.66797   0.00000  Uiso   1.00
C280   C     0.09605   0.50953   0.68283   0.00000  Uiso   1.00
C281   C     0.23049   0.58793   0.71698   0.00000  Uiso   1.00
C282   C     0.99279   0.37087   0.59265   0.00000  Uiso   1.00
C283   C     0.01336   0.27914   0.58497   0.00000  Uiso   1.00
C284   C     0.10700   0.26135   0.56187   0.00000  Uiso   1.00
C285   C     0.24772   0.19612   0.52600   0.00000  Uiso   1.00
C286   C     0.79315   0.47350   0.60246   0.00000  Uiso   1.00
C287   C     0.64587   0.46804   0.60302   0.00000  Uiso   1.00
C288   C     0.57143   0.53665   0.58817   0.00000  Uiso   1.00
C289   C     0.40218   0.63076   0.56753   0.00000  Uiso   1.00
C290   C     0.02495   0.53740   0.58983   0.00000  Uiso   1.00
C291   C     0.05914   0.53482   0.62287   0.00000  Uiso   1.00
C292   C     0.14934   0.59495   0.63769   0.00000  Uiso   1.00
C293   C     0.16662   0.58109   0.66794   0.00000  Uiso   1.00
C294   C     0.06324   0.44230   0.57778   0.00000  Uiso   1.00
C295   C     0.15686   0.42464   0.55469   0.00000  Uiso   1.00
C296   C     0.17758   0.33291   0.54698   0.00000  Uiso   1.00
C297   C     0.86360   0.54494   0.58759   0.00000  Uiso   1.00
C298   C     0.78937   0.61355   0.57274   0.00000  Uiso   1.00
C299   C     0.64200   0.60821   0.57328   0.00000  Uiso   1.00
H300   H     0.84040   0.35027   0.62878   0.00000  Uiso   1.00
H301   H     0.95131   0.39415   0.67947   0.00000  Uiso   1.00
H302   H     0.95882   0.22387   0.59648   0.00000  Uiso   1.00
H303   H     0.59139   0.41276   0.61453   0.00000  Uiso   1.00
H304   H     0.10539   0.47428   0.72911   0.00000  Uiso   1.00
H305   H     0.12118   0.11525   0.55412   0.00000  Uiso   1.00
H306   H     0.34637   0.51354   0.59217   0.00000  Uiso   1.00
H307   H     0.07980   0.59301   0.57825   0.00000  Uiso   1.00
H308   H     0.20385   0.65022   0.62617   0.00000  Uiso   1.00
H309   H     0.21135   0.47994   0.54319   0.00000  Uiso   1.00
H310   H     0.84392   0.66882   0.56123   0.00000  Uiso   1.00
H311   H     0.31036   0.68212   0.68585   0.00000  Uiso   1.00
H312   H     0.32614   0.32308   0.51086   0.00000  Uiso   1.00
H313   H     0.55134   0.72137   0.54892   0.00000  Uiso   1.00
O314   O     0.28520   0.61143   0.73992   0.00000  Uiso   1.00
O315   O     0.30588   0.14040   0.51033   0.00000  Uiso   1.00
O316   O     0.28936   0.66295   0.56026   0.00000  Uiso   1.00
N317   N     0.13658   0.51536   0.71236   0.00000  Uiso   1.00
N318   N     0.15136   0.17968   0.54875   0.00000  Uiso   1.00
N319   N     0.42698   0.55204   0.58432   0.00000  Uiso   1.00
N320   N     0.24688   0.62719   0.68908   0.00000  Uiso   1.00
N321   N     0.26165   0.29152   0.52548   0.00000  Uiso   1.00
N322   N     0.53727   0.66387   0.56105   0.00000  Uiso   1.00
C323   C     0.64708   0.59976   0.87924   0.00000  Uiso   1.00
C324   C     0.74165   0.54401   0.85843   0.00000  Uiso   1.00
C325   C     0.75918   0.55988   0.82831   0.00000  Uiso   1.00
C326   C     0.85045   0.50119   0.81315   0.00000  Uiso   1.00
C327   C     0.98654   0.42560   0.77864   0.00000  Uiso   1.00
C328   C     0.74370   0.63381   0.90409   0.00000  Uiso   1.00
C329   C     0.76293   0.72518   0.91236   0.00000  Uiso   1.00
C330   C     0.85591   0.74208   0.93564   0.00000  Uiso   1.00
C331   C     0.99510   0.80589   0.97203   0.00000  Uiso   1.00
C332   C     0.54559   0.53072   0.89347   0.00000  Uiso   1.00
C333   C     0.39825   0.53540   0.89282   0.00000  Uiso   1.00
C334   C     0.32443   0.46552   0.90718   0.00000  Uiso   1.00
C335   C     0.15603   0.36926   0.92709   0.00000  Uiso   1.00
C336   C     0.77798   0.46733   0.90590   0.00000  Uiso   1.00
C337   C     0.81275   0.47208   0.87291   0.00000  Uiso   1.00
C338   C     0.90401   0.41336   0.85780   0.00000  Uiso   1.00
C339   C     0.92167   0.42913   0.82766   0.00000  Uiso   1.00
C340   C     0.81480   0.56188   0.91857   0.00000  Uiso   1.00
C341   C     0.90776   0.57865   0.94185   0.00000  Uiso   1.00
C342   C     0.92714   0.67002   0.95015   0.00000  Uiso   1.00
C343   C     0.61669   0.45878   0.90796   0.00000  Uiso   1.00
C344   C     0.54308   0.38888   0.92232   0.00000  Uiso   1.00
C345   C     0.39566   0.39346   0.92169   0.00000  Uiso   1.00
H346   H     0.59173   0.65577   0.86797   0.00000  Uiso   1.00
H347   H     0.70415   0.61556   0.81711   0.00000  Uiso   1.00
H348   H     0.70789   0.78083   0.90115   0.00000  Uiso   1.00
H349   H     0.34327   0.59108   0.88162   0.00000  Uiso   1.00
H350   H     0.86019   0.53928   0.76711   0.00000  Uiso   1.00
H351   H     0.86803   0.88775   0.94431   0.00000  Uiso   1.00
H352   H     0.09916   0.48764   0.90313   0.00000  Uiso   1.00
H353   H     0.83333   0.41133   0.91718   0.00000  Uiso   1.00
H354   H     0.95902   0.35770   0.86901   0.00000  Uiso   1.00
H355   H     0.96276   0.52297   0.95305   0.00000  Uiso   1.00
H356   H     0.59814   0.33323   0.93352   0.00000  Uiso   1.00
H357   H     0.06705   0.32999   0.80924   0.00000  Uiso   1.00
H358   H     0.07489   0.67847   0.98644   0.00000  Uiso   1.00
H359   H     0.30602   0.27835   0.94526   0.00000  Uiso   1.00
O360   O     0.04198   0.40378   0.75560   0.00000  Uiso   1.00
O361   O     0.05224   0.86097   0.98809   0.00000  Uiso   1.00
O362   O     0.04350   0.33603   0.93406   0.00000  Uiso   1.00
N363   N     0.89161   0.49737   0.78363   0.00000  Uiso   1.00
N364   N     0.89896   0.82317   0.94931   0.00000  Uiso   1.00
N365   N     0.18012   0.44911   0.91081   0.00000  Uiso   1.00
N366   N     0.00292   0.38475   0.80630   0.00000  Uiso   1.00
N367   N     0.01027   0.71056   0.97197   0.00000  Uiso   1.00
N368   N     0.29143   0.33650   0.93348   0.00000  Uiso   1.00
