data_job_06531
_audit_creation_date              2018-12-19
_audit_creation_method            'Materials Studio'
_symmetry_space_group_name_H-M    'P1'
_symmetry_Int_Tables_number       1
_symmetry_cell_setting            triclinic
loop_
_symmetry_equiv_pos_as_xyz
  x,y,z
_cell_length_a                    20.7845
_cell_length_b                    23.2662
_cell_length_c                    23.4271
_cell_angle_alpha                 97.4066
_cell_angle_beta                  63.9489
_cell_angle_gamma                 65.8067
loop_
_atom_site_label
_atom_site_type_symbol
_atom_site_fract_x
_atom_site_fract_y
_atom_site_fract_z
_atom_site_U_iso_or_equiv
_atom_site_adp_type
_atom_site_occupancy
C1     C     0.73571   0.44280   0.90038   0.00000  Uiso   1.00
C2     C     0.80039   0.42468   0.92002   0.00000  Uiso   1.00
C3     C     0.83576   0.36659   0.93242   0.00000  Uiso   1.00
C4     C     0.89376   0.35938   0.94974   0.00000  Uiso   1.00
C5     C     0.99085   0.32378   0.97955   0.00000  Uiso   1.00
C6     C     0.66062   0.51260   0.95400   0.00000  Uiso   1.00
C7     C     0.57847   0.52842   0.99495   0.00000  Uiso   1.00
C8     C     0.51882   0.59521   0.04087   0.00000  Uiso   1.00
C9     C     0.39890   0.69611   0.12339   0.00000  Uiso   1.00
C10    C     0.77360   0.45315   0.83311   0.00000  Uiso   1.00
C11    C     0.78644   0.41900   0.77241   0.00000  Uiso   1.00
C12    C     0.82189   0.43575   0.71654   0.00000  Uiso   1.00
C13    C     0.87739   0.44435   0.61136   0.00000  Uiso   1.00
C14    C     0.77583   0.53330   0.90910   0.00000  Uiso   1.00
C15    C     0.82217   0.47384   0.92476   0.00000  Uiso   1.00
C16    C     0.88014   0.46671   0.94206   0.00000  Uiso   1.00
C17    C     0.91560   0.40862   0.95448   0.00000  Uiso   1.00
C18    C     0.68241   0.56175   0.95873   0.00000  Uiso   1.00
C19    C     0.62286   0.62854   0.00459   0.00000  Uiso   1.00
C20    C     0.54064   0.64446   0.04561   0.00000  Uiso   1.00
C21    C     0.79540   0.50230   0.83784   0.00000  Uiso   1.00
C22    C     0.83083   0.51912   0.78205   0.00000  Uiso   1.00
C23    C     0.84372   0.48500   0.72129   0.00000  Uiso   1.00
H24    H     0.71874   0.40454   0.89670   0.00000  Uiso   1.00
H25    H     0.81887   0.32856   0.92876   0.00000  Uiso   1.00
H26    H     0.56163   0.49037   0.99127   0.00000  Uiso   1.00
H27    H     0.76957   0.38096   0.76877   0.00000  Uiso   1.00
H28    H     0.93948   0.26602   0.96641   0.00000  Uiso   1.00
H29    H     0.39705   0.60720   0.09822   0.00000  Uiso   1.00
H30    H     0.83553   0.37650   0.62902   0.00000  Uiso   1.00
H31    H     0.79279   0.57157   0.91278   0.00000  Uiso   1.00
H32    H     0.89699   0.50476   0.94572   0.00000  Uiso   1.00
H33    H     0.63974   0.66656   0.00824   0.00000  Uiso   1.00
H34    H     0.84768   0.55716   0.78573   0.00000  Uiso   1.00
H35    H     0.00288   0.40903   0.98018   0.00000  Uiso   1.00
H36    H     0.46045   0.75021   0.11199   0.00000  Uiso   1.00
H37    H     0.89893   0.51950   0.64279   0.00000  Uiso   1.00
O38    O     0.03837   0.29058   0.99469   0.00000  Uiso   1.00
O39    O     0.32673   0.73819   0.16761   0.00000  Uiso   1.00
O40    O     0.90200   0.43551   0.55203   0.00000  Uiso   1.00
N41    N     0.94011   0.30884   0.96511   0.00000  Uiso   1.00
N42    N     0.43298   0.62782   0.08836   0.00000  Uiso   1.00
N43    N     0.84290   0.41214   0.64970   0.00000  Uiso   1.00
N44    N     0.97423   0.38579   0.97252   0.00000  Uiso   1.00
N45    N     0.46710   0.70477   0.09576   0.00000  Uiso   1.00
N46    N     0.87701   0.48909   0.65711   0.00000  Uiso   1.00
C47    C     0.83709   0.48076   0.30267   0.00000  Uiso   1.00
C48    C     0.80708   0.43116   0.31551   0.00000  Uiso   1.00
C49    C     0.82887   0.37540   0.26539   0.00000  Uiso   1.00
C50    C     0.79478   0.33629   0.28762   0.00000  Uiso   1.00
C51    C     0.75636   0.25685   0.29693   0.00000  Uiso   1.00
C52    C     0.75788   0.55121   0.33770   0.00000  Uiso   1.00
C53    C     0.73832   0.59639   0.30624   0.00000  Uiso   1.00
C54    C     0.66282   0.65835   0.34716   0.00000  Uiso   1.00
C55    C     0.54804   0.76531   0.39094   0.00000  Uiso   1.00
C56    C     0.87825   0.48026   0.34292   0.00000  Uiso   1.00
C57    C     0.95989   0.46579   0.31586   0.00000  Uiso   1.00
C58    C     0.98573   0.46802   0.36118   0.00000  Uiso   1.00
C59    C     0.05785   0.46480   0.41307   0.00000  Uiso   1.00
C60    C     0.73781   0.51047   0.43128   0.00000  Uiso   1.00
C61    C     0.75315   0.44730   0.38537   0.00000  Uiso   1.00
C62    C     0.71903   0.40827   0.40769   0.00000  Uiso   1.00
C63    C     0.74076   0.35245   0.35760   0.00000  Uiso   1.00
C64    C     0.70396   0.56735   0.40756   0.00000  Uiso   1.00
C65    C     0.62847   0.62926   0.44854   0.00000  Uiso   1.00
C66    C     0.60879   0.67452   0.41715   0.00000  Uiso   1.00
C67    C     0.82433   0.49639   0.41279   0.00000  Uiso   1.00
C68    C     0.85004   0.49865   0.45816   0.00000  Uiso   1.00
C69    C     0.93170   0.48419   0.43116   0.00000  Uiso   1.00
H70    H     0.87907   0.46820   0.24828   0.00000  Uiso   1.00
H71    H     0.87060   0.36293   0.21133   0.00000  Uiso   1.00
H72    H     0.78006   0.58389   0.25218   0.00000  Uiso   1.00
H73    H     0.00160   0.45330   0.26179   0.00000  Uiso   1.00
H74    H     0.83740   0.25335   0.20117   0.00000  Uiso   1.00
H75    H     0.64652   0.71927   0.28731   0.00000  Uiso   1.00
H76    H     0.11367   0.44390   0.30758   0.00000  Uiso   1.00
H77    H     0.69582   0.52303   0.48568   0.00000  Uiso   1.00
H78    H     0.67730   0.42077   0.46175   0.00000  Uiso   1.00
H79    H     0.58676   0.64173   0.50260   0.00000  Uiso   1.00
H80    H     0.80830   0.51114   0.51222   0.00000  Uiso   1.00
H81    H     0.68051   0.30030   0.40442   0.00000  Uiso   1.00
H82    H     0.48963   0.76622   0.49056   0.00000  Uiso   1.00
H83    H     0.95678   0.49085   0.51084   0.00000  Uiso   1.00
O84    O     0.75005   0.20857   0.28277   0.00000  Uiso   1.00
O85    O     0.49963   0.81985   0.39579   0.00000  Uiso   1.00
O86    O     0.11253   0.45856   0.42239   0.00000  Uiso   1.00
N87    N     0.80303   0.27842   0.25229   0.00000  Uiso   1.00
N88    N     0.62456   0.71403   0.33282   0.00000  Uiso   1.00
N89    N     0.06130   0.45660   0.35178   0.00000  Uiso   1.00
N90    N     0.71861   0.30369   0.36165   0.00000  Uiso   1.00
N91    N     0.54014   0.73929   0.44219   0.00000  Uiso   1.00
N92    N     0.97688   0.48186   0.46115   0.00000  Uiso   1.00
C93    C     0.50887   0.44079   0.21385   0.00000  Uiso   1.00
C94    C     0.49000   0.41463   0.16362   0.00000  Uiso   1.00
C95    C     0.54813   0.37475   0.09433   0.00000  Uiso   1.00
C96    C     0.51837   0.35609   0.05711   0.00000  Uiso   1.00
C97    C     0.50196   0.31239   0.97439   0.00000  Uiso   1.00
C98    C     0.45054   0.51794   0.24536   0.00000  Uiso   1.00
C99    C     0.47550   0.56491   0.24481   0.00000  Uiso   1.00
C100   C     0.41252   0.63322   0.27642   0.00000  Uiso   1.00
C101   C     0.33486   0.74990   0.32065   0.00000  Uiso   1.00
C102   C     0.47901   0.41569   0.27170   0.00000  Uiso   1.00
C103   C     0.52790   0.37672   0.29331   0.00000  Uiso   1.00
C104   C     0.48888   0.35896   0.34711   0.00000  Uiso   1.00
C105   C     0.45541   0.31689   0.43224   0.00000  Uiso   1.00
C106   C     0.35264   0.47857   0.27097   0.00000  Uiso   1.00
C107   C     0.40514   0.43516   0.19464   0.00000  Uiso   1.00
C108   C     0.37528   0.41656   0.15752   0.00000  Uiso   1.00
C109   C     0.43336   0.37665   0.08819   0.00000  Uiso   1.00
C110   C     0.36569   0.53846   0.27639   0.00000  Uiso   1.00
C111   C     0.30265   0.60672   0.30801   0.00000  Uiso   1.00
C112   C     0.32751   0.65379   0.30750   0.00000  Uiso   1.00
C113   C     0.39415   0.43622   0.30273   0.00000  Uiso   1.00
C114   C     0.35505   0.41852   0.35650   0.00000  Uiso   1.00
C115   C     0.40387   0.37952   0.37819   0.00000  Uiso   1.00
H116   H     0.57493   0.42481   0.18970   0.00000  Uiso   1.00
H117   H     0.61379   0.35888   0.07033   0.00000  Uiso   1.00
H118   H     0.54117   0.54901   0.22080   0.00000  Uiso   1.00
H119   H     0.59356   0.36084   0.26929   0.00000  Uiso   1.00
H120   H     0.61944   0.29485   0.95168   0.00000  Uiso   1.00
H121   H     0.46632   0.69576   0.26897   0.00000  Uiso   1.00
H122   H     0.57679   0.29897   0.37122   0.00000  Uiso   1.00
H123   H     0.28658   0.49456   0.29512   0.00000  Uiso   1.00
H124   H     0.30961   0.43245   0.18154   0.00000  Uiso   1.00
H125   H     0.23699   0.62258   0.33201   0.00000  Uiso   1.00
H126   H     0.28938   0.43441   0.38050   0.00000  Uiso   1.00
H127   H     0.37256   0.35457   0.04194   0.00000  Uiso   1.00
H128   H     0.21944   0.75548   0.35923   0.00000  Uiso   1.00
H129   H     0.32991   0.35868   0.46148   0.00000  Uiso   1.00
O130   O     0.51635   0.28262   0.92019   0.00000  Uiso   1.00
O131   O     0.31546   0.80859   0.33647   0.00000  Uiso   1.00
O132   O     0.46040   0.28800   0.47062   0.00000  Uiso   1.00
N133   N     0.55818   0.31742   0.98851   0.00000  Uiso   1.00
N134   N     0.41502   0.69224   0.28515   0.00000  Uiso   1.00
N135   N     0.51830   0.32129   0.38076   0.00000  Uiso   1.00
N136   N     0.42533   0.34955   0.03708   0.00000  Uiso   1.00
N137   N     0.28218   0.72437   0.33372   0.00000  Uiso   1.00
N138   N     0.38545   0.35342   0.42933   0.00000  Uiso   1.00
C139   C     0.42117   0.96387   0.70252   0.00000  Uiso   1.00
C140   C     0.44434   0.93663   0.75079   0.00000  Uiso   1.00
C141   C     0.50265   0.86990   0.73464   0.00000  Uiso   1.00
C142   C     0.51488   0.85518   0.78591   0.00000  Uiso   1.00
C143   C     0.55766   0.80524   0.85096   0.00000  Uiso   1.00
C144   C     0.43671   0.02239   0.70008   0.00000  Uiso   1.00
C145   C     0.48859   0.02777   0.64129   0.00000  Uiso   1.00
C146   C     0.49439   0.08525   0.64987   0.00000  Uiso   1.00
C147   C     0.52527   0.16849   0.63618   0.00000  Uiso   1.00
C148   C     0.32631   0.99600   0.73876   0.00000  Uiso   1.00
C149   C     0.28536   0.97921   0.71249   0.00000  Uiso   1.00
C150   C     0.19821   0.01449   0.75364   0.00000  Uiso   1.00
C151   C     0.05768   0.05675   0.80001   0.00000  Uiso   1.00
C152   C     0.33920   0.05639   0.82229   0.00000  Uiso   1.00
C153   C     0.39982   0.98688   0.81584   0.00000  Uiso   1.00
C154   C     0.41196   0.97226   0.86716   0.00000  Uiso   1.00
C155   C     0.47028   0.90552   0.85109   0.00000  Uiso   1.00
C156   C     0.39219   0.07264   0.76513   0.00000  Uiso   1.00
C157   C     0.39791   0.13013   0.77380   0.00000  Uiso   1.00
C158   C     0.44979   0.13560   0.71504   0.00000  Uiso   1.00
C159   C     0.28178   0.04625   0.80382   0.00000  Uiso   1.00
C160   C     0.19468   0.08157   0.84501   0.00000  Uiso   1.00
C161   C     0.15361   0.06483   0.81881   0.00000  Uiso   1.00
H162   H     0.45584   0.92475   0.65187   0.00000  Uiso   1.00
H163   H     0.53710   0.83102   0.68429   0.00000  Uiso   1.00
H164   H     0.52303   0.98887   0.59095   0.00000  Uiso   1.00
H165   H     0.31984   0.94032   0.66215   0.00000  Uiso   1.00
H166   H     0.60758   0.74928   0.74891   0.00000  Uiso   1.00
H167   H     0.57791   0.08213   0.55210   0.00000  Uiso   1.00
H168   H     0.14942   0.97974   0.70223   0.00000  Uiso   1.00
H169   H     0.30454   0.09552   0.87294   0.00000  Uiso   1.00
H170   H     0.37750   0.01116   0.91750   0.00000  Uiso   1.00
H171   H     0.36344   0.16901   0.82415   0.00000  Uiso   1.00
H172   H     0.16024   0.12046   0.89535   0.00000  Uiso   1.00
H173   H     0.47805   0.89549   0.93819   0.00000  Uiso   1.00
H174   H     0.44837   0.22834   0.74138   0.00000  Uiso   1.00
H175   H     0.01989   0.12595   0.89151   0.00000  Uiso   1.00
O176   O     0.59356   0.76382   0.86887   0.00000  Uiso   1.00
O177   O     0.55461   0.20051   0.61065   0.00000  Uiso   1.00
O178   O     0.99246   0.06617   0.80762   0.00000  Uiso   1.00
N179   N     0.56707   0.79526   0.78735   0.00000  Uiso   1.00
N180   N     0.53934   0.10645   0.60334   0.00000  Uiso   1.00
N181   N     0.13874   0.01074   0.74370   0.00000  Uiso   1.00
N182   N     0.49737   0.87394   0.88920   0.00000  Uiso   1.00
N183   N     0.46964   0.18513   0.70519   0.00000  Uiso   1.00
N184   N     0.06904   0.08941   0.84555   0.00000  Uiso   1.00
C185   C     0.80925   0.91332   0.76103   0.00000  Uiso   1.00
C186   C     0.86915   0.90882   0.69065   0.00000  Uiso   1.00
C187   C     0.90953   0.85679   0.62858   0.00000  Uiso   1.00
C188   C     0.96182   0.86206   0.56986   0.00000  Uiso   1.00
C189   C     0.05306   0.84668   0.46007   0.00000  Uiso   1.00
C190   C     0.72746   0.98122   0.79265   0.00000  Uiso   1.00
C191   C     0.64871   0.99006   0.81634   0.00000  Uiso   1.00
C192   C     0.58172   0.05627   0.84350   0.00000  Uiso   1.00
C193   C     0.45298   0.15330   0.89211   0.00000  Uiso   1.00
C194   C     0.84556   0.91972   0.80399   0.00000  Uiso   1.00
C195   C     0.86609   0.87687   0.83723   0.00000  Uiso   1.00
C196   C     0.89852   0.89132   0.87396   0.00000  Uiso   1.00
C197   C     0.95314   0.89286   0.94017   0.00000  Uiso   1.00
C198   C     0.83031   0.01519   0.76715   0.00000  Uiso   1.00
C199   C     0.88059   0.96416   0.69398   0.00000  Uiso   1.00
C200   C     0.93283   0.96950   0.63534   0.00000  Uiso   1.00
C201   C     0.97328   0.91749   0.57319   0.00000  Uiso   1.00
C202   C     0.73890   0.03655   0.79597   0.00000  Uiso   1.00
C203   C     0.67201   0.10277   0.82311   0.00000  Uiso   1.00
C204   C     0.59318   0.11171   0.84683   0.00000  Uiso   1.00
C205   C     0.85700   0.97505   0.80731   0.00000  Uiso   1.00
C206   C     0.88939   0.98958   0.84400   0.00000  Uiso   1.00
C207   C     0.90997   0.94675   0.87729   0.00000  Uiso   1.00
H208   H     0.80034   0.87024   0.75845   0.00000  Uiso   1.00
H209   H     0.90066   0.81398   0.62602   0.00000  Uiso   1.00
H210   H     0.63988   0.94723   0.81377   0.00000  Uiso   1.00
H211   H     0.85723   0.83406   0.83465   0.00000  Uiso   1.00
H212   H     0.01690   0.77603   0.48067   0.00000  Uiso   1.00
H213   H     0.46702   0.05699   0.87656   0.00000  Uiso   1.00
H214   H     0.92535   0.81834   0.92060   0.00000  Uiso   1.00
H215   H     0.83921   0.05827   0.76974   0.00000  Uiso   1.00
H216   H     0.94167   0.01233   0.63793   0.00000  Uiso   1.00
H217   H     0.68089   0.14557   0.82568   0.00000  Uiso   1.00
H218   H     0.89824   0.03240   0.84656   0.00000  Uiso   1.00
H219   H     0.05018   0.93701   0.49034   0.00000  Uiso   1.00
H220   H     0.50030   0.21797   0.88623   0.00000  Uiso   1.00
H221   H     0.95864   0.97932   0.93027   0.00000  Uiso   1.00
O222   O     0.10021   0.82292   0.39859   0.00000  Uiso   1.00
O223   O     0.37880   0.19152   0.91800   0.00000  Uiso   1.00
O224   O     0.98012   0.87842   0.97577   0.00000  Uiso   1.00
N225   N     0.01068   0.82021   0.50104   0.00000  Uiso   1.00
N226   N     0.49659   0.08289   0.87116   0.00000  Uiso   1.00
N227   N     0.92506   0.85979   0.91235   0.00000  Uiso   1.00
N228   N     0.02859   0.90684   0.50624   0.00000  Uiso   1.00
N229   N     0.51450   0.16952   0.87636   0.00000  Uiso   1.00
N230   N     0.94297   0.94641   0.91755   0.00000  Uiso   1.00
C231   C     0.90596   0.93757   0.37569   0.00000  Uiso   1.00
C232   C     0.84397   0.91385   0.39036   0.00000  Uiso   1.00
C233   C     0.84964   0.85805   0.40801   0.00000  Uiso   1.00
C234   C     0.78661   0.84481   0.41937   0.00000  Uiso   1.00
C235   C     0.70042   0.80175   0.44311   0.00000  Uiso   1.00
C236   C     0.85432   0.01141   0.42497   0.00000  Uiso   1.00
C237   C     0.86872   0.03765   0.47171   0.00000  Uiso   1.00
C238   C     0.81440   0.10654   0.51220   0.00000  Uiso   1.00
C239   C     0.74432   0.21495   0.58963   0.00000  Uiso   1.00
C240   C     0.93595   0.93933   0.30408   0.00000  Uiso   1.00
C241   C     0.01898   0.90497   0.24917   0.00000  Uiso   1.00
C242   C     0.03339   0.91319   0.18788   0.00000  Uiso   1.00
C243   C     0.09005   0.90968   0.07761   0.00000  Uiso   1.00
C244   C     0.78392   0.01328   0.36448   0.00000  Uiso   1.00
C245   C     0.77768   0.95498   0.38427   0.00000  Uiso   1.00
C246   C     0.71462   0.94182   0.39561   0.00000  Uiso   1.00
C247   C     0.72021   0.88601   0.41327   0.00000  Uiso   1.00
C248   C     0.78804   0.05254   0.41888   0.00000  Uiso   1.00
C249   C     0.73370   0.12141   0.45931   0.00000  Uiso   1.00
C250   C     0.74800   0.14774   0.50610   0.00000  Uiso   1.00
C251   C     0.86966   0.98045   0.29799   0.00000  Uiso   1.00
C252   C     0.88395   0.98873   0.23677   0.00000  Uiso   1.00
C253   C     0.96698   0.95438   0.18178   0.00000  Uiso   1.00
H254   H     0.95756   0.90556   0.38044   0.00000  Uiso   1.00
H255   H     0.90095   0.82625   0.41272   0.00000  Uiso   1.00
H256   H     0.92002   0.00581   0.47641   0.00000  Uiso   1.00
H257   H     0.07025   0.87315   0.25390   0.00000  Uiso   1.00
H258   H     0.80893   0.75646   0.44586   0.00000  Uiso   1.00
H259   H     0.84917   0.13509   0.58012   0.00000  Uiso   1.00
H260   H     0.16597   0.85535   0.11093   0.00000  Uiso   1.00
H261   H     0.73231   0.04530   0.35974   0.00000  Uiso   1.00
H262   H     0.66334   0.97365   0.39089   0.00000  Uiso   1.00
H263   H     0.68241   0.15322   0.45458   0.00000  Uiso   1.00
H264   H     0.83264   0.02056   0.23208   0.00000  Uiso   1.00
H265   H     0.61608   0.87610   0.42815   0.00000  Uiso   1.00
H266   H     0.65631   0.25473   0.56241   0.00000  Uiso   1.00
H267   H     0.97311   0.97499   0.09322   0.00000  Uiso   1.00
O268   O     0.67118   0.76664   0.45789   0.00000  Uiso   1.00
O269   O     0.72398   0.26339   0.63403   0.00000  Uiso   1.00
O270   O     0.13961   0.89638   0.01846   0.00000  Uiso   1.00
N271   N     0.77302   0.79444   0.43740   0.00000  Uiso   1.00
N272   N     0.81063   0.14844   0.56294   0.00000  Uiso   1.00
N273   N     0.10681   0.88692   0.12429   0.00000  Uiso   1.00
N274   N     0.66925   0.85882   0.42787   0.00000  Uiso   1.00
N275   N     0.70685   0.21282   0.55341   0.00000  Uiso   1.00
N276   N     0.00304   0.95130   0.11476   0.00000  Uiso   1.00
C277   C     0.21994   0.66022   0.06021   0.00000  Uiso   1.00
C278   C     0.15832   0.66667   0.03909   0.00000  Uiso   1.00
C279   C     0.11992   0.71851   0.02067   0.00000  Uiso   1.00
C280   C     0.06554   0.71524   0.00301   0.00000  Uiso   1.00
C281   C     0.97223   0.73334   0.97007   0.00000  Uiso   1.00
C282   C     0.29938   0.59066   0.01157   0.00000  Uiso   1.00
C283   C     0.37959   0.57860   0.97002   0.00000  Uiso   1.00
C284   C     0.44396   0.51134   0.92920   0.00000  Uiso   1.00
C285   C     0.56967   0.41144   0.85359   0.00000  Uiso   1.00
C286   C     0.18274   0.65614   0.13090   0.00000  Uiso   1.00
C287   C     0.16488   0.69913   0.18968   0.00000  Uiso   1.00
C288   C     0.13106   0.68699   0.24932   0.00000  Uiso   1.00
C289   C     0.07565   0.68876   0.35897   0.00000  Uiso   1.00
C290   C     0.19165   0.56221   0.06160   0.00000  Uiso   1.00
C291   C     0.14296   0.61343   0.03984   0.00000  Uiso   1.00
C292   C     0.08862   0.61008   0.02221   0.00000  Uiso   1.00
C293   C     0.05015   0.66191   0.00377   0.00000  Uiso   1.00
C294   C     0.28402   0.53743   0.01233   0.00000  Uiso   1.00
C295   C     0.34829   0.47017   0.97156   0.00000  Uiso   1.00
C296   C     0.42857   0.45801   0.92996   0.00000  Uiso   1.00
C297   C     0.16737   0.60291   0.13165   0.00000  Uiso   1.00
C298   C     0.13358   0.59070   0.19121   0.00000  Uiso   1.00
C299   C     0.11567   0.63366   0.25007   0.00000  Uiso   1.00
H300   H     0.23191   0.70166   0.05961   0.00000  Uiso   1.00
H301   H     0.13183   0.75970   0.02009   0.00000  Uiso   1.00
H302   H     0.39146   0.61981   0.96946   0.00000  Uiso   1.00
H303   H     0.17678   0.74032   0.18907   0.00000  Uiso   1.00
H304   H     0.01413   0.80056   0.97657   0.00000  Uiso   1.00
H305   H     0.56158   0.50559   0.86983   0.00000  Uiso   1.00
H306   H     0.10888   0.75972   0.33293   0.00000  Uiso   1.00
H307   H     0.17969   0.52076   0.06218   0.00000  Uiso   1.00
H308   H     0.07675   0.56887   0.02280   0.00000  Uiso   1.00
H309   H     0.33638   0.42899   0.97216   0.00000  Uiso   1.00
H310   H     0.12170   0.54950   0.19178   0.00000  Uiso   1.00
H311   H     0.96942   0.64568   0.97877   0.00000  Uiso   1.00
H312   H     0.51688   0.35071   0.87203   0.00000  Uiso   1.00
H313   H     0.06418   0.60484   0.33513   0.00000  Uiso   1.00
O314   O     0.92502   0.75802   0.95169   0.00000  Uiso   1.00
O315   O     0.64325   0.37104   0.81166   0.00000  Uiso   1.00
O316   O     0.04932   0.70445   0.41924   0.00000  Uiso   1.00
N317   N     0.01772   0.75751   0.98251   0.00000  Uiso   1.00
N318   N     0.52955   0.48174   0.88270   0.00000  Uiso   1.00
N319   N     0.10634   0.71931   0.31566   0.00000  Uiso   1.00
N320   N     0.99366   0.67417   0.98369   0.00000  Uiso   1.00
N321   N     0.50550   0.39840   0.88389   0.00000  Uiso   1.00
N322   N     0.08228   0.63597   0.31684   0.00000  Uiso   1.00
C323   C     0.19372   0.59869   0.71288   0.00000  Uiso   1.00
C324   C     0.25142   0.62112   0.66939   0.00000  Uiso   1.00
C325   C     0.24570   0.68242   0.69091   0.00000  Uiso   1.00
C326   C     0.30446   0.69334   0.64341   0.00000  Uiso   1.00
C327   C     0.38462   0.73556   0.58603   0.00000  Uiso   1.00
C328   C     0.25091   0.53094   0.71180   0.00000  Uiso   1.00
C329   C     0.24474   0.51643   0.76898   0.00000  Uiso   1.00
C330   C     0.30306   0.45144   0.75718   0.00000  Uiso   1.00
C331   C     0.38237   0.35364   0.76564   0.00000  Uiso   1.00
C332   C     0.15731   0.58258   0.67342   0.00000  Uiso   1.00
C333   C     0.07246   0.61147   0.69833   0.00000  Uiso   1.00
C334   C     0.05197   0.58994   0.65422   0.00000  Uiso   1.00
C335   C     0.98598   0.57232   0.60309   0.00000  Uiso   1.00
C336   C     0.30823   0.50906   0.59026   0.00000  Uiso   1.00
C337   C     0.31362   0.57243   0.60279   0.00000  Uiso   1.00
C338   C     0.37239   0.58326   0.55524   0.00000  Uiso   1.00
C339   C     0.36676   0.64458   0.57669   0.00000  Uiso   1.00
C340   C     0.31310   0.48226   0.64520   0.00000  Uiso   1.00
C341   C     0.37143   0.41727   0.63331   0.00000  Uiso   1.00
C342   C     0.36536   0.40267   0.69046   0.00000  Uiso   1.00
C343   C     0.21951   0.53390   0.60681   0.00000  Uiso   1.00
C344   C     0.19915   0.51231   0.56266   0.00000  Uiso   1.00
C345   C     0.11428   0.54117   0.58750   0.00000  Uiso   1.00
H346   H     0.14530   0.63658   0.76473   0.00000  Uiso   1.00
H347   H     0.19757   0.72008   0.74246   0.00000  Uiso   1.00
H348   H     0.19660   0.55411   0.82052   0.00000  Uiso   1.00
H349   H     0.02435   0.64914   0.74987   0.00000  Uiso   1.00
H350   H     0.28296   0.79118   0.68840   0.00000  Uiso   1.00
H351   H     0.28091   0.44121   0.85299   0.00000  Uiso   1.00
H352   H     0.91767   0.64160   0.70403   0.00000  Uiso   1.00
H353   H     0.35665   0.47116   0.53840   0.00000  Uiso   1.00
H354   H     0.42052   0.54558   0.50370   0.00000  Uiso   1.00
H355   H     0.41955   0.37961   0.58176   0.00000  Uiso   1.00
H356   H     0.24730   0.47464   0.51112   0.00000  Uiso   1.00
H357   H     0.46392   0.64954   0.49462   0.00000  Uiso   1.00
H358   H     0.46186   0.29958   0.65921   0.00000  Uiso   1.00
H359   H     0.09863   0.49997   0.51025   0.00000  Uiso   1.00
O360   O     0.41166   0.77229   0.57278   0.00000  Uiso   1.00
O361   O     0.40895   0.31315   0.78871   0.00000  Uiso   1.00
O362   O     0.93239   0.57606   0.59328   0.00000  Uiso   1.00
N363   N     0.31678   0.74763   0.64755   0.00000  Uiso   1.00
N364   N     0.31486   0.42044   0.80143   0.00000  Uiso   1.00
N365   N     0.97527   0.60777   0.66217   0.00000  Uiso   1.00
N366   N     0.41415   0.67142   0.54328   0.00000  Uiso   1.00
N367   N     0.41223   0.34423   0.69716   0.00000  Uiso   1.00
N368   N     0.07264   0.53156   0.55790   0.00000  Uiso   1.00
C369   C     0.50419   0.65826   0.70363   0.00000  Uiso   1.00
C370   C     0.47255   0.68431   0.77946   0.00000  Uiso   1.00
C371   C     0.39340   0.73878   0.83124   0.00000  Uiso   1.00
C372   C     0.37661   0.75460   0.89733   0.00000  Uiso   1.00
C373   C     0.31830   0.80070   0.01300   0.00000  Uiso   1.00
C374   C     0.53191   0.58325   0.68339   0.00000  Uiso   1.00
C375   C     0.50267   0.55275   0.65439   0.00000  Uiso   1.00
C376   C     0.53586   0.48348   0.63960   0.00000  Uiso   1.00
C377   C     0.56975   0.37268   0.60607   0.00000  Uiso   1.00
C378   C     0.58413   0.66009   0.66537   0.00000  Uiso   1.00
C379   C     0.59881   0.69418   0.62120   0.00000  Uiso   1.00
C380   C     0.67597   0.68960   0.59122   0.00000  Uiso   1.00
C381   C     0.79094   0.69811   0.52971   0.00000  Uiso   1.00
C382   C     0.61511   0.58948   0.72893   0.00000  Uiso   1.00
C383   C     0.53280   0.64695   0.79320   0.00000  Uiso   1.00
C384   C     0.51613   0.66269   0.85923   0.00000  Uiso   1.00
C385   C     0.43697   0.71717   0.91110   0.00000  Uiso   1.00
C386   C     0.59215   0.54589   0.69713   0.00000  Uiso   1.00
C387   C     0.62540   0.47665   0.68238   0.00000  Uiso   1.00
C388   C     0.59622   0.44606   0.65336   0.00000  Uiso   1.00
C389   C     0.64438   0.62273   0.67911   0.00000  Uiso   1.00
C390   C     0.72153   0.61809   0.64919   0.00000  Uiso   1.00
C391   C     0.73633   0.65218   0.60498   0.00000  Uiso   1.00
H392   H     0.45729   0.68734   0.69293   0.00000  Uiso   1.00
H393   H     0.34679   0.76768   0.82059   0.00000  Uiso   1.00
H394   H     0.45605   0.58167   0.64376   0.00000  Uiso   1.00
H395   H     0.55217   0.72309   0.61058   0.00000  Uiso   1.00
H396   H     0.25085   0.84025   0.96819   0.00000  Uiso   1.00
H397   H     0.48125   0.44804   0.59530   0.00000  Uiso   1.00
H398   H     0.68394   0.74625   0.52533   0.00000  Uiso   1.00
H399   H     0.66202   0.56039   0.73962   0.00000  Uiso   1.00
H400   H     0.56276   0.63377   0.86985   0.00000  Uiso   1.00
H401   H     0.67202   0.44776   0.69301   0.00000  Uiso   1.00
H402   H     0.76814   0.58918   0.65983   0.00000  Uiso   1.00
H403   H     0.42614   0.73156   0.00816   0.00000  Uiso   1.00
H404   H     0.65654   0.33935   0.63528   0.00000  Uiso   1.00
H405   H     0.85923   0.63756   0.56531   0.00000  Uiso   1.00
O406   O     0.26950   0.83645   0.07300   0.00000  Uiso   1.00
O407   O     0.57178   0.32189   0.58378   0.00000  Uiso   1.00
O408   O     0.83770   0.71313   0.49199   0.00000  Uiso   1.00
N409   N     0.30573   0.80461   0.95972   0.00000  Uiso   1.00
N410   N     0.52113   0.43792   0.61111   0.00000  Uiso   1.00
N411   N     0.71064   0.71670   0.54568   0.00000  Uiso   1.00
N412   N     0.40005   0.74613   0.98123   0.00000  Uiso   1.00
N413   N     0.61545   0.37944   0.63262   0.00000  Uiso   1.00
N414   N     0.80496   0.65822   0.56719   0.00000  Uiso   1.00
C415   C     0.47298   0.15708   0.34477   0.00000  Uiso   1.00
C416   C     0.41487   0.17334   0.31838   0.00000  Uiso   1.00
C417   C     0.34836   0.23738   0.33761   0.00000  Uiso   1.00
C418   C     0.30274   0.24162   0.30765   0.00000  Uiso   1.00
C419   C     0.20940   0.27565   0.27393   0.00000  Uiso   1.00
C420   C     0.46763   0.10347   0.37457   0.00000  Uiso   1.00
C421   C     0.44549   0.10877   0.44103   0.00000  Uiso   1.00
C422   C     0.44429   0.05419   0.45835   0.00000  Uiso   1.00
C423   C     0.43292   0.97972   0.51184   0.00000  Uiso   1.00
C424   C     0.56196   0.12154   0.28145   0.00000  Uiso   1.00
C425   C     0.61915   0.14203   0.26964   0.00000  Uiso   1.00
C426   C     0.69739   0.10266   0.20857   0.00000  Uiso   1.00
C427   C     0.83249   0.05625   0.11749   0.00000  Uiso   1.00
C428   C     0.51023   0.05072   0.25735   0.00000  Uiso   1.00
C429   C     0.43511   0.11556   0.27090   0.00000  Uiso   1.00
C430   C     0.38958   0.11971   0.24089   0.00000  Uiso   1.00
C431   C     0.32301   0.18375   0.26008   0.00000  Uiso   1.00
C432   C     0.48786   0.04570   0.32708   0.00000  Uiso   1.00
C433   C     0.48670   0.99110   0.34431   0.00000  Uiso   1.00
C434   C     0.46456   0.99631   0.41078   0.00000  Uiso   1.00
C435   C     0.58220   0.06377   0.23397   0.00000  Uiso   1.00
C436   C     0.66036   0.02436   0.17291   0.00000  Uiso   1.00
C437   C     0.71766   0.04478   0.16100   0.00000  Uiso   1.00
H438   H     0.45723   0.20205   0.38174   0.00000  Uiso   1.00
H439   H     0.33272   0.28208   0.37437   0.00000  Uiso   1.00
H440   H     0.42984   0.15348   0.47776   0.00000  Uiso   1.00
H441   H     0.60347   0.18674   0.30639   0.00000  Uiso   1.00
H442   H     0.20358   0.34532   0.34528   0.00000  Uiso   1.00
H443   H     0.40839   0.07415   0.56328   0.00000  Uiso   1.00
H444   H     0.77454   0.14428   0.20192   0.00000  Uiso   1.00
H445   H     0.52599   0.00574   0.22038   0.00000  Uiso   1.00
H446   H     0.40525   0.07499   0.20415   0.00000  Uiso   1.00
H447   H     0.50237   0.94640   0.30755   0.00000  Uiso   1.00
H448   H     0.67600   0.97965   0.13618   0.00000  Uiso   1.00
H449   H     0.26244   0.17724   0.20712   0.00000  Uiso   1.00
H450   H     0.46726   0.90608   0.42513   0.00000  Uiso   1.00
H451   H     0.83340   0.97620   0.06376   0.00000  Uiso   1.00
O452   O     0.15233   0.31038   0.26845   0.00000  Uiso   1.00
O453   O     0.42105   0.95462   0.55447   0.00000  Uiso   1.00
O454   O     0.90142   0.04662   0.08036   0.00000  Uiso   1.00
N455   N     0.23401   0.29626   0.31498   0.00000  Uiso   1.00
N456   N     0.42549   0.04274   0.51881   0.00000  Uiso   1.00
N457   N     0.76781   0.10830   0.18097   0.00000  Uiso   1.00
N458   N     0.26569   0.20582   0.24064   0.00000  Uiso   1.00
N459   N     0.45717   0.95230   0.44447   0.00000  Uiso   1.00
N460   N     0.79949   0.01785   0.10663   0.00000  Uiso   1.00
C461   C     0.10427   0.16029   0.20637   0.00000  Uiso   1.00
C462   C     0.03280   0.19315   0.28173   0.00000  Uiso   1.00
C463   C     0.00970   0.25123   0.32980   0.00000  Uiso   1.00
C464   C     0.94261   0.27318   0.39611   0.00000  Uiso   1.00
C465   C     0.83810   0.32950   0.51046   0.00000  Uiso   1.00
C466   C     0.16167   0.08688   0.19411   0.00000  Uiso   1.00
C467   C     0.24692   0.05561   0.16850   0.00000  Uiso   1.00
C468   C     0.28831   0.98809   0.16104   0.00000  Uiso   1.00
C469   C     0.38389   0.87940   0.13931   0.00000  Uiso   1.00
C470   C     0.06485   0.15678   0.16540   0.00000  Uiso   1.00
C471   C     0.06871   0.18426   0.11564   0.00000  Uiso   1.00
C472   C     0.02860   0.17558   0.08400   0.00000  Uiso   1.00
C473   C     0.97385   0.17542   0.01769   0.00000  Uiso   1.00
C474   C     0.02619   0.09599   0.23864   0.00000  Uiso   1.00
C475   C     0.99039   0.15822   0.29925   0.00000  Uiso   1.00
C476   C     0.92331   0.18009   0.36550   0.00000  Uiso   1.00
C477   C     0.90011   0.23819   0.41367   0.00000  Uiso   1.00
C478   C     0.11926   0.05195   0.21163   0.00000  Uiso   1.00
C479   C     0.16053   0.98446   0.20420   0.00000  Uiso   1.00
C480   C     0.24582   0.95310   0.17860   0.00000  Uiso   1.00
C481   C     0.02243   0.12185   0.18292   0.00000  Uiso   1.00
C482   C     0.98231   0.11312   0.15134   0.00000  Uiso   1.00
C483   C     0.98611   0.14059   0.10155   0.00000  Uiso   1.00
H484   H     0.13730   0.18748   0.19273   0.00000  Uiso   1.00
H485   H     0.04255   0.27824   0.31622   0.00000  Uiso   1.00
H486   H     0.27973   0.08264   0.15494   0.00000  Uiso   1.00
H487   H     0.10154   0.21128   0.10209   0.00000  Uiso   1.00
H488   H     0.91881   0.36345   0.46087   0.00000  Uiso   1.00
H489   H     0.41893   0.95102   0.12078   0.00000  Uiso   1.00
H490   H     0.04318   0.22228   0.00934   0.00000  Uiso   1.00
H491   H     0.99317   0.06880   0.25228   0.00000  Uiso   1.00
H492   H     0.89050   0.15305   0.37905   0.00000  Uiso   1.00
H493   H     0.12769   0.95745   0.21776   0.00000  Uiso   1.00
H494   H     0.94950   0.08609   0.16492   0.00000  Uiso   1.00
H495   H     0.79541   0.26184   0.51186   0.00000  Uiso   1.00
H496   H     0.29553   0.84940   0.17177   0.00000  Uiso   1.00
H497   H     0.91978   0.12066   0.06033   0.00000  Uiso   1.00
O498   O     0.79219   0.37020   0.56869   0.00000  Uiso   1.00
O499   O     0.44833   0.82910   0.12249   0.00000  Uiso   1.00
O500   O     0.95536   0.18499   0.97628   0.00000  Uiso   1.00
N501   N     0.90384   0.32799   0.45547   0.00000  Uiso   1.00
N502   N     0.37142   0.94238   0.13752   0.00000  Uiso   1.00
N503   N     0.02015   0.19597   0.03331   0.00000  Uiso   1.00
N504   N     0.83744   0.27331   0.48291   0.00000  Uiso   1.00
N505   N     0.30502   0.88771   0.16496   0.00000  Uiso   1.00
N506   N     0.95375   0.14130   0.06075   0.00000  Uiso   1.00
C507   C     0.98628   0.20028   0.55220   0.00000  Uiso   1.00
C508   C     0.04991   0.22115   0.54238   0.00000  Uiso   1.00
C509   C     0.04940   0.27650   0.52600   0.00000  Uiso   1.00
C510   C     0.11310   0.28698   0.51925   0.00000  Uiso   1.00
C511   C     0.20250   0.32596   0.50256   0.00000  Uiso   1.00
C512   C     0.03714   0.12685   0.50216   0.00000  Uiso   1.00
C513   C     0.02589   0.10292   0.45198   0.00000  Uiso   1.00
C514   C     0.07884   0.03400   0.41138   0.00000  Uiso   1.00
C515   C     0.14839   0.92657   0.33228   0.00000  Uiso   1.00
C516   C     0.94993   0.19813   0.62378   0.00000  Uiso   1.00
C517   C     0.86535   0.23412   0.67585   0.00000  Uiso   1.00
C518   C     0.84488   0.22521   0.73763   0.00000  Uiso   1.00
C519   C     0.77902   0.22845   0.84736   0.00000  Uiso   1.00
C520   C     0.10030   0.12044   0.56933   0.00000  Uiso   1.00
C521   C     0.11184   0.17778   0.55168   0.00000  Uiso   1.00
C522   C     0.17556   0.18817   0.54496   0.00000  Uiso   1.00
C523   C     0.17514   0.24354   0.52857   0.00000  Uiso   1.00
C524   C     0.09908   0.08348   0.51147   0.00000  Uiso   1.00
C525   C     0.15205   0.01459   0.47093   0.00000  Uiso   1.00
C526   C     0.14089   0.99056   0.42070   0.00000  Uiso   1.00
C527   C     0.01187   0.15477   0.63308   0.00000  Uiso   1.00
C528   C     0.99152   0.14579   0.69480   0.00000  Uiso   1.00
C529   C     0.90693   0.18176   0.74695   0.00000  Uiso   1.00
H530   H     0.93806   0.23404   0.54495   0.00000  Uiso   1.00
H531   H     0.00146   0.31005   0.51880   0.00000  Uiso   1.00
H532   H     0.97795   0.13649   0.44480   0.00000  Uiso   1.00
H533   H     0.81745   0.26767   0.66863   0.00000  Uiso   1.00
H534   H     0.09908   0.37518   0.49389   0.00000  Uiso   1.00
H535   H     0.04950   0.00921   0.33786   0.00000  Uiso   1.00
H536   H     0.71103   0.28584   0.80985   0.00000  Uiso   1.00
H537   H     0.14853   0.08668   0.57657   0.00000  Uiso   1.00
H538   H     0.22348   0.15461   0.55216   0.00000  Uiso   1.00
H539   H     0.19997   0.98104   0.47815   0.00000  Uiso   1.00
H540   H     0.03946   0.11223   0.70198   0.00000  Uiso   1.00
H541   H     0.27928   0.24902   0.52096   0.00000  Uiso   1.00
H542   H     0.22969   0.88305   0.36493   0.00000  Uiso   1.00
H543   H     0.89123   0.15968   0.83692   0.00000  Uiso   1.00
O544   O     0.23471   0.35943   0.49077   0.00000  Uiso   1.00
O545   O     0.16964   0.87929   0.28608   0.00000  Uiso   1.00
O546   O     0.72558   0.24223   0.90532   0.00000  Uiso   1.00
N547   N     0.13120   0.33618   0.50362   0.00000  Uiso   1.00
N548   N     0.08485   0.99402   0.35774   0.00000  Uiso   1.00
N549   N     0.76841   0.25263   0.79900   0.00000  Uiso   1.00
N550   N     0.22816   0.26829   0.51819   0.00000  Uiso   1.00
N551   N     0.18181   0.92613   0.37231   0.00000  Uiso   1.00
N552   N     0.86537   0.18474   0.81357   0.00000  Uiso   1.00
