data_job_04749
_audit_creation_date              2018-12-19
_audit_creation_method            'Materials Studio'
_symmetry_space_group_name_H-M    'P1'
_symmetry_Int_Tables_number       1
_symmetry_cell_setting            triclinic
loop_
_symmetry_equiv_pos_as_xyz
  x,y,z
_cell_length_a                    9.1891
_cell_length_b                    15.2563
_cell_length_c                    16.3951
_cell_angle_alpha                 90.0000
_cell_angle_beta                  90.0000
_cell_angle_gamma                 90.0000
loop_
_atom_site_label
_atom_site_type_symbol
_atom_site_fract_x
_atom_site_fract_y
_atom_site_fract_z
_atom_site_U_iso_or_equiv
_atom_site_adp_type
_atom_site_occupancy
C1     C     0.77405   0.48279   0.56505   0.00000  Uiso   1.00
C2     C     0.74204   0.43602   0.64527   0.00000  Uiso   1.00
C3     C     0.61114   0.39671   0.66634   0.00000  Uiso   1.00
C4     C     0.60368   0.35735   0.74257   0.00000  Uiso   1.00
C5     C     0.53582   0.28477   0.85906   0.00000  Uiso   1.00
C6     C     0.82340   0.57498   0.58799   0.00000  Uiso   1.00
C7     C     0.76091   0.65250   0.56088   0.00000  Uiso   1.00
C8     C     0.82196   0.73012   0.58890   0.00000  Uiso   1.00
C9     C     0.88047   0.87328   0.61641   0.00000  Uiso   1.00
C10    C     0.90715   0.43737   0.52901   0.00000  Uiso   1.00
C11    C     0.91509   0.39921   0.45229   0.00000  Uiso   1.00
C12    C     0.04666   0.36098   0.43064   0.00000  Uiso   1.00
C13    C     0.23520   0.29048   0.36656   0.00000  Uiso   1.00
C14    C     0.99359   0.48278   0.66298   0.00000  Uiso   1.00
C15    C     0.86129   0.43602   0.69846   0.00000  Uiso   1.00
C16    C     0.85403   0.39670   0.77469   0.00000  Uiso   1.00
C17    C     0.72313   0.35734   0.79586   0.00000  Uiso   1.00
C18    C     0.94264   0.57498   0.64118   0.00000  Uiso   1.00
C19    C     0.00380   0.65250   0.66923   0.00000  Uiso   1.00
C20    C     0.94141   0.73012   0.64218   0.00000  Uiso   1.00
C21    C     0.02639   0.43736   0.58220   0.00000  Uiso   1.00
C22    C     0.15798   0.39920   0.56065   0.00000  Uiso   1.00
C23    C     0.16612   0.36098   0.48392   0.00000  Uiso   1.00
H24    H     0.68122   0.48280   0.52364   0.00000  Uiso   1.00
H25    H     0.51888   0.39673   0.62516   0.00000  Uiso   1.00
H26    H     0.66864   0.65249   0.51972   0.00000  Uiso   1.00
H27    H     0.82279   0.39922   0.41115   0.00000  Uiso   1.00
H28    H     0.39147   0.30135   0.76118   0.00000  Uiso   1.00
H29    H     0.70728   0.84061   0.53883   0.00000  Uiso   1.00
H30    H     0.03234   0.30656   0.30989   0.00000  Uiso   1.00
H31    H     0.08643   0.48278   0.70440   0.00000  Uiso   1.00
H32    H     0.94632   0.39671   0.81584   0.00000  Uiso   1.00
H33    H     0.09608   0.65247   0.71039   0.00000  Uiso   1.00
H34    H     0.25023   0.39921   0.60183   0.00000  Uiso   1.00
H35    H     0.73839   0.30133   0.91595   0.00000  Uiso   1.00
H36    H     0.05421   0.84060   0.69359   0.00000  Uiso   1.00
H37    H     0.37926   0.30655   0.46465   0.00000  Uiso   1.00
O38    O     0.46544   0.24475   0.90862   0.00000  Uiso   1.00
O39    O     0.87979   0.95224   0.61689   0.00000  Uiso   1.00
O40    O     0.30625   0.25158   0.31653   0.00000  Uiso   1.00
N41    N     0.49235   0.31314   0.78231   0.00000  Uiso   1.00
N42    N     0.78761   0.81732   0.57443   0.00000  Uiso   1.00
N43    N     0.09152   0.31805   0.36038   0.00000  Uiso   1.00
N44    N     0.67903   0.31313   0.86558   0.00000  Uiso   1.00
N45    N     0.97428   0.81732   0.65771   0.00000  Uiso   1.00
N46    N     0.27820   0.31804   0.44366   0.00000  Uiso   1.00
C47    C     0.22595   0.51721   0.06505   0.00000  Uiso   1.00
C48    C     0.25796   0.56398   0.14527   0.00000  Uiso   1.00
C49    C     0.38886   0.60329   0.16634   0.00000  Uiso   1.00
C50    C     0.39632   0.64265   0.24257   0.00000  Uiso   1.00
C51    C     0.46418   0.71523   0.35906   0.00000  Uiso   1.00
C52    C     0.17660   0.42502   0.08799   0.00000  Uiso   1.00
C53    C     0.23909   0.34750   0.06088   0.00000  Uiso   1.00
C54    C     0.17804   0.26988   0.08890   0.00000  Uiso   1.00
C55    C     0.11953   0.12672   0.11641   0.00000  Uiso   1.00
C56    C     0.09285   0.56263   0.02901   0.00000  Uiso   1.00
C57    C     0.08491   0.60079   0.95229   0.00000  Uiso   1.00
C58    C     0.95334   0.63902   0.93064   0.00000  Uiso   1.00
C59    C     0.76480   0.70952   0.86656   0.00000  Uiso   1.00
C60    C     0.00641   0.51722   0.16298   0.00000  Uiso   1.00
C61    C     0.13871   0.56398   0.19846   0.00000  Uiso   1.00
C62    C     0.14597   0.60330   0.27469   0.00000  Uiso   1.00
C63    C     0.27687   0.64266   0.29586   0.00000  Uiso   1.00
C64    C     0.05736   0.42502   0.14118   0.00000  Uiso   1.00
C65    C     0.99620   0.34750   0.16923   0.00000  Uiso   1.00
C66    C     0.05859   0.26988   0.14218   0.00000  Uiso   1.00
C67    C     0.97361   0.56264   0.08220   0.00000  Uiso   1.00
C68    C     0.84202   0.60080   0.06065   0.00000  Uiso   1.00
C69    C     0.83388   0.63902   0.98392   0.00000  Uiso   1.00
H70    H     0.31878   0.51720   0.02364   0.00000  Uiso   1.00
H71    H     0.48112   0.60327   0.12516   0.00000  Uiso   1.00
H72    H     0.33136   0.34751   0.01972   0.00000  Uiso   1.00
H73    H     0.17721   0.60078   0.91115   0.00000  Uiso   1.00
H74    H     0.60853   0.69865   0.26118   0.00000  Uiso   1.00
H75    H     0.29272   0.15939   0.03883   0.00000  Uiso   1.00
H76    H     0.96766   0.69344   0.80989   0.00000  Uiso   1.00
H77    H     0.91357   0.51722   0.20440   0.00000  Uiso   1.00
H78    H     0.05368   0.60329   0.31584   0.00000  Uiso   1.00
H79    H     0.90392   0.34753   0.21039   0.00000  Uiso   1.00
H80    H     0.74977   0.60079   0.10183   0.00000  Uiso   1.00
H81    H     0.26161   0.69867   0.41595   0.00000  Uiso   1.00
H82    H     0.94579   0.15940   0.19359   0.00000  Uiso   1.00
H83    H     0.62074   0.69345   0.96465   0.00000  Uiso   1.00
O84    O     0.53456   0.75525   0.40862   0.00000  Uiso   1.00
O85    O     0.12021   0.04776   0.11689   0.00000  Uiso   1.00
O86    O     0.69375   0.74842   0.81653   0.00000  Uiso   1.00
N87    N     0.50765   0.68686   0.28231   0.00000  Uiso   1.00
N88    N     0.21239   0.18268   0.07443   0.00000  Uiso   1.00
N89    N     0.90848   0.68195   0.86038   0.00000  Uiso   1.00
N90    N     0.32097   0.68687   0.36558   0.00000  Uiso   1.00
N91    N     0.02572   0.18268   0.15771   0.00000  Uiso   1.00
N92    N     0.72180   0.68196   0.94366   0.00000  Uiso   1.00
C93    C     0.27405   0.01721   0.56505   0.00000  Uiso   1.00
C94    C     0.24204   0.06398   0.64527   0.00000  Uiso   1.00
C95    C     0.11114   0.10329   0.66634   0.00000  Uiso   1.00
C96    C     0.10368   0.14265   0.74257   0.00000  Uiso   1.00
C97    C     0.03582   0.21523   0.85906   0.00000  Uiso   1.00
C98    C     0.32340   0.92502   0.58799   0.00000  Uiso   1.00
C99    C     0.26091   0.84750   0.56088   0.00000  Uiso   1.00
C100   C     0.32196   0.76988   0.58890   0.00000  Uiso   1.00
C101   C     0.38047   0.62672   0.61641   0.00000  Uiso   1.00
C102   C     0.40715   0.06263   0.52901   0.00000  Uiso   1.00
C103   C     0.41509   0.10079   0.45229   0.00000  Uiso   1.00
C104   C     0.54666   0.13902   0.43064   0.00000  Uiso   1.00
C105   C     0.73520   0.20952   0.36656   0.00000  Uiso   1.00
C106   C     0.49359   0.01722   0.66298   0.00000  Uiso   1.00
C107   C     0.36129   0.06398   0.69846   0.00000  Uiso   1.00
C108   C     0.35403   0.10330   0.77469   0.00000  Uiso   1.00
C109   C     0.22313   0.14266   0.79586   0.00000  Uiso   1.00
C110   C     0.44264   0.92502   0.64118   0.00000  Uiso   1.00
C111   C     0.50380   0.84750   0.66923   0.00000  Uiso   1.00
C112   C     0.44141   0.76988   0.64218   0.00000  Uiso   1.00
C113   C     0.52639   0.06264   0.58220   0.00000  Uiso   1.00
C114   C     0.65798   0.10080   0.56065   0.00000  Uiso   1.00
C115   C     0.66612   0.13902   0.48392   0.00000  Uiso   1.00
H116   H     0.18122   0.01720   0.52364   0.00000  Uiso   1.00
H117   H     0.01888   0.10327   0.62516   0.00000  Uiso   1.00
H118   H     0.16864   0.84751   0.51972   0.00000  Uiso   1.00
H119   H     0.32279   0.10078   0.41115   0.00000  Uiso   1.00
H120   H     0.89147   0.19865   0.76118   0.00000  Uiso   1.00
H121   H     0.20728   0.65939   0.53883   0.00000  Uiso   1.00
H122   H     0.53234   0.19344   0.30989   0.00000  Uiso   1.00
H123   H     0.58643   0.01722   0.70440   0.00000  Uiso   1.00
H124   H     0.44632   0.10329   0.81584   0.00000  Uiso   1.00
H125   H     0.59608   0.84753   0.71039   0.00000  Uiso   1.00
H126   H     0.75023   0.10079   0.60183   0.00000  Uiso   1.00
H127   H     0.23839   0.19867   0.91595   0.00000  Uiso   1.00
H128   H     0.55421   0.65940   0.69359   0.00000  Uiso   1.00
H129   H     0.87926   0.19345   0.46465   0.00000  Uiso   1.00
O130   O     0.96544   0.25525   0.90862   0.00000  Uiso   1.00
O131   O     0.37979   0.54776   0.61689   0.00000  Uiso   1.00
O132   O     0.80625   0.24842   0.31653   0.00000  Uiso   1.00
N133   N     0.99235   0.18686   0.78231   0.00000  Uiso   1.00
N134   N     0.28761   0.68268   0.57443   0.00000  Uiso   1.00
N135   N     0.59152   0.18195   0.36038   0.00000  Uiso   1.00
N136   N     0.17903   0.18687   0.86558   0.00000  Uiso   1.00
N137   N     0.47428   0.68268   0.65771   0.00000  Uiso   1.00
N138   N     0.77820   0.18196   0.44366   0.00000  Uiso   1.00
C139   C     0.72595   0.98279   0.06505   0.00000  Uiso   1.00
C140   C     0.75796   0.93602   0.14527   0.00000  Uiso   1.00
C141   C     0.88886   0.89671   0.16634   0.00000  Uiso   1.00
C142   C     0.89632   0.85735   0.24257   0.00000  Uiso   1.00
C143   C     0.96418   0.78477   0.35906   0.00000  Uiso   1.00
C144   C     0.67660   0.07498   0.08799   0.00000  Uiso   1.00
C145   C     0.73909   0.15250   0.06088   0.00000  Uiso   1.00
C146   C     0.67804   0.23012   0.08890   0.00000  Uiso   1.00
C147   C     0.61953   0.37328   0.11641   0.00000  Uiso   1.00
C148   C     0.59285   0.93737   0.02901   0.00000  Uiso   1.00
C149   C     0.58491   0.89921   0.95229   0.00000  Uiso   1.00
C150   C     0.45334   0.86098   0.93064   0.00000  Uiso   1.00
C151   C     0.26480   0.79048   0.86656   0.00000  Uiso   1.00
C152   C     0.50641   0.98278   0.16298   0.00000  Uiso   1.00
C153   C     0.63871   0.93602   0.19846   0.00000  Uiso   1.00
C154   C     0.64597   0.89670   0.27469   0.00000  Uiso   1.00
C155   C     0.77687   0.85734   0.29586   0.00000  Uiso   1.00
C156   C     0.55736   0.07498   0.14118   0.00000  Uiso   1.00
C157   C     0.49620   0.15250   0.16923   0.00000  Uiso   1.00
C158   C     0.55859   0.23012   0.14218   0.00000  Uiso   1.00
C159   C     0.47361   0.93736   0.08220   0.00000  Uiso   1.00
C160   C     0.34202   0.89920   0.06065   0.00000  Uiso   1.00
C161   C     0.33388   0.86098   0.98392   0.00000  Uiso   1.00
H162   H     0.81878   0.98280   0.02364   0.00000  Uiso   1.00
H163   H     0.98112   0.89673   0.12516   0.00000  Uiso   1.00
H164   H     0.83136   0.15249   0.01972   0.00000  Uiso   1.00
H165   H     0.67721   0.89922   0.91115   0.00000  Uiso   1.00
H166   H     0.10853   0.80135   0.26118   0.00000  Uiso   1.00
H167   H     0.79272   0.34061   0.03883   0.00000  Uiso   1.00
H168   H     0.46766   0.80656   0.80989   0.00000  Uiso   1.00
H169   H     0.41357   0.98278   0.20440   0.00000  Uiso   1.00
H170   H     0.55368   0.89671   0.31584   0.00000  Uiso   1.00
H171   H     0.40392   0.15247   0.21039   0.00000  Uiso   1.00
H172   H     0.24977   0.89921   0.10183   0.00000  Uiso   1.00
H173   H     0.76161   0.80133   0.41595   0.00000  Uiso   1.00
H174   H     0.44579   0.34060   0.19359   0.00000  Uiso   1.00
H175   H     0.12074   0.80655   0.96465   0.00000  Uiso   1.00
O176   O     0.03456   0.74475   0.40862   0.00000  Uiso   1.00
O177   O     0.62021   0.45224   0.11689   0.00000  Uiso   1.00
O178   O     0.19375   0.75158   0.81653   0.00000  Uiso   1.00
N179   N     0.00765   0.81314   0.28231   0.00000  Uiso   1.00
N180   N     0.71239   0.31732   0.07443   0.00000  Uiso   1.00
N181   N     0.40848   0.81805   0.86038   0.00000  Uiso   1.00
N182   N     0.82097   0.81313   0.36558   0.00000  Uiso   1.00
N183   N     0.52572   0.31732   0.15771   0.00000  Uiso   1.00
N184   N     0.22180   0.81804   0.94366   0.00000  Uiso   1.00
