data_job_05559
_audit_creation_date              2018-12-19
_audit_creation_method            'Materials Studio'
_symmetry_space_group_name_H-M    'P1'
_symmetry_Int_Tables_number       1
_symmetry_cell_setting            triclinic
loop_
_symmetry_equiv_pos_as_xyz
  x,y,z
_cell_length_a                    10.4999
_cell_length_b                    11.2838
_cell_length_c                    20.5505
_cell_angle_alpha                 96.2211
_cell_angle_beta                  82.7922
_cell_angle_gamma                 89.5010
loop_
_atom_site_label
_atom_site_type_symbol
_atom_site_fract_x
_atom_site_fract_y
_atom_site_fract_z
_atom_site_U_iso_or_equiv
_atom_site_adp_type
_atom_site_occupancy
C1     C     0.61546   0.95935   0.16725   0.00000  Uiso   1.00
C2     C     0.59078   0.06857   0.13257   0.00000  Uiso   1.00
C3     C     0.48198   0.09040   0.10334   0.00000  Uiso   1.00
C4     C     0.47772   0.19547   0.07414   0.00000  Uiso   1.00
C5     C     0.42407   0.35282   0.02024   0.00000  Uiso   1.00
C6     C     0.74235   0.90386   0.13257   0.00000  Uiso   1.00
C7     C     0.76099   0.78721   0.10336   0.00000  Uiso   1.00
C8     C     0.88432   0.75362   0.07418   0.00000  Uiso   1.00
C9     C     0.06600   0.65525   0.02033   0.00000  Uiso   1.00
C10    C     0.64066   0.00686   0.23669   0.00000  Uiso   1.00
C11    C     0.57382   0.97679   0.29503   0.00000  Uiso   1.00
C12    C     0.61156   0.02990   0.35350   0.00000  Uiso   1.00
C13    C     0.63535   0.09144   0.46132   0.00000  Uiso   1.00
C14    C     0.80137   0.10711   0.16737   0.00000  Uiso   1.00
C15    C     0.69177   0.14883   0.13263   0.00000  Uiso   1.00
C16    C     0.68767   0.25389   0.10347   0.00000  Uiso   1.00
C17    C     0.57888   0.27588   0.07420   0.00000  Uiso   1.00
C18    C     0.84333   0.98412   0.13264   0.00000  Uiso   1.00
C19    C     0.96667   0.95070   0.10349   0.00000  Uiso   1.00
C20    C     0.98549   0.83403   0.07424   0.00000  Uiso   1.00
C21    C     0.74164   0.08713   0.23676   0.00000  Uiso   1.00
C22    C     0.77950   0.14028   0.29516   0.00000  Uiso   1.00
C23    C     0.71272   0.11030   0.35357   0.00000  Uiso   1.00
H24    H     0.53685   0.89685   0.16720   0.00000  Uiso   1.00
H25    H     0.40386   0.02826   0.10329   0.00000  Uiso   1.00
H26    H     0.68283   0.72512   0.10333   0.00000  Uiso   1.00
H27    H     0.49568   0.91467   0.29496   0.00000  Uiso   1.00
H28    H     0.30097   0.20932   0.03245   0.00000  Uiso   1.00
H29    H     0.88919   0.57011   0.03253   0.00000  Uiso   1.00
H30    H     0.49456   0.96983   0.43663   0.00000  Uiso   1.00
H31    H     0.87999   0.16960   0.16742   0.00000  Uiso   1.00
H32    H     0.76583   0.31599   0.10353   0.00000  Uiso   1.00
H33    H     0.04479   0.01283   0.10356   0.00000  Uiso   1.00
H34    H     0.85765   0.20239   0.29519   0.00000  Uiso   1.00
H35    H     0.59476   0.44285   0.03263   0.00000  Uiso   1.00
H36    H     0.18298   0.80363   0.03272   0.00000  Uiso   1.00
H37    H     0.78835   0.20335   0.43681   0.00000  Uiso   1.00
O38    O     0.36659   0.41744   0.99048   0.00000  Uiso   1.00
O39    O     0.13831   0.57881   0.99061   0.00000  Uiso   1.00
O40    O     0.62056   0.10323   0.52077   0.00000  Uiso   1.00
N41    N     0.38577   0.24421   0.04127   0.00000  Uiso   1.00
N42    N     0.93571   0.64659   0.04134   0.00000  Uiso   1.00
N43    N     0.56679   0.02026   0.41914   0.00000  Uiso   1.00
N44    N     0.54385   0.36987   0.04137   0.00000  Uiso   1.00
N45    N     0.09380   0.77224   0.04144   0.00000  Uiso   1.00
N46    N     0.72488   0.14592   0.41924   0.00000  Uiso   1.00
C47    C     0.38454   0.04065   0.83275   0.00000  Uiso   1.00
C48    C     0.40922   0.93143   0.86743   0.00000  Uiso   1.00
C49    C     0.51802   0.90960   0.89666   0.00000  Uiso   1.00
C50    C     0.52228   0.80453   0.92586   0.00000  Uiso   1.00
C51    C     0.57593   0.64718   0.97976   0.00000  Uiso   1.00
C52    C     0.25765   0.09614   0.86743   0.00000  Uiso   1.00
C53    C     0.23901   0.21279   0.89664   0.00000  Uiso   1.00
C54    C     0.11568   0.24638   0.92582   0.00000  Uiso   1.00
C55    C     0.93400   0.34475   0.97967   0.00000  Uiso   1.00
C56    C     0.35934   0.99314   0.76331   0.00000  Uiso   1.00
C57    C     0.42618   0.02321   0.70497   0.00000  Uiso   1.00
C58    C     0.38844   0.97010   0.64650   0.00000  Uiso   1.00
C59    C     0.36465   0.90856   0.53868   0.00000  Uiso   1.00
C60    C     0.19863   0.89289   0.83263   0.00000  Uiso   1.00
C61    C     0.30823   0.85117   0.86737   0.00000  Uiso   1.00
C62    C     0.31233   0.74611   0.89653   0.00000  Uiso   1.00
C63    C     0.42112   0.72412   0.92580   0.00000  Uiso   1.00
C64    C     0.15667   0.01588   0.86736   0.00000  Uiso   1.00
C65    C     0.03333   0.04930   0.89651   0.00000  Uiso   1.00
C66    C     0.01451   0.16597   0.92576   0.00000  Uiso   1.00
C67    C     0.25836   0.91287   0.76324   0.00000  Uiso   1.00
C68    C     0.22050   0.85972   0.70484   0.00000  Uiso   1.00
C69    C     0.28728   0.88970   0.64643   0.00000  Uiso   1.00
H70    H     0.46315   0.10315   0.83280   0.00000  Uiso   1.00
H71    H     0.59614   0.97174   0.89671   0.00000  Uiso   1.00
H72    H     0.31717   0.27488   0.89667   0.00000  Uiso   1.00
H73    H     0.50432   0.08533   0.70504   0.00000  Uiso   1.00
H74    H     0.69903   0.79068   0.96755   0.00000  Uiso   1.00
H75    H     0.11081   0.42989   0.96747   0.00000  Uiso   1.00
H76    H     0.50544   0.03017   0.56337   0.00000  Uiso   1.00
H77    H     0.12001   0.83040   0.83258   0.00000  Uiso   1.00
H78    H     0.23417   0.68401   0.89647   0.00000  Uiso   1.00
H79    H     0.95521   0.98717   0.89644   0.00000  Uiso   1.00
H80    H     0.14235   0.79761   0.70481   0.00000  Uiso   1.00
H81    H     0.40524   0.55715   0.96737   0.00000  Uiso   1.00
H82    H     0.81702   0.19637   0.96728   0.00000  Uiso   1.00
H83    H     0.21165   0.79665   0.56319   0.00000  Uiso   1.00
O84    O     0.63341   0.58256   0.00952   0.00000  Uiso   1.00
O85    O     0.86169   0.42119   0.00939   0.00000  Uiso   1.00
O86    O     0.37944   0.89677   0.47923   0.00000  Uiso   1.00
N87    N     0.61423   0.75579   0.95873   0.00000  Uiso   1.00
N88    N     0.06429   0.35341   0.95866   0.00000  Uiso   1.00
N89    N     0.43321   0.97974   0.58086   0.00000  Uiso   1.00
N90    N     0.45615   0.63013   0.95863   0.00000  Uiso   1.00
N91    N     0.90620   0.22776   0.95856   0.00000  Uiso   1.00
N92    N     0.27512   0.85408   0.58076   0.00000  Uiso   1.00
