data_job_04850
_audit_creation_date              2018-12-19
_audit_creation_method            'Materials Studio'
_symmetry_space_group_name_H-M    'P1'
_symmetry_Int_Tables_number       1
_symmetry_cell_setting            triclinic
loop_
_symmetry_equiv_pos_as_xyz
  x,y,z
_cell_length_a                    10.5652
_cell_length_b                    15.2891
_cell_length_c                    35.4662
_cell_angle_alpha                 90.0000
_cell_angle_beta                  90.0000
_cell_angle_gamma                 90.0000
loop_
_atom_site_label
_atom_site_type_symbol
_atom_site_fract_x
_atom_site_fract_y
_atom_site_fract_z
_atom_site_U_iso_or_equiv
_atom_site_adp_type
_atom_site_occupancy
C1     C     0.47161   0.62925   0.87305   0.00000  Uiso   1.00
C2     C     0.41341   0.54105   0.88318   0.00000  Uiso   1.00
C3     C     0.30853   0.50356   0.86605   0.00000  Uiso   1.00
C4     C     0.27000   0.42245   0.87939   0.00000  Uiso   1.00
C5     C     0.16983   0.29192   0.89066   0.00000  Uiso   1.00
C6     C     0.47233   0.68263   0.90937   0.00000  Uiso   1.00
C7     C     0.41700   0.76418   0.91425   0.00000  Uiso   1.00
C8     C     0.42809   0.80224   0.94964   0.00000  Uiso   1.00
C9     C     0.41947   0.89154   0.00156   0.00000  Uiso   1.00
C10    C     0.61002   0.61104   0.86373   0.00000  Uiso   1.00
C11    C     0.67047   0.63241   0.83023   0.00000  Uiso   1.00
C12    C     0.79750   0.61022   0.82719   0.00000  Uiso   1.00
C13    C     0.00267   0.58836   0.80824   0.00000  Uiso   1.00
C14    C     0.58971   0.55186   0.92722   0.00000  Uiso   1.00
C15    C     0.47756   0.49903   0.91261   0.00000  Uiso   1.00
C16    C     0.43919   0.41794   0.92598   0.00000  Uiso   1.00
C17    C     0.33426   0.38034   0.90887   0.00000  Uiso   1.00
C18    C     0.53647   0.64060   0.93880   0.00000  Uiso   1.00
C19    C     0.54765   0.67856   0.97418   0.00000  Uiso   1.00
C20    C     0.49235   0.76014   0.97912   0.00000  Uiso   1.00
C21    C     0.67417   0.56900   0.89315   0.00000  Uiso   1.00
C22    C     0.80113   0.54678   0.89016   0.00000  Uiso   1.00
C23    C     0.86176   0.56811   0.85667   0.00000  Uiso   1.00
H24    H     0.42167   0.66198   0.85015   0.00000  Uiso   1.00
H25    H     0.25890   0.53611   0.84328   0.00000  Uiso   1.00
H26    H     0.36737   0.79669   0.89148   0.00000  Uiso   1.00
H27    H     0.62080   0.66493   0.80747   0.00000  Uiso   1.00
H28    H     0.10671   0.37805   0.84865   0.00000  Uiso   1.00
H29    H     0.33545   0.92750   0.95027   0.00000  Uiso   1.00
H30    H     0.86987   0.64968   0.77312   0.00000  Uiso   1.00
H31    H     0.63965   0.51914   0.95013   0.00000  Uiso   1.00
H32    H     0.48884   0.38543   0.94875   0.00000  Uiso   1.00
H33    H     0.59731   0.64601   0.99695   0.00000  Uiso   1.00
H34    H     0.85074   0.51426   0.91294   0.00000  Uiso   1.00
H35    H     0.29333   0.25576   0.93426   0.00000  Uiso   1.00
H36    H     0.52208   0.80521   0.03588   0.00000  Uiso   1.00
H37    H     0.05649   0.52738   0.85873   0.00000  Uiso   1.00
O38    O     0.09685   0.23154   0.88875   0.00000  Uiso   1.00
O39    O     0.39698   0.95240   0.02207   0.00000  Uiso   1.00
O40    O     0.09811   0.58790   0.78965   0.00000  Uiso   1.00
N41    N     0.17134   0.36761   0.86898   0.00000  Uiso   1.00
N42    N     0.38518   0.88131   0.96399   0.00000  Uiso   1.00
N43    N     0.88483   0.62158   0.79838   0.00000  Uiso   1.00
N44    N     0.27176   0.30180   0.91505   0.00000  Uiso   1.00
N45    N     0.48561   0.81550   0.01006   0.00000  Uiso   1.00
N46    N     0.98525   0.55578   0.84444   0.00000  Uiso   1.00
C47    C     0.24774   0.31296   0.10468   0.00000  Uiso   1.00
C48    C     0.28556   0.40587   0.09384   0.00000  Uiso   1.00
C49    C     0.39842   0.44679   0.10331   0.00000  Uiso   1.00
C50    C     0.41507   0.53198   0.09070   0.00000  Uiso   1.00
C51    C     0.48795   0.66975   0.07710   0.00000  Uiso   1.00
C52    C     0.21837   0.26594   0.06778   0.00000  Uiso   1.00
C53    C     0.27474   0.18919   0.05535   0.00000  Uiso   1.00
C54    C     0.23482   0.15658   0.02080   0.00000  Uiso   1.00
C55    C     0.20333   0.07706   0.96675   0.00000  Uiso   1.00
C56    C     0.12202   0.32088   0.12552   0.00000  Uiso   1.00
C57    C     0.09736   0.29031   0.16163   0.00000  Uiso   1.00
C58    C     0.97630   0.30395   0.17569   0.00000  Uiso   1.00
C59    C     0.79522   0.30974   0.21129   0.00000  Uiso   1.00
C60    C     0.07661   0.39150   0.06544   0.00000  Uiso   1.00
C61    C     0.19260   0.44853   0.07253   0.00000  Uiso   1.00
C62    C     0.20908   0.53369   0.05990   0.00000  Uiso   1.00
C63    C     0.32195   0.57472   0.06935   0.00000  Uiso   1.00
C64    C     0.12542   0.30860   0.04647   0.00000  Uiso   1.00
C65    C     0.08540   0.27609   0.01194   0.00000  Uiso   1.00
C66    C     0.14170   0.19932   0.99945   0.00000  Uiso   1.00
C67    C     0.02907   0.36355   0.10421   0.00000  Uiso   1.00
C68    C     0.90802   0.37722   0.11822   0.00000  Uiso   1.00
C69    C     0.88318   0.34668   0.15434   0.00000  Uiso   1.00
H70    H     0.32011   0.27974   0.12127   0.00000  Uiso   1.00
H71    H     0.47034   0.41374   0.11980   0.00000  Uiso   1.00
H72    H     0.34666   0.15618   0.07184   0.00000  Uiso   1.00
H73    H     0.16931   0.25730   0.17811   0.00000  Uiso   1.00
H74    H     0.59592   0.58112   0.10877   0.00000  Uiso   1.00
H75    H     0.33512   0.03802   0.00765   0.00000  Uiso   1.00
H76    H     0.96114   0.25124   0.23173   0.00000  Uiso   1.00
H77    H     0.00424   0.42472   0.04885   0.00000  Uiso   1.00
H78    H     0.13713   0.56669   0.04341   0.00000  Uiso   1.00
H79    H     0.01346   0.30912   0.99545   0.00000  Uiso   1.00
H80    H     0.83612   0.41024   0.10172   0.00000  Uiso   1.00
H81    H     0.32548   0.70525   0.04676   0.00000  Uiso   1.00
H82    H     0.06468   0.16215   0.94565   0.00000  Uiso   1.00
H83    H     0.69071   0.37537   0.16973   0.00000  Uiso   1.00
O84    O     0.55384   0.73395   0.07548   0.00000  Uiso   1.00
O85    O     0.21166   0.02142   0.94283   0.00000  Uiso   1.00
O86    O     0.72102   0.30116   0.23681   0.00000  Uiso   1.00
N87    N     0.51402   0.59086   0.09493   0.00000  Uiso   1.00
N88    N     0.27020   0.08310   0.00039   0.00000  Uiso   1.00
N89    N     0.92056   0.28242   0.20988   0.00000  Uiso   1.00
N90    N     0.36850   0.65765   0.06156   0.00000  Uiso   1.00
N91    N     0.12468   0.14990   0.96702   0.00000  Uiso   1.00
N92    N     0.77504   0.34922   0.17651   0.00000  Uiso   1.00
C93    C     0.02839   0.37075   0.37305   0.00000  Uiso   1.00
C94    C     0.08659   0.45895   0.38318   0.00000  Uiso   1.00
C95    C     0.19147   0.49644   0.36605   0.00000  Uiso   1.00
C96    C     0.23000   0.57755   0.37939   0.00000  Uiso   1.00
C97    C     0.33017   0.70808   0.39066   0.00000  Uiso   1.00
C98    C     0.02767   0.31737   0.40937   0.00000  Uiso   1.00
C99    C     0.08300   0.23582   0.41425   0.00000  Uiso   1.00
C100   C     0.07191   0.19776   0.44964   0.00000  Uiso   1.00
C101   C     0.08053   0.10846   0.50156   0.00000  Uiso   1.00
C102   C     0.88998   0.38896   0.36373   0.00000  Uiso   1.00
C103   C     0.82953   0.36759   0.33023   0.00000  Uiso   1.00
C104   C     0.70250   0.38978   0.32719   0.00000  Uiso   1.00
C105   C     0.49733   0.41164   0.30824   0.00000  Uiso   1.00
C106   C     0.91029   0.44814   0.42722   0.00000  Uiso   1.00
C107   C     0.02244   0.50097   0.41261   0.00000  Uiso   1.00
C108   C     0.06081   0.58206   0.42598   0.00000  Uiso   1.00
C109   C     0.16574   0.61966   0.40887   0.00000  Uiso   1.00
C110   C     0.96353   0.35940   0.43880   0.00000  Uiso   1.00
C111   C     0.95235   0.32144   0.47418   0.00000  Uiso   1.00
C112   C     0.00765   0.23986   0.47912   0.00000  Uiso   1.00
C113   C     0.82583   0.43100   0.39315   0.00000  Uiso   1.00
C114   C     0.69887   0.45322   0.39016   0.00000  Uiso   1.00
C115   C     0.63824   0.43189   0.35667   0.00000  Uiso   1.00
H116   H     0.07833   0.33802   0.35015   0.00000  Uiso   1.00
H117   H     0.24110   0.46389   0.34328   0.00000  Uiso   1.00
H118   H     0.13263   0.20331   0.39148   0.00000  Uiso   1.00
H119   H     0.87920   0.33507   0.30747   0.00000  Uiso   1.00
H120   H     0.39329   0.62195   0.34865   0.00000  Uiso   1.00
H121   H     0.16455   0.07250   0.45027   0.00000  Uiso   1.00
H122   H     0.63013   0.35032   0.27312   0.00000  Uiso   1.00
H123   H     0.86035   0.48086   0.45013   0.00000  Uiso   1.00
H124   H     0.01116   0.61457   0.44875   0.00000  Uiso   1.00
H125   H     0.90269   0.35399   0.49695   0.00000  Uiso   1.00
H126   H     0.64926   0.48574   0.41294   0.00000  Uiso   1.00
H127   H     0.20667   0.74424   0.43426   0.00000  Uiso   1.00
H128   H     0.97792   0.19479   0.53588   0.00000  Uiso   1.00
H129   H     0.44351   0.47262   0.35873   0.00000  Uiso   1.00
O130   O     0.40315   0.76846   0.38875   0.00000  Uiso   1.00
O131   O     0.10302   0.04760   0.52207   0.00000  Uiso   1.00
O132   O     0.40189   0.41210   0.28965   0.00000  Uiso   1.00
N133   N     0.32866   0.63239   0.36898   0.00000  Uiso   1.00
N134   N     0.11482   0.11869   0.46399   0.00000  Uiso   1.00
N135   N     0.61517   0.37842   0.29838   0.00000  Uiso   1.00
N136   N     0.22824   0.69820   0.41505   0.00000  Uiso   1.00
N137   N     0.01439   0.18450   0.51006   0.00000  Uiso   1.00
N138   N     0.51475   0.44422   0.34444   0.00000  Uiso   1.00
C139   C     0.25226   0.68704   0.60468   0.00000  Uiso   1.00
C140   C     0.21444   0.59413   0.59384   0.00000  Uiso   1.00
C141   C     0.10158   0.55321   0.60331   0.00000  Uiso   1.00
C142   C     0.08493   0.46802   0.59070   0.00000  Uiso   1.00
C143   C     0.01205   0.33025   0.57710   0.00000  Uiso   1.00
C144   C     0.28163   0.73406   0.56778   0.00000  Uiso   1.00
C145   C     0.22526   0.81081   0.55535   0.00000  Uiso   1.00
C146   C     0.26518   0.84342   0.52080   0.00000  Uiso   1.00
C147   C     0.29667   0.92294   0.46675   0.00000  Uiso   1.00
C148   C     0.37798   0.67912   0.62552   0.00000  Uiso   1.00
C149   C     0.40264   0.70969   0.66163   0.00000  Uiso   1.00
C150   C     0.52370   0.69605   0.67569   0.00000  Uiso   1.00
C151   C     0.70478   0.69026   0.71129   0.00000  Uiso   1.00
C152   C     0.42339   0.60850   0.56544   0.00000  Uiso   1.00
C153   C     0.30740   0.55147   0.57253   0.00000  Uiso   1.00
C154   C     0.29092   0.46631   0.55990   0.00000  Uiso   1.00
C155   C     0.17805   0.42528   0.56935   0.00000  Uiso   1.00
C156   C     0.37458   0.69140   0.54647   0.00000  Uiso   1.00
C157   C     0.41460   0.72391   0.51194   0.00000  Uiso   1.00
C158   C     0.35830   0.80068   0.49945   0.00000  Uiso   1.00
C159   C     0.47093   0.63645   0.60421   0.00000  Uiso   1.00
C160   C     0.59198   0.62278   0.61822   0.00000  Uiso   1.00
C161   C     0.61682   0.65332   0.65434   0.00000  Uiso   1.00
H162   H     0.17989   0.72026   0.62127   0.00000  Uiso   1.00
H163   H     0.02966   0.58626   0.61980   0.00000  Uiso   1.00
H164   H     0.15334   0.84382   0.57184   0.00000  Uiso   1.00
H165   H     0.33069   0.74270   0.67811   0.00000  Uiso   1.00
H166   H     0.90408   0.41888   0.60877   0.00000  Uiso   1.00
H167   H     0.16488   0.96198   0.50765   0.00000  Uiso   1.00
H168   H     0.53886   0.74876   0.73173   0.00000  Uiso   1.00
H169   H     0.49576   0.57528   0.54885   0.00000  Uiso   1.00
H170   H     0.36287   0.43331   0.54341   0.00000  Uiso   1.00
H171   H     0.48654   0.69088   0.49545   0.00000  Uiso   1.00
H172   H     0.66388   0.58976   0.60172   0.00000  Uiso   1.00
H173   H     0.17452   0.29475   0.54676   0.00000  Uiso   1.00
H174   H     0.43532   0.83785   0.44565   0.00000  Uiso   1.00
H175   H     0.80929   0.62463   0.66973   0.00000  Uiso   1.00
O176   O     0.94616   0.26605   0.57548   0.00000  Uiso   1.00
O177   O     0.28834   0.97858   0.44283   0.00000  Uiso   1.00
O178   O     0.77898   0.69884   0.73681   0.00000  Uiso   1.00
N179   N     0.98598   0.40914   0.59493   0.00000  Uiso   1.00
N180   N     0.22980   0.91690   0.50039   0.00000  Uiso   1.00
N181   N     0.57944   0.71758   0.70988   0.00000  Uiso   1.00
N182   N     0.13150   0.34235   0.56156   0.00000  Uiso   1.00
N183   N     0.37532   0.85010   0.46702   0.00000  Uiso   1.00
N184   N     0.72496   0.65078   0.67651   0.00000  Uiso   1.00
C185   C     0.52839   0.12925   0.62695   0.00000  Uiso   1.00
C186   C     0.58659   0.04105   0.61682   0.00000  Uiso   1.00
C187   C     0.69147   0.00356   0.63395   0.00000  Uiso   1.00
C188   C     0.73000   0.92245   0.62061   0.00000  Uiso   1.00
C189   C     0.83017   0.79192   0.60934   0.00000  Uiso   1.00
C190   C     0.52767   0.18263   0.59063   0.00000  Uiso   1.00
C191   C     0.58300   0.26418   0.58575   0.00000  Uiso   1.00
C192   C     0.57191   0.30224   0.55036   0.00000  Uiso   1.00
C193   C     0.58053   0.39154   0.49844   0.00000  Uiso   1.00
C194   C     0.38998   0.11104   0.63627   0.00000  Uiso   1.00
C195   C     0.32953   0.13241   0.66977   0.00000  Uiso   1.00
C196   C     0.20250   0.11022   0.67281   0.00000  Uiso   1.00
C197   C     0.99733   0.08836   0.69176   0.00000  Uiso   1.00
C198   C     0.41029   0.05186   0.57278   0.00000  Uiso   1.00
C199   C     0.52244   0.99903   0.58739   0.00000  Uiso   1.00
C200   C     0.56081   0.91794   0.57402   0.00000  Uiso   1.00
C201   C     0.66574   0.88034   0.59113   0.00000  Uiso   1.00
C202   C     0.46353   0.14060   0.56120   0.00000  Uiso   1.00
C203   C     0.45235   0.17856   0.52582   0.00000  Uiso   1.00
C204   C     0.50765   0.26014   0.52088   0.00000  Uiso   1.00
C205   C     0.32583   0.06900   0.60685   0.00000  Uiso   1.00
C206   C     0.19887   0.04678   0.60984   0.00000  Uiso   1.00
C207   C     0.13824   0.06811   0.64333   0.00000  Uiso   1.00
H208   H     0.57833   0.16198   0.64985   0.00000  Uiso   1.00
H209   H     0.74110   0.03611   0.65672   0.00000  Uiso   1.00
H210   H     0.63263   0.29669   0.60852   0.00000  Uiso   1.00
H211   H     0.37920   0.16493   0.69253   0.00000  Uiso   1.00
H212   H     0.89329   0.87805   0.65135   0.00000  Uiso   1.00
H213   H     0.66455   0.42750   0.54973   0.00000  Uiso   1.00
H214   H     0.13013   0.14968   0.72688   0.00000  Uiso   1.00
H215   H     0.36035   0.01914   0.54987   0.00000  Uiso   1.00
H216   H     0.51116   0.88543   0.55125   0.00000  Uiso   1.00
H217   H     0.40269   0.14601   0.50305   0.00000  Uiso   1.00
H218   H     0.14926   0.01426   0.58706   0.00000  Uiso   1.00
H219   H     0.70667   0.75576   0.56574   0.00000  Uiso   1.00
H220   H     0.47792   0.30521   0.46412   0.00000  Uiso   1.00
H221   H     0.94351   0.02738   0.64127   0.00000  Uiso   1.00
O222   O     0.90315   0.73154   0.61125   0.00000  Uiso   1.00
O223   O     0.60302   0.45240   0.47793   0.00000  Uiso   1.00
O224   O     0.90189   0.08790   0.71035   0.00000  Uiso   1.00
N225   N     0.82866   0.86761   0.63102   0.00000  Uiso   1.00
N226   N     0.61482   0.38131   0.53601   0.00000  Uiso   1.00
N227   N     0.11517   0.12158   0.70162   0.00000  Uiso   1.00
N228   N     0.72824   0.80180   0.58495   0.00000  Uiso   1.00
N229   N     0.51439   0.31550   0.48994   0.00000  Uiso   1.00
N230   N     0.01475   0.05578   0.65556   0.00000  Uiso   1.00
C231   C     0.75226   0.81296   0.39532   0.00000  Uiso   1.00
C232   C     0.71444   0.90587   0.40616   0.00000  Uiso   1.00
C233   C     0.60158   0.94679   0.39669   0.00000  Uiso   1.00
C234   C     0.58493   0.03198   0.40930   0.00000  Uiso   1.00
C235   C     0.51205   0.16975   0.42290   0.00000  Uiso   1.00
C236   C     0.78163   0.76594   0.43222   0.00000  Uiso   1.00
C237   C     0.72526   0.68919   0.44465   0.00000  Uiso   1.00
C238   C     0.76518   0.65658   0.47920   0.00000  Uiso   1.00
C239   C     0.79667   0.57706   0.53325   0.00000  Uiso   1.00
C240   C     0.87798   0.82088   0.37448   0.00000  Uiso   1.00
C241   C     0.90264   0.79031   0.33837   0.00000  Uiso   1.00
C242   C     0.02370   0.80395   0.32431   0.00000  Uiso   1.00
C243   C     0.20478   0.80974   0.28871   0.00000  Uiso   1.00
C244   C     0.92339   0.89150   0.43456   0.00000  Uiso   1.00
C245   C     0.80740   0.94853   0.42747   0.00000  Uiso   1.00
C246   C     0.79092   0.03369   0.44010   0.00000  Uiso   1.00
C247   C     0.67805   0.07472   0.43065   0.00000  Uiso   1.00
C248   C     0.87458   0.80860   0.45353   0.00000  Uiso   1.00
C249   C     0.91460   0.77609   0.48806   0.00000  Uiso   1.00
C250   C     0.85830   0.69932   0.50055   0.00000  Uiso   1.00
C251   C     0.97093   0.86355   0.39579   0.00000  Uiso   1.00
C252   C     0.09198   0.87722   0.38178   0.00000  Uiso   1.00
C253   C     0.11682   0.84668   0.34566   0.00000  Uiso   1.00
H254   H     0.67989   0.77974   0.37873   0.00000  Uiso   1.00
H255   H     0.52966   0.91374   0.38020   0.00000  Uiso   1.00
H256   H     0.65334   0.65618   0.42816   0.00000  Uiso   1.00
H257   H     0.83069   0.75730   0.32189   0.00000  Uiso   1.00
H258   H     0.40408   0.08112   0.39123   0.00000  Uiso   1.00
H259   H     0.66488   0.53802   0.49235   0.00000  Uiso   1.00
H260   H     0.03886   0.75124   0.26827   0.00000  Uiso   1.00
H261   H     0.99576   0.92472   0.45115   0.00000  Uiso   1.00
H262   H     0.86287   0.06669   0.45659   0.00000  Uiso   1.00
H263   H     0.98654   0.80912   0.50455   0.00000  Uiso   1.00
H264   H     0.16388   0.91024   0.39828   0.00000  Uiso   1.00
H265   H     0.67452   0.20525   0.45324   0.00000  Uiso   1.00
H266   H     0.93532   0.66215   0.55435   0.00000  Uiso   1.00
H267   H     0.30929   0.87537   0.33027   0.00000  Uiso   1.00
O268   O     0.44616   0.23395   0.42452   0.00000  Uiso   1.00
O269   O     0.78834   0.52142   0.55717   0.00000  Uiso   1.00
O270   O     0.27898   0.80116   0.26319   0.00000  Uiso   1.00
N271   N     0.48598   0.09086   0.40507   0.00000  Uiso   1.00
N272   N     0.72980   0.58310   0.49961   0.00000  Uiso   1.00
N273   N     0.07944   0.78242   0.29012   0.00000  Uiso   1.00
N274   N     0.63150   0.15765   0.43844   0.00000  Uiso   1.00
N275   N     0.87532   0.64990   0.53298   0.00000  Uiso   1.00
N276   N     0.22496   0.84922   0.32349   0.00000  Uiso   1.00
C277   C     0.97161   0.87075   0.12695   0.00000  Uiso   1.00
C278   C     0.91341   0.95895   0.11682   0.00000  Uiso   1.00
C279   C     0.80853   0.99644   0.13395   0.00000  Uiso   1.00
C280   C     0.77000   0.07755   0.12061   0.00000  Uiso   1.00
C281   C     0.66983   0.20808   0.10934   0.00000  Uiso   1.00
C282   C     0.97233   0.81737   0.09063   0.00000  Uiso   1.00
C283   C     0.91700   0.73582   0.08575   0.00000  Uiso   1.00
C284   C     0.92809   0.69776   0.05036   0.00000  Uiso   1.00
C285   C     0.91947   0.60846   0.99844   0.00000  Uiso   1.00
C286   C     0.11002   0.88896   0.13627   0.00000  Uiso   1.00
C287   C     0.17047   0.86759   0.16977   0.00000  Uiso   1.00
C288   C     0.29750   0.88978   0.17281   0.00000  Uiso   1.00
C289   C     0.50267   0.91164   0.19176   0.00000  Uiso   1.00
C290   C     0.08971   0.94814   0.07278   0.00000  Uiso   1.00
C291   C     0.97756   0.00097   0.08739   0.00000  Uiso   1.00
C292   C     0.93919   0.08206   0.07402   0.00000  Uiso   1.00
C293   C     0.83426   0.11966   0.09113   0.00000  Uiso   1.00
C294   C     0.03647   0.85940   0.06120   0.00000  Uiso   1.00
C295   C     0.04765   0.82144   0.02582   0.00000  Uiso   1.00
C296   C     0.99235   0.73986   0.02088   0.00000  Uiso   1.00
C297   C     0.17417   0.93100   0.10685   0.00000  Uiso   1.00
C298   C     0.30113   0.95322   0.10984   0.00000  Uiso   1.00
C299   C     0.36176   0.93189   0.14333   0.00000  Uiso   1.00
H300   H     0.92167   0.83802   0.14985   0.00000  Uiso   1.00
H301   H     0.75890   0.96389   0.15672   0.00000  Uiso   1.00
H302   H     0.86737   0.70331   0.10852   0.00000  Uiso   1.00
H303   H     0.12080   0.83507   0.19253   0.00000  Uiso   1.00
H304   H     0.60671   0.12195   0.15135   0.00000  Uiso   1.00
H305   H     0.83545   0.57250   0.04973   0.00000  Uiso   1.00
H306   H     0.36987   0.85032   0.22688   0.00000  Uiso   1.00
H307   H     0.13965   0.98086   0.04987   0.00000  Uiso   1.00
H308   H     0.98884   0.11457   0.05125   0.00000  Uiso   1.00
H309   H     0.09731   0.85399   0.00305   0.00000  Uiso   1.00
H310   H     0.35074   0.98574   0.08706   0.00000  Uiso   1.00
H311   H     0.79333   0.24424   0.06574   0.00000  Uiso   1.00
H312   H     0.02208   0.69479   0.96412   0.00000  Uiso   1.00
H313   H     0.55649   0.97262   0.14127   0.00000  Uiso   1.00
O314   O     0.59685   0.26846   0.11125   0.00000  Uiso   1.00
O315   O     0.89698   0.54760   0.97793   0.00000  Uiso   1.00
O316   O     0.59811   0.91210   0.21035   0.00000  Uiso   1.00
N317   N     0.67134   0.13239   0.13102   0.00000  Uiso   1.00
N318   N     0.88518   0.61869   0.03601   0.00000  Uiso   1.00
N319   N     0.38483   0.87842   0.20162   0.00000  Uiso   1.00
N320   N     0.77176   0.19820   0.08495   0.00000  Uiso   1.00
N321   N     0.98561   0.68450   0.98994   0.00000  Uiso   1.00
N322   N     0.48525   0.94422   0.15556   0.00000  Uiso   1.00
C323   C     0.74774   0.18704   0.89532   0.00000  Uiso   1.00
C324   C     0.78556   0.09413   0.90616   0.00000  Uiso   1.00
C325   C     0.89842   0.05321   0.89669   0.00000  Uiso   1.00
C326   C     0.91507   0.96802   0.90930   0.00000  Uiso   1.00
C327   C     0.98795   0.83025   0.92290   0.00000  Uiso   1.00
C328   C     0.71837   0.23406   0.93222   0.00000  Uiso   1.00
C329   C     0.77474   0.31081   0.94465   0.00000  Uiso   1.00
C330   C     0.73482   0.34342   0.97920   0.00000  Uiso   1.00
C331   C     0.70333   0.42294   0.03325   0.00000  Uiso   1.00
C332   C     0.62202   0.17912   0.87448   0.00000  Uiso   1.00
C333   C     0.59736   0.20969   0.83837   0.00000  Uiso   1.00
C334   C     0.47630   0.19605   0.82431   0.00000  Uiso   1.00
C335   C     0.29522   0.19026   0.78871   0.00000  Uiso   1.00
C336   C     0.57661   0.10850   0.93456   0.00000  Uiso   1.00
C337   C     0.69260   0.05147   0.92747   0.00000  Uiso   1.00
C338   C     0.70908   0.96631   0.94010   0.00000  Uiso   1.00
C339   C     0.82195   0.92528   0.93065   0.00000  Uiso   1.00
C340   C     0.62542   0.19140   0.95353   0.00000  Uiso   1.00
C341   C     0.58540   0.22391   0.98806   0.00000  Uiso   1.00
C342   C     0.64170   0.30068   0.00055   0.00000  Uiso   1.00
C343   C     0.52907   0.13645   0.89579   0.00000  Uiso   1.00
C344   C     0.40802   0.12278   0.88178   0.00000  Uiso   1.00
C345   C     0.38318   0.15332   0.84566   0.00000  Uiso   1.00
H346   H     0.82011   0.22026   0.87873   0.00000  Uiso   1.00
H347   H     0.97034   0.08626   0.88020   0.00000  Uiso   1.00
H348   H     0.84666   0.34382   0.92816   0.00000  Uiso   1.00
H349   H     0.66931   0.24270   0.82189   0.00000  Uiso   1.00
H350   H     0.09592   0.91888   0.89123   0.00000  Uiso   1.00
H351   H     0.83512   0.46198   0.99235   0.00000  Uiso   1.00
H352   H     0.46114   0.24876   0.76827   0.00000  Uiso   1.00
H353   H     0.50424   0.07528   0.95115   0.00000  Uiso   1.00
H354   H     0.63713   0.93331   0.95659   0.00000  Uiso   1.00
H355   H     0.51346   0.19088   0.00455   0.00000  Uiso   1.00
H356   H     0.33612   0.08976   0.89828   0.00000  Uiso   1.00
H357   H     0.82548   0.79475   0.95324   0.00000  Uiso   1.00
H358   H     0.56468   0.33785   0.05435   0.00000  Uiso   1.00
H359   H     0.19071   0.12463   0.83027   0.00000  Uiso   1.00
O360   O     0.05384   0.76605   0.92452   0.00000  Uiso   1.00
O361   O     0.71166   0.47858   0.05717   0.00000  Uiso   1.00
O362   O     0.22102   0.19884   0.76319   0.00000  Uiso   1.00
N363   N     0.01402   0.90914   0.90507   0.00000  Uiso   1.00
N364   N     0.77020   0.41690   0.99961   0.00000  Uiso   1.00
N365   N     0.42056   0.21758   0.79012   0.00000  Uiso   1.00
N366   N     0.86850   0.84235   0.93844   0.00000  Uiso   1.00
N367   N     0.62468   0.35010   0.03298   0.00000  Uiso   1.00
N368   N     0.27504   0.15078   0.82349   0.00000  Uiso   1.00
