data_job_01299
_audit_creation_date              2018-12-19
_audit_creation_method            'Materials Studio'
_symmetry_space_group_name_H-M    'P1'
_symmetry_Int_Tables_number       1
_symmetry_cell_setting            triclinic
loop_
_symmetry_equiv_pos_as_xyz
  x,y,z
_cell_length_a                    34.8593
_cell_length_b                    12.5180
_cell_length_c                    14.2614
_cell_angle_alpha                 90.0000
_cell_angle_beta                  75.8856
_cell_angle_gamma                 90.0000
loop_
_atom_site_label
_atom_site_type_symbol
_atom_site_fract_x
_atom_site_fract_y
_atom_site_fract_z
_atom_site_U_iso_or_equiv
_atom_site_adp_type
_atom_site_occupancy
C1     C     0.86374   0.31139   0.48740   0.00000  Uiso   1.00
C2     C     0.85325   0.41808   0.44844   0.00000  Uiso   1.00
C3     C     0.82096   0.48139   0.49052   0.00000  Uiso   1.00
C4     C     0.81651   0.57615   0.44368   0.00000  Uiso   1.00
C5     C     0.79611   0.73719   0.39622   0.00000  Uiso   1.00
C6     C     0.86611   0.23071   0.40606   0.00000  Uiso   1.00
C7     C     0.84465   0.13649   0.41252   0.00000  Uiso   1.00
C8     C     0.85104   0.07351   0.33002   0.00000  Uiso   1.00
C9     C     0.85064   0.94362   0.21679   0.00000  Uiso   1.00
C10    C     0.90581   0.32353   0.49940   0.00000  Uiso   1.00
C11    C     0.91772   0.30733   0.58433   0.00000  Uiso   1.00
C12    C     0.95754   0.32248   0.58040   0.00000  Uiso   1.00
C13    C     0.01877   0.33670   0.61209   0.00000  Uiso   1.00
C14    C     0.91328   0.36708   0.32939   0.00000  Uiso   1.00
C15    C     0.88015   0.44832   0.36261   0.00000  Uiso   1.00
C16    C     0.87576   0.54301   0.31570   0.00000  Uiso   1.00
C17    C     0.84347   0.60646   0.35771   0.00000  Uiso   1.00
C18    C     0.89302   0.26096   0.32024   0.00000  Uiso   1.00
C19    C     0.89945   0.19810   0.23771   0.00000  Uiso   1.00
C20    C     0.87799   0.10381   0.24404   0.00000  Uiso   1.00
C21    C     0.93272   0.35379   0.41358   0.00000  Uiso   1.00
C22    C     0.97252   0.36895   0.40951   0.00000  Uiso   1.00
C23    C     0.98449   0.35278   0.49442   0.00000  Uiso   1.00
H24    H     0.84280   0.28783   0.55421   0.00000  Uiso   1.00
H25    H     0.80014   0.45795   0.55694   0.00000  Uiso   1.00
H26    H     0.82383   0.11309   0.47895   0.00000  Uiso   1.00
H27    H     0.89690   0.28392   0.65073   0.00000  Uiso   1.00
H28    H     0.76471   0.65988   0.52209   0.00000  Uiso   1.00
H29    H     0.81467   0.93272   0.35767   0.00000  Uiso   1.00
H30    H     0.96874   0.29292   0.71990   0.00000  Uiso   1.00
H31    H     0.93422   0.39063   0.26257   0.00000  Uiso   1.00
H32    H     0.89658   0.56640   0.24929   0.00000  Uiso   1.00
H33    H     0.92027   0.22154   0.17130   0.00000  Uiso   1.00
H34    H     0.99334   0.39236   0.34308   0.00000  Uiso   1.00
H35    H     0.84298   0.74790   0.27238   0.00000  Uiso   1.00
H36    H     0.89294   0.02073   0.10797   0.00000  Uiso   1.00
H37    H     0.04701   0.38094   0.47020   0.00000  Uiso   1.00
O38    O     0.77742   0.81765   0.39374   0.00000  Uiso   1.00
O39    O     0.84298   0.86362   0.17804   0.00000  Uiso   1.00
O40    O     0.04511   0.33621   0.65328   0.00000  Uiso   1.00
N41    N     0.78830   0.65649   0.46515   0.00000  Uiso   1.00
N42    N     0.83500   0.97663   0.31143   0.00000  Uiso   1.00
N43    N     0.97905   0.31337   0.65008   0.00000  Uiso   1.00
N44    N     0.83042   0.70385   0.33079   0.00000  Uiso   1.00
N45    N     0.87712   0.02400   0.17706   0.00000  Uiso   1.00
N46    N     0.02117   0.36073   0.51571   0.00000  Uiso   1.00
C47    C     0.36374   0.81139   0.48740   0.00000  Uiso   1.00
C48    C     0.35325   0.91808   0.44844   0.00000  Uiso   1.00
C49    C     0.32096   0.98139   0.49052   0.00000  Uiso   1.00
C50    C     0.31651   0.07615   0.44368   0.00000  Uiso   1.00
C51    C     0.29611   0.23719   0.39622   0.00000  Uiso   1.00
C52    C     0.36611   0.73071   0.40606   0.00000  Uiso   1.00
C53    C     0.34465   0.63649   0.41252   0.00000  Uiso   1.00
C54    C     0.35104   0.57351   0.33002   0.00000  Uiso   1.00
C55    C     0.35064   0.44362   0.21679   0.00000  Uiso   1.00
C56    C     0.40581   0.82353   0.49940   0.00000  Uiso   1.00
C57    C     0.41772   0.80733   0.58433   0.00000  Uiso   1.00
C58    C     0.45754   0.82248   0.58040   0.00000  Uiso   1.00
C59    C     0.51877   0.83670   0.61209   0.00000  Uiso   1.00
C60    C     0.41328   0.86708   0.32939   0.00000  Uiso   1.00
C61    C     0.38015   0.94832   0.36261   0.00000  Uiso   1.00
C62    C     0.37576   0.04301   0.31570   0.00000  Uiso   1.00
C63    C     0.34347   0.10646   0.35771   0.00000  Uiso   1.00
C64    C     0.39302   0.76096   0.32024   0.00000  Uiso   1.00
C65    C     0.39945   0.69810   0.23771   0.00000  Uiso   1.00
C66    C     0.37799   0.60381   0.24404   0.00000  Uiso   1.00
C67    C     0.43272   0.85379   0.41358   0.00000  Uiso   1.00
C68    C     0.47252   0.86895   0.40951   0.00000  Uiso   1.00
C69    C     0.48449   0.85278   0.49442   0.00000  Uiso   1.00
H70    H     0.34280   0.78783   0.55421   0.00000  Uiso   1.00
H71    H     0.30014   0.95795   0.55694   0.00000  Uiso   1.00
H72    H     0.32383   0.61309   0.47895   0.00000  Uiso   1.00
H73    H     0.39690   0.78392   0.65073   0.00000  Uiso   1.00
H74    H     0.26471   0.15988   0.52209   0.00000  Uiso   1.00
H75    H     0.31467   0.43272   0.35767   0.00000  Uiso   1.00
H76    H     0.46874   0.79292   0.71990   0.00000  Uiso   1.00
H77    H     0.43422   0.89063   0.26257   0.00000  Uiso   1.00
H78    H     0.39658   0.06640   0.24929   0.00000  Uiso   1.00
H79    H     0.42027   0.72154   0.17130   0.00000  Uiso   1.00
H80    H     0.49334   0.89236   0.34308   0.00000  Uiso   1.00
H81    H     0.34298   0.24790   0.27238   0.00000  Uiso   1.00
H82    H     0.39294   0.52073   0.10797   0.00000  Uiso   1.00
H83    H     0.54701   0.88094   0.47020   0.00000  Uiso   1.00
O84    O     0.27742   0.31765   0.39374   0.00000  Uiso   1.00
O85    O     0.34298   0.36362   0.17804   0.00000  Uiso   1.00
O86    O     0.54511   0.83621   0.65328   0.00000  Uiso   1.00
N87    N     0.28830   0.15649   0.46515   0.00000  Uiso   1.00
N88    N     0.33500   0.47663   0.31143   0.00000  Uiso   1.00
N89    N     0.47905   0.81337   0.65008   0.00000  Uiso   1.00
N90    N     0.33042   0.20385   0.33079   0.00000  Uiso   1.00
N91    N     0.37712   0.52400   0.17706   0.00000  Uiso   1.00
N92    N     0.52117   0.86073   0.51571   0.00000  Uiso   1.00
C93    C     0.13626   0.31139   0.01260   0.00000  Uiso   1.00
C94    C     0.14675   0.41808   0.05156   0.00000  Uiso   1.00
C95    C     0.17904   0.48139   0.00948   0.00000  Uiso   1.00
C96    C     0.18349   0.57615   0.05632   0.00000  Uiso   1.00
C97    C     0.20389   0.73719   0.10378   0.00000  Uiso   1.00
C98    C     0.13389   0.23071   0.09394   0.00000  Uiso   1.00
C99    C     0.15535   0.13649   0.08748   0.00000  Uiso   1.00
C100   C     0.14896   0.07351   0.16998   0.00000  Uiso   1.00
C101   C     0.14936   0.94362   0.28321   0.00000  Uiso   1.00
C102   C     0.09419   0.32353   0.00060   0.00000  Uiso   1.00
C103   C     0.08228   0.30733   0.91567   0.00000  Uiso   1.00
C104   C     0.04246   0.32248   0.91960   0.00000  Uiso   1.00
C105   C     0.98123   0.33670   0.88791   0.00000  Uiso   1.00
C106   C     0.08672   0.36708   0.17061   0.00000  Uiso   1.00
C107   C     0.11985   0.44832   0.13739   0.00000  Uiso   1.00
C108   C     0.12424   0.54301   0.18430   0.00000  Uiso   1.00
C109   C     0.15653   0.60646   0.14229   0.00000  Uiso   1.00
C110   C     0.10698   0.26096   0.17976   0.00000  Uiso   1.00
C111   C     0.10055   0.19810   0.26229   0.00000  Uiso   1.00
C112   C     0.12201   0.10381   0.25596   0.00000  Uiso   1.00
C113   C     0.06728   0.35379   0.08642   0.00000  Uiso   1.00
C114   C     0.02748   0.36895   0.09049   0.00000  Uiso   1.00
C115   C     0.01551   0.35278   0.00558   0.00000  Uiso   1.00
H116   H     0.15720   0.28783   0.94579   0.00000  Uiso   1.00
H117   H     0.19986   0.45795   0.94306   0.00000  Uiso   1.00
H118   H     0.17617   0.11309   0.02105   0.00000  Uiso   1.00
H119   H     0.10310   0.28392   0.84927   0.00000  Uiso   1.00
H120   H     0.23529   0.65988   0.97791   0.00000  Uiso   1.00
H121   H     0.18533   0.93272   0.14233   0.00000  Uiso   1.00
H122   H     0.03126   0.29292   0.78010   0.00000  Uiso   1.00
H123   H     0.06578   0.39063   0.23743   0.00000  Uiso   1.00
H124   H     0.10342   0.56640   0.25071   0.00000  Uiso   1.00
H125   H     0.07973   0.22154   0.32870   0.00000  Uiso   1.00
H126   H     0.00666   0.39236   0.15692   0.00000  Uiso   1.00
H127   H     0.15702   0.74790   0.22762   0.00000  Uiso   1.00
H128   H     0.10706   0.02073   0.39203   0.00000  Uiso   1.00
H129   H     0.95299   0.38094   0.02980   0.00000  Uiso   1.00
O130   O     0.22258   0.81765   0.10626   0.00000  Uiso   1.00
O131   O     0.15702   0.86362   0.32196   0.00000  Uiso   1.00
O132   O     0.95489   0.33621   0.84672   0.00000  Uiso   1.00
N133   N     0.21170   0.65649   0.03485   0.00000  Uiso   1.00
N134   N     0.16500   0.97663   0.18857   0.00000  Uiso   1.00
N135   N     0.02095   0.31337   0.84992   0.00000  Uiso   1.00
N136   N     0.16958   0.70385   0.16921   0.00000  Uiso   1.00
N137   N     0.12288   0.02400   0.32294   0.00000  Uiso   1.00
N138   N     0.97883   0.36073   0.98429   0.00000  Uiso   1.00
C139   C     0.63626   0.81139   0.01260   0.00000  Uiso   1.00
C140   C     0.64675   0.91808   0.05156   0.00000  Uiso   1.00
C141   C     0.67904   0.98139   0.00948   0.00000  Uiso   1.00
C142   C     0.68349   0.07615   0.05632   0.00000  Uiso   1.00
C143   C     0.70389   0.23719   0.10378   0.00000  Uiso   1.00
C144   C     0.63389   0.73071   0.09394   0.00000  Uiso   1.00
C145   C     0.65535   0.63649   0.08748   0.00000  Uiso   1.00
C146   C     0.64896   0.57351   0.16998   0.00000  Uiso   1.00
C147   C     0.64936   0.44362   0.28321   0.00000  Uiso   1.00
C148   C     0.59419   0.82353   0.00060   0.00000  Uiso   1.00
C149   C     0.58228   0.80733   0.91567   0.00000  Uiso   1.00
C150   C     0.54246   0.82248   0.91960   0.00000  Uiso   1.00
C151   C     0.48123   0.83670   0.88791   0.00000  Uiso   1.00
C152   C     0.58672   0.86708   0.17061   0.00000  Uiso   1.00
C153   C     0.61985   0.94832   0.13739   0.00000  Uiso   1.00
C154   C     0.62424   0.04301   0.18430   0.00000  Uiso   1.00
C155   C     0.65653   0.10646   0.14229   0.00000  Uiso   1.00
C156   C     0.60698   0.76096   0.17976   0.00000  Uiso   1.00
C157   C     0.60055   0.69810   0.26229   0.00000  Uiso   1.00
C158   C     0.62201   0.60381   0.25596   0.00000  Uiso   1.00
C159   C     0.56728   0.85379   0.08642   0.00000  Uiso   1.00
C160   C     0.52748   0.86895   0.09049   0.00000  Uiso   1.00
C161   C     0.51551   0.85278   0.00558   0.00000  Uiso   1.00
H162   H     0.65720   0.78783   0.94579   0.00000  Uiso   1.00
H163   H     0.69986   0.95795   0.94306   0.00000  Uiso   1.00
H164   H     0.67617   0.61309   0.02105   0.00000  Uiso   1.00
H165   H     0.60310   0.78392   0.84927   0.00000  Uiso   1.00
H166   H     0.73529   0.15988   0.97791   0.00000  Uiso   1.00
H167   H     0.68533   0.43272   0.14233   0.00000  Uiso   1.00
H168   H     0.53126   0.79292   0.78010   0.00000  Uiso   1.00
H169   H     0.56578   0.89063   0.23743   0.00000  Uiso   1.00
H170   H     0.60342   0.06640   0.25071   0.00000  Uiso   1.00
H171   H     0.57973   0.72154   0.32870   0.00000  Uiso   1.00
H172   H     0.50666   0.89236   0.15692   0.00000  Uiso   1.00
H173   H     0.65702   0.24790   0.22762   0.00000  Uiso   1.00
H174   H     0.60706   0.52073   0.39203   0.00000  Uiso   1.00
H175   H     0.45299   0.88094   0.02980   0.00000  Uiso   1.00
O176   O     0.72258   0.31765   0.10626   0.00000  Uiso   1.00
O177   O     0.65702   0.36362   0.32196   0.00000  Uiso   1.00
O178   O     0.45489   0.83621   0.84672   0.00000  Uiso   1.00
N179   N     0.71170   0.15649   0.03485   0.00000  Uiso   1.00
N180   N     0.66500   0.47663   0.18857   0.00000  Uiso   1.00
N181   N     0.52095   0.81337   0.84992   0.00000  Uiso   1.00
N182   N     0.66958   0.20385   0.16921   0.00000  Uiso   1.00
N183   N     0.62288   0.52400   0.32294   0.00000  Uiso   1.00
N184   N     0.47883   0.86073   0.98429   0.00000  Uiso   1.00
C185   C     0.13626   0.68861   0.51260   0.00000  Uiso   1.00
C186   C     0.14675   0.58192   0.55156   0.00000  Uiso   1.00
C187   C     0.17904   0.51861   0.50948   0.00000  Uiso   1.00
C188   C     0.18349   0.42385   0.55632   0.00000  Uiso   1.00
C189   C     0.20389   0.26281   0.60378   0.00000  Uiso   1.00
C190   C     0.13389   0.76929   0.59394   0.00000  Uiso   1.00
C191   C     0.15535   0.86351   0.58748   0.00000  Uiso   1.00
C192   C     0.14896   0.92649   0.66998   0.00000  Uiso   1.00
C193   C     0.14936   0.05638   0.78321   0.00000  Uiso   1.00
C194   C     0.09419   0.67647   0.50060   0.00000  Uiso   1.00
C195   C     0.08228   0.69267   0.41567   0.00000  Uiso   1.00
C196   C     0.04246   0.67752   0.41960   0.00000  Uiso   1.00
C197   C     0.98123   0.66330   0.38791   0.00000  Uiso   1.00
C198   C     0.08672   0.63292   0.67061   0.00000  Uiso   1.00
C199   C     0.11985   0.55168   0.63739   0.00000  Uiso   1.00
C200   C     0.12424   0.45699   0.68430   0.00000  Uiso   1.00
C201   C     0.15653   0.39354   0.64229   0.00000  Uiso   1.00
C202   C     0.10698   0.73904   0.67976   0.00000  Uiso   1.00
C203   C     0.10055   0.80190   0.76229   0.00000  Uiso   1.00
C204   C     0.12201   0.89619   0.75596   0.00000  Uiso   1.00
C205   C     0.06728   0.64621   0.58642   0.00000  Uiso   1.00
C206   C     0.02748   0.63105   0.59049   0.00000  Uiso   1.00
C207   C     0.01551   0.64722   0.50558   0.00000  Uiso   1.00
H208   H     0.15720   0.71217   0.44579   0.00000  Uiso   1.00
H209   H     0.19986   0.54205   0.44306   0.00000  Uiso   1.00
H210   H     0.17617   0.88691   0.52105   0.00000  Uiso   1.00
H211   H     0.10310   0.71608   0.34927   0.00000  Uiso   1.00
H212   H     0.23529   0.34012   0.47791   0.00000  Uiso   1.00
H213   H     0.18533   0.06728   0.64233   0.00000  Uiso   1.00
H214   H     0.03126   0.70708   0.28010   0.00000  Uiso   1.00
H215   H     0.06578   0.60937   0.73743   0.00000  Uiso   1.00
H216   H     0.10342   0.43360   0.75071   0.00000  Uiso   1.00
H217   H     0.07973   0.77846   0.82870   0.00000  Uiso   1.00
H218   H     0.00666   0.60764   0.65692   0.00000  Uiso   1.00
H219   H     0.15702   0.25210   0.72762   0.00000  Uiso   1.00
H220   H     0.10706   0.97927   0.89203   0.00000  Uiso   1.00
H221   H     0.95299   0.61906   0.52980   0.00000  Uiso   1.00
O222   O     0.22258   0.18235   0.60626   0.00000  Uiso   1.00
O223   O     0.15702   0.13638   0.82196   0.00000  Uiso   1.00
O224   O     0.95489   0.66379   0.34672   0.00000  Uiso   1.00
N225   N     0.21170   0.34351   0.53485   0.00000  Uiso   1.00
N226   N     0.16500   0.02337   0.68857   0.00000  Uiso   1.00
N227   N     0.02095   0.68663   0.34992   0.00000  Uiso   1.00
N228   N     0.16958   0.29615   0.66921   0.00000  Uiso   1.00
N229   N     0.12288   0.97600   0.82294   0.00000  Uiso   1.00
N230   N     0.97883   0.63927   0.48429   0.00000  Uiso   1.00
C231   C     0.63626   0.18861   0.51260   0.00000  Uiso   1.00
C232   C     0.64675   0.08192   0.55156   0.00000  Uiso   1.00
C233   C     0.67904   0.01861   0.50948   0.00000  Uiso   1.00
C234   C     0.68349   0.92385   0.55632   0.00000  Uiso   1.00
C235   C     0.70389   0.76281   0.60378   0.00000  Uiso   1.00
C236   C     0.63389   0.26929   0.59394   0.00000  Uiso   1.00
C237   C     0.65535   0.36351   0.58748   0.00000  Uiso   1.00
C238   C     0.64896   0.42649   0.66998   0.00000  Uiso   1.00
C239   C     0.64936   0.55638   0.78321   0.00000  Uiso   1.00
C240   C     0.59419   0.17647   0.50060   0.00000  Uiso   1.00
C241   C     0.58228   0.19267   0.41567   0.00000  Uiso   1.00
C242   C     0.54246   0.17752   0.41960   0.00000  Uiso   1.00
C243   C     0.48123   0.16330   0.38791   0.00000  Uiso   1.00
C244   C     0.58672   0.13292   0.67061   0.00000  Uiso   1.00
C245   C     0.61985   0.05168   0.63739   0.00000  Uiso   1.00
C246   C     0.62424   0.95699   0.68430   0.00000  Uiso   1.00
C247   C     0.65653   0.89354   0.64229   0.00000  Uiso   1.00
C248   C     0.60698   0.23904   0.67976   0.00000  Uiso   1.00
C249   C     0.60055   0.30190   0.76229   0.00000  Uiso   1.00
C250   C     0.62201   0.39619   0.75596   0.00000  Uiso   1.00
C251   C     0.56728   0.14621   0.58642   0.00000  Uiso   1.00
C252   C     0.52748   0.13105   0.59049   0.00000  Uiso   1.00
C253   C     0.51551   0.14722   0.50558   0.00000  Uiso   1.00
H254   H     0.65720   0.21217   0.44579   0.00000  Uiso   1.00
H255   H     0.69986   0.04205   0.44306   0.00000  Uiso   1.00
H256   H     0.67617   0.38691   0.52105   0.00000  Uiso   1.00
H257   H     0.60310   0.21608   0.34927   0.00000  Uiso   1.00
H258   H     0.73529   0.84012   0.47791   0.00000  Uiso   1.00
H259   H     0.68533   0.56728   0.64233   0.00000  Uiso   1.00
H260   H     0.53126   0.20708   0.28010   0.00000  Uiso   1.00
H261   H     0.56578   0.10937   0.73743   0.00000  Uiso   1.00
H262   H     0.60342   0.93360   0.75071   0.00000  Uiso   1.00
H263   H     0.57973   0.27846   0.82870   0.00000  Uiso   1.00
H264   H     0.50666   0.10764   0.65692   0.00000  Uiso   1.00
H265   H     0.65702   0.75210   0.72762   0.00000  Uiso   1.00
H266   H     0.60706   0.47927   0.89203   0.00000  Uiso   1.00
H267   H     0.45299   0.11906   0.52980   0.00000  Uiso   1.00
O268   O     0.72258   0.68235   0.60626   0.00000  Uiso   1.00
O269   O     0.65702   0.63638   0.82196   0.00000  Uiso   1.00
O270   O     0.45489   0.16379   0.34672   0.00000  Uiso   1.00
N271   N     0.71170   0.84351   0.53485   0.00000  Uiso   1.00
N272   N     0.66500   0.52337   0.68857   0.00000  Uiso   1.00
N273   N     0.52095   0.18663   0.34992   0.00000  Uiso   1.00
N274   N     0.66958   0.79615   0.66921   0.00000  Uiso   1.00
N275   N     0.62288   0.47600   0.82294   0.00000  Uiso   1.00
N276   N     0.47883   0.13927   0.48429   0.00000  Uiso   1.00
C277   C     0.86374   0.68861   0.98740   0.00000  Uiso   1.00
C278   C     0.85325   0.58192   0.94844   0.00000  Uiso   1.00
C279   C     0.82096   0.51861   0.99052   0.00000  Uiso   1.00
C280   C     0.81651   0.42385   0.94368   0.00000  Uiso   1.00
C281   C     0.79611   0.26281   0.89622   0.00000  Uiso   1.00
C282   C     0.86611   0.76929   0.90606   0.00000  Uiso   1.00
C283   C     0.84465   0.86351   0.91252   0.00000  Uiso   1.00
C284   C     0.85104   0.92649   0.83002   0.00000  Uiso   1.00
C285   C     0.85064   0.05638   0.71679   0.00000  Uiso   1.00
C286   C     0.90581   0.67647   0.99940   0.00000  Uiso   1.00
C287   C     0.91772   0.69267   0.08433   0.00000  Uiso   1.00
C288   C     0.95754   0.67752   0.08040   0.00000  Uiso   1.00
C289   C     0.01877   0.66330   0.11209   0.00000  Uiso   1.00
C290   C     0.91328   0.63292   0.82939   0.00000  Uiso   1.00
C291   C     0.88015   0.55168   0.86261   0.00000  Uiso   1.00
C292   C     0.87576   0.45699   0.81570   0.00000  Uiso   1.00
C293   C     0.84347   0.39354   0.85771   0.00000  Uiso   1.00
C294   C     0.89302   0.73904   0.82024   0.00000  Uiso   1.00
C295   C     0.89945   0.80190   0.73771   0.00000  Uiso   1.00
C296   C     0.87799   0.89619   0.74404   0.00000  Uiso   1.00
C297   C     0.93272   0.64621   0.91358   0.00000  Uiso   1.00
C298   C     0.97252   0.63105   0.90951   0.00000  Uiso   1.00
C299   C     0.98449   0.64722   0.99442   0.00000  Uiso   1.00
H300   H     0.84280   0.71217   0.05421   0.00000  Uiso   1.00
H301   H     0.80014   0.54205   0.05694   0.00000  Uiso   1.00
H302   H     0.82383   0.88691   0.97895   0.00000  Uiso   1.00
H303   H     0.89690   0.71608   0.15073   0.00000  Uiso   1.00
H304   H     0.76471   0.34012   0.02209   0.00000  Uiso   1.00
H305   H     0.81467   0.06728   0.85767   0.00000  Uiso   1.00
H306   H     0.96874   0.70708   0.21990   0.00000  Uiso   1.00
H307   H     0.93422   0.60937   0.76257   0.00000  Uiso   1.00
H308   H     0.89658   0.43360   0.74929   0.00000  Uiso   1.00
H309   H     0.92027   0.77846   0.67130   0.00000  Uiso   1.00
H310   H     0.99334   0.60764   0.84308   0.00000  Uiso   1.00
H311   H     0.84298   0.25210   0.77238   0.00000  Uiso   1.00
H312   H     0.89294   0.97927   0.60797   0.00000  Uiso   1.00
H313   H     0.04701   0.61906   0.97020   0.00000  Uiso   1.00
O314   O     0.77742   0.18235   0.89374   0.00000  Uiso   1.00
O315   O     0.84298   0.13638   0.67804   0.00000  Uiso   1.00
O316   O     0.04511   0.66379   0.15328   0.00000  Uiso   1.00
N317   N     0.78830   0.34351   0.96515   0.00000  Uiso   1.00
N318   N     0.83500   0.02337   0.81143   0.00000  Uiso   1.00
N319   N     0.97905   0.68663   0.15008   0.00000  Uiso   1.00
N320   N     0.83042   0.29615   0.83079   0.00000  Uiso   1.00
N321   N     0.87712   0.97600   0.67706   0.00000  Uiso   1.00
N322   N     0.02117   0.63927   0.01571   0.00000  Uiso   1.00
C323   C     0.36374   0.18861   0.98740   0.00000  Uiso   1.00
C324   C     0.35325   0.08192   0.94844   0.00000  Uiso   1.00
C325   C     0.32096   0.01861   0.99052   0.00000  Uiso   1.00
C326   C     0.31651   0.92385   0.94368   0.00000  Uiso   1.00
C327   C     0.29611   0.76281   0.89622   0.00000  Uiso   1.00
C328   C     0.36611   0.26929   0.90606   0.00000  Uiso   1.00
C329   C     0.34465   0.36351   0.91252   0.00000  Uiso   1.00
C330   C     0.35104   0.42649   0.83002   0.00000  Uiso   1.00
C331   C     0.35064   0.55638   0.71679   0.00000  Uiso   1.00
C332   C     0.40581   0.17647   0.99940   0.00000  Uiso   1.00
C333   C     0.41772   0.19267   0.08433   0.00000  Uiso   1.00
C334   C     0.45754   0.17752   0.08040   0.00000  Uiso   1.00
C335   C     0.51877   0.16330   0.11209   0.00000  Uiso   1.00
C336   C     0.41328   0.13292   0.82939   0.00000  Uiso   1.00
C337   C     0.38015   0.05168   0.86261   0.00000  Uiso   1.00
C338   C     0.37576   0.95699   0.81570   0.00000  Uiso   1.00
C339   C     0.34347   0.89354   0.85771   0.00000  Uiso   1.00
C340   C     0.39302   0.23904   0.82024   0.00000  Uiso   1.00
C341   C     0.39945   0.30190   0.73771   0.00000  Uiso   1.00
C342   C     0.37799   0.39619   0.74404   0.00000  Uiso   1.00
C343   C     0.43272   0.14621   0.91358   0.00000  Uiso   1.00
C344   C     0.47252   0.13105   0.90951   0.00000  Uiso   1.00
C345   C     0.48449   0.14722   0.99442   0.00000  Uiso   1.00
H346   H     0.34280   0.21217   0.05421   0.00000  Uiso   1.00
H347   H     0.30014   0.04205   0.05694   0.00000  Uiso   1.00
H348   H     0.32383   0.38691   0.97895   0.00000  Uiso   1.00
H349   H     0.39690   0.21608   0.15073   0.00000  Uiso   1.00
H350   H     0.26471   0.84012   0.02209   0.00000  Uiso   1.00
H351   H     0.31467   0.56728   0.85767   0.00000  Uiso   1.00
H352   H     0.46874   0.20708   0.21990   0.00000  Uiso   1.00
H353   H     0.43422   0.10937   0.76257   0.00000  Uiso   1.00
H354   H     0.39658   0.93360   0.74929   0.00000  Uiso   1.00
H355   H     0.42027   0.27846   0.67130   0.00000  Uiso   1.00
H356   H     0.49334   0.10764   0.84308   0.00000  Uiso   1.00
H357   H     0.34298   0.75210   0.77238   0.00000  Uiso   1.00
H358   H     0.39294   0.47927   0.60797   0.00000  Uiso   1.00
H359   H     0.54701   0.11906   0.97020   0.00000  Uiso   1.00
O360   O     0.27742   0.68235   0.89374   0.00000  Uiso   1.00
O361   O     0.34298   0.63638   0.67804   0.00000  Uiso   1.00
O362   O     0.54511   0.16379   0.15328   0.00000  Uiso   1.00
N363   N     0.28830   0.84351   0.96515   0.00000  Uiso   1.00
N364   N     0.33500   0.52337   0.81143   0.00000  Uiso   1.00
N365   N     0.47905   0.18663   0.15008   0.00000  Uiso   1.00
N366   N     0.33042   0.79615   0.83079   0.00000  Uiso   1.00
N367   N     0.37712   0.47600   0.67706   0.00000  Uiso   1.00
N368   N     0.52117   0.13927   0.01571   0.00000  Uiso   1.00
