data_job_03766
_audit_creation_date              2018-12-19
_audit_creation_method            'Materials Studio'
_symmetry_space_group_name_H-M    'P1'
_symmetry_Int_Tables_number       1
_symmetry_cell_setting            triclinic
loop_
_symmetry_equiv_pos_as_xyz
  x,y,z
_cell_length_a                    12.5048
_cell_length_b                    10.8447
_cell_length_c                    30.6401
_cell_angle_alpha                 90.0000
_cell_angle_beta                  67.3484
_cell_angle_gamma                 90.0000
loop_
_atom_site_label
_atom_site_type_symbol
_atom_site_fract_x
_atom_site_fract_y
_atom_site_fract_z
_atom_site_U_iso_or_equiv
_atom_site_adp_type
_atom_site_occupancy
C1     C     0.73465   0.42513   0.67568   0.00000  Uiso   1.00
C2     C     0.71812   0.28578   0.68066   0.00000  Uiso   1.00
C3     C     0.69561   0.21853   0.72179   0.00000  Uiso   1.00
C4     C     0.68333   0.09186   0.71906   0.00000  Uiso   1.00
C5     C     0.65621   0.88419   0.73324   0.00000  Uiso   1.00
C6     C     0.85283   0.44556   0.63604   0.00000  Uiso   1.00
C7     C     0.94357   0.51267   0.63965   0.00000  Uiso   1.00
C8     C     0.04468   0.52051   0.59936   0.00000  Uiso   1.00
C9     C     0.22667   0.56098   0.54425   0.00000  Uiso   1.00
C10    C     0.64550   0.47183   0.65689   0.00000  Uiso   1.00
C11    C     0.56194   0.56105   0.67802   0.00000  Uiso   1.00
C12    C     0.48851   0.59103   0.65527   0.00000  Uiso   1.00
C13    C     0.34859   0.67228   0.63253   0.00000  Uiso   1.00
C14    C     0.75286   0.31976   0.59770   0.00000  Uiso   1.00
C15    C     0.72801   0.22855   0.63831   0.00000  Uiso   1.00
C16    C     0.71575   0.10195   0.63552   0.00000  Uiso   1.00
C17    C     0.69323   0.03452   0.67663   0.00000  Uiso   1.00
C18    C     0.86272   0.38833   0.59369   0.00000  Uiso   1.00
C19    C     0.96371   0.39609   0.55338   0.00000  Uiso   1.00
C20    C     0.05459   0.46318   0.55692   0.00000  Uiso   1.00
C21    C     0.65538   0.41460   0.61453   0.00000  Uiso   1.00
C22    C     0.58208   0.44446   0.59174   0.00000  Uiso   1.00
C23    C     0.49841   0.53369   0.61283   0.00000  Uiso   1.00
H24    H     0.72696   0.46969   0.70865   0.00000  Uiso   1.00
H25    H     0.68798   0.26286   0.75456   0.00000  Uiso   1.00
H26    H     0.93589   0.55696   0.67243   0.00000  Uiso   1.00
H27    H     0.55431   0.60532   0.71079   0.00000  Uiso   1.00
H28    H     0.64916   0.00830   0.78678   0.00000  Uiso   1.00
H29    H     0.17188   0.62846   0.61360   0.00000  Uiso   1.00
H30    H     0.36725   0.73045   0.69449   0.00000  Uiso   1.00
H31    H     0.76056   0.27520   0.56472   0.00000  Uiso   1.00
H32    H     0.72341   0.05768   0.60273   0.00000  Uiso   1.00
H33    H     0.97133   0.35179   0.52060   0.00000  Uiso   1.00
H34    H     0.58975   0.40015   0.55896   0.00000  Uiso   1.00
H35    H     0.67792   0.84177   0.66355   0.00000  Uiso   1.00
H36    H     0.20065   0.46194   0.49037   0.00000  Uiso   1.00
H37    H     0.39602   0.56392   0.57126   0.00000  Uiso   1.00
O38    O     0.63854   0.78545   0.75276   0.00000  Uiso   1.00
O39    O     0.32432   0.59911   0.52556   0.00000  Uiso   1.00
O40    O     0.26867   0.73290   0.63169   0.00000  Uiso   1.00
N41    N     0.66100   0.99896   0.75256   0.00000  Uiso   1.00
N42    N     0.14973   0.57876   0.59065   0.00000  Uiso   1.00
N43    N     0.39749   0.67413   0.66627   0.00000  Uiso   1.00
N44    N     0.67648   0.90935   0.68625   0.00000  Uiso   1.00
N45    N     0.16520   0.48915   0.52434   0.00000  Uiso   1.00
N46    N     0.41296   0.58452   0.59996   0.00000  Uiso   1.00
C47    C     0.26535   0.42513   0.82432   0.00000  Uiso   1.00
C48    C     0.28188   0.28578   0.81934   0.00000  Uiso   1.00
C49    C     0.30439   0.21853   0.77821   0.00000  Uiso   1.00
C50    C     0.31667   0.09186   0.78094   0.00000  Uiso   1.00
C51    C     0.34379   0.88419   0.76676   0.00000  Uiso   1.00
C52    C     0.14717   0.44556   0.86396   0.00000  Uiso   1.00
C53    C     0.05643   0.51267   0.86035   0.00000  Uiso   1.00
C54    C     0.95532   0.52051   0.90064   0.00000  Uiso   1.00
C55    C     0.77333   0.56098   0.95575   0.00000  Uiso   1.00
C56    C     0.35450   0.47183   0.84311   0.00000  Uiso   1.00
C57    C     0.43806   0.56105   0.82198   0.00000  Uiso   1.00
C58    C     0.51149   0.59103   0.84473   0.00000  Uiso   1.00
C59    C     0.65141   0.67228   0.86747   0.00000  Uiso   1.00
C60    C     0.24714   0.31976   0.90230   0.00000  Uiso   1.00
C61    C     0.27199   0.22855   0.86169   0.00000  Uiso   1.00
C62    C     0.28425   0.10195   0.86448   0.00000  Uiso   1.00
C63    C     0.30677   0.03452   0.82337   0.00000  Uiso   1.00
C64    C     0.13728   0.38833   0.90631   0.00000  Uiso   1.00
C65    C     0.03629   0.39609   0.94662   0.00000  Uiso   1.00
C66    C     0.94541   0.46318   0.94308   0.00000  Uiso   1.00
C67    C     0.34462   0.41460   0.88547   0.00000  Uiso   1.00
C68    C     0.41792   0.44446   0.90826   0.00000  Uiso   1.00
C69    C     0.50159   0.53369   0.88717   0.00000  Uiso   1.00
H70    H     0.27304   0.46969   0.79135   0.00000  Uiso   1.00
H71    H     0.31202   0.26286   0.74544   0.00000  Uiso   1.00
H72    H     0.06411   0.55696   0.82757   0.00000  Uiso   1.00
H73    H     0.44569   0.60532   0.78921   0.00000  Uiso   1.00
H74    H     0.35084   0.00830   0.71322   0.00000  Uiso   1.00
H75    H     0.82812   0.62846   0.88640   0.00000  Uiso   1.00
H76    H     0.63275   0.73045   0.80551   0.00000  Uiso   1.00
H77    H     0.23944   0.27520   0.93528   0.00000  Uiso   1.00
H78    H     0.27659   0.05768   0.89727   0.00000  Uiso   1.00
H79    H     0.02867   0.35179   0.97940   0.00000  Uiso   1.00
H80    H     0.41025   0.40015   0.94104   0.00000  Uiso   1.00
H81    H     0.32208   0.84177   0.83645   0.00000  Uiso   1.00
H82    H     0.79935   0.46194   0.00963   0.00000  Uiso   1.00
H83    H     0.60398   0.56392   0.92874   0.00000  Uiso   1.00
O84    O     0.36146   0.78545   0.74724   0.00000  Uiso   1.00
O85    O     0.67568   0.59911   0.97444   0.00000  Uiso   1.00
O86    O     0.73133   0.73290   0.86831   0.00000  Uiso   1.00
N87    N     0.33900   0.99896   0.74744   0.00000  Uiso   1.00
N88    N     0.85027   0.57876   0.90935   0.00000  Uiso   1.00
N89    N     0.60251   0.67413   0.83373   0.00000  Uiso   1.00
N90    N     0.32352   0.90935   0.81375   0.00000  Uiso   1.00
N91    N     0.83480   0.48915   0.97566   0.00000  Uiso   1.00
N92    N     0.58704   0.58452   0.90004   0.00000  Uiso   1.00
C93    C     0.26535   0.57487   0.32432   0.00000  Uiso   1.00
C94    C     0.28188   0.71422   0.31934   0.00000  Uiso   1.00
C95    C     0.30439   0.78147   0.27821   0.00000  Uiso   1.00
C96    C     0.31667   0.90814   0.28094   0.00000  Uiso   1.00
C97    C     0.34379   0.11581   0.26676   0.00000  Uiso   1.00
C98    C     0.14717   0.55444   0.36396   0.00000  Uiso   1.00
C99    C     0.05643   0.48733   0.36035   0.00000  Uiso   1.00
C100   C     0.95532   0.47949   0.40064   0.00000  Uiso   1.00
C101   C     0.77333   0.43902   0.45575   0.00000  Uiso   1.00
C102   C     0.35450   0.52817   0.34311   0.00000  Uiso   1.00
C103   C     0.43806   0.43895   0.32198   0.00000  Uiso   1.00
C104   C     0.51149   0.40897   0.34473   0.00000  Uiso   1.00
C105   C     0.65141   0.32772   0.36747   0.00000  Uiso   1.00
C106   C     0.24714   0.68024   0.40230   0.00000  Uiso   1.00
C107   C     0.27199   0.77145   0.36169   0.00000  Uiso   1.00
C108   C     0.28425   0.89805   0.36448   0.00000  Uiso   1.00
C109   C     0.30677   0.96548   0.32337   0.00000  Uiso   1.00
C110   C     0.13728   0.61167   0.40631   0.00000  Uiso   1.00
C111   C     0.03629   0.60391   0.44662   0.00000  Uiso   1.00
C112   C     0.94541   0.53682   0.44308   0.00000  Uiso   1.00
C113   C     0.34462   0.58540   0.38547   0.00000  Uiso   1.00
C114   C     0.41792   0.55554   0.40826   0.00000  Uiso   1.00
C115   C     0.50159   0.46631   0.38717   0.00000  Uiso   1.00
H116   H     0.27304   0.53031   0.29135   0.00000  Uiso   1.00
H117   H     0.31202   0.73714   0.24544   0.00000  Uiso   1.00
H118   H     0.06411   0.44304   0.32757   0.00000  Uiso   1.00
H119   H     0.44569   0.39468   0.28921   0.00000  Uiso   1.00
H120   H     0.35084   0.99170   0.21322   0.00000  Uiso   1.00
H121   H     0.82812   0.37154   0.38640   0.00000  Uiso   1.00
H122   H     0.63275   0.26955   0.30551   0.00000  Uiso   1.00
H123   H     0.23944   0.72480   0.43528   0.00000  Uiso   1.00
H124   H     0.27659   0.94232   0.39727   0.00000  Uiso   1.00
H125   H     0.02867   0.64821   0.47940   0.00000  Uiso   1.00
H126   H     0.41025   0.59985   0.44104   0.00000  Uiso   1.00
H127   H     0.32208   0.15823   0.33645   0.00000  Uiso   1.00
H128   H     0.79935   0.53806   0.50963   0.00000  Uiso   1.00
H129   H     0.60398   0.43608   0.42874   0.00000  Uiso   1.00
O130   O     0.36146   0.21455   0.24724   0.00000  Uiso   1.00
O131   O     0.67568   0.40089   0.47444   0.00000  Uiso   1.00
O132   O     0.73133   0.26710   0.36831   0.00000  Uiso   1.00
N133   N     0.33900   0.00104   0.24744   0.00000  Uiso   1.00
N134   N     0.85027   0.42124   0.40935   0.00000  Uiso   1.00
N135   N     0.60251   0.32587   0.33373   0.00000  Uiso   1.00
N136   N     0.32352   0.09065   0.31375   0.00000  Uiso   1.00
N137   N     0.83480   0.51085   0.47566   0.00000  Uiso   1.00
N138   N     0.58704   0.41548   0.40004   0.00000  Uiso   1.00
C139   C     0.73465   0.57487   0.17568   0.00000  Uiso   1.00
C140   C     0.71812   0.71422   0.18066   0.00000  Uiso   1.00
C141   C     0.69561   0.78147   0.22179   0.00000  Uiso   1.00
C142   C     0.68333   0.90814   0.21906   0.00000  Uiso   1.00
C143   C     0.65621   0.11581   0.23324   0.00000  Uiso   1.00
C144   C     0.85283   0.55444   0.13604   0.00000  Uiso   1.00
C145   C     0.94357   0.48733   0.13965   0.00000  Uiso   1.00
C146   C     0.04468   0.47949   0.09936   0.00000  Uiso   1.00
C147   C     0.22667   0.43902   0.04425   0.00000  Uiso   1.00
C148   C     0.64550   0.52817   0.15689   0.00000  Uiso   1.00
C149   C     0.56194   0.43895   0.17802   0.00000  Uiso   1.00
C150   C     0.48851   0.40897   0.15527   0.00000  Uiso   1.00
C151   C     0.34859   0.32772   0.13253   0.00000  Uiso   1.00
C152   C     0.75286   0.68024   0.09770   0.00000  Uiso   1.00
C153   C     0.72801   0.77145   0.13831   0.00000  Uiso   1.00
C154   C     0.71575   0.89805   0.13552   0.00000  Uiso   1.00
C155   C     0.69323   0.96548   0.17663   0.00000  Uiso   1.00
C156   C     0.86272   0.61167   0.09369   0.00000  Uiso   1.00
C157   C     0.96371   0.60391   0.05338   0.00000  Uiso   1.00
C158   C     0.05459   0.53682   0.05692   0.00000  Uiso   1.00
C159   C     0.65538   0.58540   0.11453   0.00000  Uiso   1.00
C160   C     0.58208   0.55554   0.09174   0.00000  Uiso   1.00
C161   C     0.49841   0.46631   0.11283   0.00000  Uiso   1.00
H162   H     0.72696   0.53031   0.20865   0.00000  Uiso   1.00
H163   H     0.68798   0.73714   0.25456   0.00000  Uiso   1.00
H164   H     0.93589   0.44304   0.17243   0.00000  Uiso   1.00
H165   H     0.55431   0.39468   0.21079   0.00000  Uiso   1.00
H166   H     0.64916   0.99170   0.28678   0.00000  Uiso   1.00
H167   H     0.17188   0.37154   0.11360   0.00000  Uiso   1.00
H168   H     0.36725   0.26955   0.19449   0.00000  Uiso   1.00
H169   H     0.76056   0.72480   0.06472   0.00000  Uiso   1.00
H170   H     0.72341   0.94232   0.10273   0.00000  Uiso   1.00
H171   H     0.97133   0.64821   0.02060   0.00000  Uiso   1.00
H172   H     0.58975   0.59985   0.05896   0.00000  Uiso   1.00
H173   H     0.67792   0.15823   0.16355   0.00000  Uiso   1.00
H174   H     0.20065   0.53806   0.99037   0.00000  Uiso   1.00
H175   H     0.39602   0.43608   0.07126   0.00000  Uiso   1.00
O176   O     0.63854   0.21455   0.25276   0.00000  Uiso   1.00
O177   O     0.32432   0.40089   0.02556   0.00000  Uiso   1.00
O178   O     0.26867   0.26710   0.13169   0.00000  Uiso   1.00
N179   N     0.66100   0.00104   0.25256   0.00000  Uiso   1.00
N180   N     0.14973   0.42124   0.09065   0.00000  Uiso   1.00
N181   N     0.39749   0.32587   0.16627   0.00000  Uiso   1.00
N182   N     0.67648   0.09065   0.18625   0.00000  Uiso   1.00
N183   N     0.16520   0.51085   0.02434   0.00000  Uiso   1.00
N184   N     0.41296   0.41548   0.09996   0.00000  Uiso   1.00
