data_job_00468
_audit_creation_date              2018-12-19
_audit_creation_method            'Materials Studio'
_symmetry_space_group_name_H-M    'P1'
_symmetry_Int_Tables_number       1
_symmetry_cell_setting            triclinic
loop_
_symmetry_equiv_pos_as_xyz
  x,y,z
_cell_length_a                    32.6007
_cell_length_b                    7.8416
_cell_length_c                    18.5273
_cell_angle_alpha                 90.0000
_cell_angle_beta                  68.1693
_cell_angle_gamma                 90.0000
loop_
_atom_site_label
_atom_site_type_symbol
_atom_site_fract_x
_atom_site_fract_y
_atom_site_fract_z
_atom_site_U_iso_or_equiv
_atom_site_adp_type
_atom_site_occupancy
C1     C     0.88452   0.08562   0.62323   0.00000  Uiso   1.00
C2     C     0.84509   0.16072   0.68922   0.00000  Uiso   1.00
C3     C     0.81194   0.06813   0.74471   0.00000  Uiso   1.00
C4     C     0.77873   0.16054   0.80026   0.00000  Uiso   1.00
C5     C     0.71749   0.24999   0.90272   0.00000  Uiso   1.00
C6     C     0.88292   0.16072   0.54840   0.00000  Uiso   1.00
C7     C     0.88158   0.06811   0.48547   0.00000  Uiso   1.00
C8     C     0.88023   0.16053   0.42248   0.00000  Uiso   1.00
C9     C     0.87776   0.24996   0.30627   0.00000  Uiso   1.00
C10    C     0.92555   0.16076   0.63205   0.00000  Uiso   1.00
C11    C     0.96006   0.06818   0.63944   0.00000  Uiso   1.00
C12    C     0.99460   0.16064   0.64685   0.00000  Uiso   1.00
C13    C     0.05832   0.25013   0.66052   0.00000  Uiso   1.00
C14    C     0.88451   0.41442   0.62322   0.00000  Uiso   1.00
C15    C     0.84509   0.33931   0.68921   0.00000  Uiso   1.00
C16    C     0.81193   0.43190   0.74470   0.00000  Uiso   1.00
C17    C     0.77873   0.33945   0.80026   0.00000  Uiso   1.00
C18    C     0.88291   0.33930   0.54839   0.00000  Uiso   1.00
C19    C     0.88157   0.43188   0.48546   0.00000  Uiso   1.00
C20    C     0.88023   0.33944   0.42247   0.00000  Uiso   1.00
C21    C     0.92554   0.33935   0.63204   0.00000  Uiso   1.00
C22    C     0.96005   0.43196   0.63943   0.00000  Uiso   1.00
C23    C     0.99460   0.33955   0.64684   0.00000  Uiso   1.00
H24    H     0.88453   0.94659   0.62322   0.00000  Uiso   1.00
H25    H     0.81195   0.92992   0.74469   0.00000  Uiso   1.00
H26    H     0.88159   0.92990   0.48549   0.00000  Uiso   1.00
H27    H     0.96005   0.92999   0.63944   0.00000  Uiso   1.00
H28    H     0.73147   0.99019   0.87934   0.00000  Uiso   1.00
H29    H     0.87833   0.99016   0.33280   0.00000  Uiso   1.00
H30    H     0.04378   0.99033   0.65742   0.00000  Uiso   1.00
H31    H     0.88451   0.55347   0.62321   0.00000  Uiso   1.00
H32    H     0.81193   0.57010   0.74468   0.00000  Uiso   1.00
H33    H     0.88157   0.57008   0.48548   0.00000  Uiso   1.00
H34    H     0.96003   0.57016   0.63943   0.00000  Uiso   1.00
H35    H     0.73146   0.50979   0.87933   0.00000  Uiso   1.00
H36    H     0.87831   0.50976   0.33278   0.00000  Uiso   1.00
H37    H     0.04377   0.50993   0.65741   0.00000  Uiso   1.00
O38    O     0.68371   0.24999   0.95922   0.00000  Uiso   1.00
O39    O     0.87639   0.24994   0.24218   0.00000  Uiso   1.00
O40    O     0.09346   0.25016   0.66808   0.00000  Uiso   1.00
N41    N     0.74144   0.11020   0.86267   0.00000  Uiso   1.00
N42    N     0.87873   0.11017   0.35170   0.00000  Uiso   1.00
N43    N     0.03342   0.11033   0.65517   0.00000  Uiso   1.00
N44    N     0.74143   0.38979   0.86267   0.00000  Uiso   1.00
N45    N     0.87872   0.38976   0.35169   0.00000  Uiso   1.00
N46    N     0.03341   0.38992   0.65517   0.00000  Uiso   1.00
C47    C     0.38452   0.58562   0.62323   0.00000  Uiso   1.00
C48    C     0.34509   0.66072   0.68922   0.00000  Uiso   1.00
C49    C     0.31194   0.56813   0.74471   0.00000  Uiso   1.00
C50    C     0.27873   0.66054   0.80026   0.00000  Uiso   1.00
C51    C     0.21749   0.74999   0.90272   0.00000  Uiso   1.00
C52    C     0.38292   0.66072   0.54840   0.00000  Uiso   1.00
C53    C     0.38158   0.56811   0.48547   0.00000  Uiso   1.00
C54    C     0.38023   0.66053   0.42248   0.00000  Uiso   1.00
C55    C     0.37776   0.74996   0.30627   0.00000  Uiso   1.00
C56    C     0.42555   0.66076   0.63205   0.00000  Uiso   1.00
C57    C     0.46006   0.56818   0.63944   0.00000  Uiso   1.00
C58    C     0.49460   0.66064   0.64685   0.00000  Uiso   1.00
C59    C     0.55832   0.75013   0.66052   0.00000  Uiso   1.00
C60    C     0.38451   0.91442   0.62322   0.00000  Uiso   1.00
C61    C     0.34509   0.83931   0.68921   0.00000  Uiso   1.00
C62    C     0.31193   0.93190   0.74470   0.00000  Uiso   1.00
C63    C     0.27873   0.83945   0.80026   0.00000  Uiso   1.00
C64    C     0.38291   0.83930   0.54839   0.00000  Uiso   1.00
C65    C     0.38157   0.93188   0.48546   0.00000  Uiso   1.00
C66    C     0.38023   0.83944   0.42247   0.00000  Uiso   1.00
C67    C     0.42554   0.83935   0.63204   0.00000  Uiso   1.00
C68    C     0.46005   0.93196   0.63943   0.00000  Uiso   1.00
C69    C     0.49460   0.83955   0.64684   0.00000  Uiso   1.00
H70    H     0.38453   0.44659   0.62322   0.00000  Uiso   1.00
H71    H     0.31195   0.42992   0.74469   0.00000  Uiso   1.00
H72    H     0.38159   0.42990   0.48549   0.00000  Uiso   1.00
H73    H     0.46005   0.42999   0.63944   0.00000  Uiso   1.00
H74    H     0.23147   0.49019   0.87934   0.00000  Uiso   1.00
H75    H     0.37833   0.49016   0.33280   0.00000  Uiso   1.00
H76    H     0.54378   0.49033   0.65742   0.00000  Uiso   1.00
H77    H     0.38451   0.05347   0.62321   0.00000  Uiso   1.00
H78    H     0.31193   0.07010   0.74468   0.00000  Uiso   1.00
H79    H     0.38157   0.07008   0.48548   0.00000  Uiso   1.00
H80    H     0.46003   0.07016   0.63943   0.00000  Uiso   1.00
H81    H     0.23146   0.00979   0.87933   0.00000  Uiso   1.00
H82    H     0.37831   0.00976   0.33278   0.00000  Uiso   1.00
H83    H     0.54377   0.00993   0.65741   0.00000  Uiso   1.00
O84    O     0.18371   0.74999   0.95922   0.00000  Uiso   1.00
O85    O     0.37639   0.74994   0.24218   0.00000  Uiso   1.00
O86    O     0.59346   0.75016   0.66808   0.00000  Uiso   1.00
N87    N     0.24144   0.61020   0.86267   0.00000  Uiso   1.00
N88    N     0.37873   0.61017   0.35170   0.00000  Uiso   1.00
N89    N     0.53342   0.61033   0.65517   0.00000  Uiso   1.00
N90    N     0.24143   0.88979   0.86267   0.00000  Uiso   1.00
N91    N     0.37872   0.88976   0.35169   0.00000  Uiso   1.00
N92    N     0.53341   0.88992   0.65517   0.00000  Uiso   1.00
C93    C     0.11548   0.08562   0.87677   0.00000  Uiso   1.00
C94    C     0.15491   0.16072   0.81078   0.00000  Uiso   1.00
C95    C     0.18806   0.06813   0.75529   0.00000  Uiso   1.00
C96    C     0.22127   0.16054   0.69974   0.00000  Uiso   1.00
C97    C     0.28251   0.24999   0.59728   0.00000  Uiso   1.00
C98    C     0.11708   0.16072   0.95160   0.00000  Uiso   1.00
C99    C     0.11842   0.06811   0.01453   0.00000  Uiso   1.00
C100   C     0.11977   0.16053   0.07752   0.00000  Uiso   1.00
C101   C     0.12224   0.24996   0.19373   0.00000  Uiso   1.00
C102   C     0.07445   0.16076   0.86795   0.00000  Uiso   1.00
C103   C     0.03994   0.06818   0.86056   0.00000  Uiso   1.00
C104   C     0.00540   0.16064   0.85315   0.00000  Uiso   1.00
C105   C     0.94168   0.25013   0.83948   0.00000  Uiso   1.00
C106   C     0.11549   0.41442   0.87678   0.00000  Uiso   1.00
C107   C     0.15491   0.33931   0.81079   0.00000  Uiso   1.00
C108   C     0.18807   0.43190   0.75530   0.00000  Uiso   1.00
C109   C     0.22127   0.33945   0.69974   0.00000  Uiso   1.00
C110   C     0.11709   0.33930   0.95161   0.00000  Uiso   1.00
C111   C     0.11843   0.43188   0.01454   0.00000  Uiso   1.00
C112   C     0.11977   0.33944   0.07753   0.00000  Uiso   1.00
C113   C     0.07446   0.33935   0.86796   0.00000  Uiso   1.00
C114   C     0.03995   0.43196   0.86057   0.00000  Uiso   1.00
C115   C     0.00540   0.33955   0.85316   0.00000  Uiso   1.00
H116   H     0.11547   0.94659   0.87678   0.00000  Uiso   1.00
H117   H     0.18805   0.92992   0.75531   0.00000  Uiso   1.00
H118   H     0.11841   0.92990   0.01451   0.00000  Uiso   1.00
H119   H     0.03995   0.92999   0.86056   0.00000  Uiso   1.00
H120   H     0.26853   0.99019   0.62066   0.00000  Uiso   1.00
H121   H     0.12167   0.99016   0.16720   0.00000  Uiso   1.00
H122   H     0.95622   0.99033   0.84258   0.00000  Uiso   1.00
H123   H     0.11549   0.55347   0.87679   0.00000  Uiso   1.00
H124   H     0.18807   0.57010   0.75532   0.00000  Uiso   1.00
H125   H     0.11843   0.57008   0.01452   0.00000  Uiso   1.00
H126   H     0.03997   0.57016   0.86057   0.00000  Uiso   1.00
H127   H     0.26854   0.50979   0.62067   0.00000  Uiso   1.00
H128   H     0.12169   0.50976   0.16722   0.00000  Uiso   1.00
H129   H     0.95623   0.50993   0.84259   0.00000  Uiso   1.00
O130   O     0.31629   0.24999   0.54078   0.00000  Uiso   1.00
O131   O     0.12361   0.24994   0.25782   0.00000  Uiso   1.00
O132   O     0.90654   0.25016   0.83192   0.00000  Uiso   1.00
N133   N     0.25856   0.11020   0.63733   0.00000  Uiso   1.00
N134   N     0.12127   0.11017   0.14830   0.00000  Uiso   1.00
N135   N     0.96658   0.11033   0.84483   0.00000  Uiso   1.00
N136   N     0.25857   0.38979   0.63733   0.00000  Uiso   1.00
N137   N     0.12128   0.38976   0.14831   0.00000  Uiso   1.00
N138   N     0.96659   0.38992   0.84483   0.00000  Uiso   1.00
C139   C     0.61548   0.58562   0.87677   0.00000  Uiso   1.00
C140   C     0.65491   0.66072   0.81078   0.00000  Uiso   1.00
C141   C     0.68806   0.56813   0.75529   0.00000  Uiso   1.00
C142   C     0.72127   0.66054   0.69974   0.00000  Uiso   1.00
C143   C     0.78251   0.74999   0.59728   0.00000  Uiso   1.00
C144   C     0.61708   0.66072   0.95160   0.00000  Uiso   1.00
C145   C     0.61842   0.56811   0.01453   0.00000  Uiso   1.00
C146   C     0.61977   0.66053   0.07752   0.00000  Uiso   1.00
C147   C     0.62224   0.74996   0.19373   0.00000  Uiso   1.00
C148   C     0.57445   0.66076   0.86795   0.00000  Uiso   1.00
C149   C     0.53994   0.56818   0.86056   0.00000  Uiso   1.00
C150   C     0.50540   0.66064   0.85315   0.00000  Uiso   1.00
C151   C     0.44168   0.75013   0.83948   0.00000  Uiso   1.00
C152   C     0.61549   0.91442   0.87678   0.00000  Uiso   1.00
C153   C     0.65491   0.83931   0.81079   0.00000  Uiso   1.00
C154   C     0.68807   0.93190   0.75530   0.00000  Uiso   1.00
C155   C     0.72127   0.83945   0.69974   0.00000  Uiso   1.00
C156   C     0.61709   0.83930   0.95161   0.00000  Uiso   1.00
C157   C     0.61843   0.93188   0.01454   0.00000  Uiso   1.00
C158   C     0.61977   0.83944   0.07753   0.00000  Uiso   1.00
C159   C     0.57446   0.83935   0.86796   0.00000  Uiso   1.00
C160   C     0.53995   0.93196   0.86057   0.00000  Uiso   1.00
C161   C     0.50540   0.83955   0.85316   0.00000  Uiso   1.00
H162   H     0.61547   0.44659   0.87678   0.00000  Uiso   1.00
H163   H     0.68805   0.42992   0.75531   0.00000  Uiso   1.00
H164   H     0.61841   0.42990   0.01451   0.00000  Uiso   1.00
H165   H     0.53995   0.42999   0.86056   0.00000  Uiso   1.00
H166   H     0.76853   0.49019   0.62066   0.00000  Uiso   1.00
H167   H     0.62167   0.49016   0.16720   0.00000  Uiso   1.00
H168   H     0.45622   0.49033   0.84258   0.00000  Uiso   1.00
H169   H     0.61549   0.05347   0.87679   0.00000  Uiso   1.00
H170   H     0.68807   0.07010   0.75532   0.00000  Uiso   1.00
H171   H     0.61843   0.07008   0.01452   0.00000  Uiso   1.00
H172   H     0.53997   0.07016   0.86057   0.00000  Uiso   1.00
H173   H     0.76854   0.00979   0.62067   0.00000  Uiso   1.00
H174   H     0.62169   0.00976   0.16722   0.00000  Uiso   1.00
H175   H     0.45623   0.00993   0.84259   0.00000  Uiso   1.00
O176   O     0.81629   0.74999   0.54078   0.00000  Uiso   1.00
O177   O     0.62361   0.74994   0.25782   0.00000  Uiso   1.00
O178   O     0.40654   0.75016   0.83192   0.00000  Uiso   1.00
N179   N     0.75856   0.61020   0.63733   0.00000  Uiso   1.00
N180   N     0.62127   0.61017   0.14830   0.00000  Uiso   1.00
N181   N     0.46658   0.61033   0.84483   0.00000  Uiso   1.00
N182   N     0.75857   0.88979   0.63733   0.00000  Uiso   1.00
N183   N     0.62128   0.88976   0.14831   0.00000  Uiso   1.00
N184   N     0.46659   0.88992   0.84483   0.00000  Uiso   1.00
C185   C     0.11548   0.91438   0.37677   0.00000  Uiso   1.00
C186   C     0.15491   0.83928   0.31078   0.00000  Uiso   1.00
C187   C     0.18806   0.93187   0.25529   0.00000  Uiso   1.00
C188   C     0.22127   0.83946   0.19974   0.00000  Uiso   1.00
C189   C     0.28251   0.75001   0.09728   0.00000  Uiso   1.00
C190   C     0.11708   0.83928   0.45160   0.00000  Uiso   1.00
C191   C     0.11842   0.93189   0.51453   0.00000  Uiso   1.00
C192   C     0.11977   0.83947   0.57752   0.00000  Uiso   1.00
C193   C     0.12224   0.75004   0.69373   0.00000  Uiso   1.00
C194   C     0.07445   0.83924   0.36795   0.00000  Uiso   1.00
C195   C     0.03994   0.93182   0.36056   0.00000  Uiso   1.00
C196   C     0.00540   0.83936   0.35315   0.00000  Uiso   1.00
C197   C     0.94168   0.74987   0.33948   0.00000  Uiso   1.00
C198   C     0.11549   0.58558   0.37678   0.00000  Uiso   1.00
C199   C     0.15491   0.66069   0.31079   0.00000  Uiso   1.00
C200   C     0.18807   0.56810   0.25530   0.00000  Uiso   1.00
C201   C     0.22127   0.66055   0.19974   0.00000  Uiso   1.00
C202   C     0.11709   0.66070   0.45161   0.00000  Uiso   1.00
C203   C     0.11843   0.56812   0.51454   0.00000  Uiso   1.00
C204   C     0.11977   0.66056   0.57753   0.00000  Uiso   1.00
C205   C     0.07446   0.66065   0.36796   0.00000  Uiso   1.00
C206   C     0.03995   0.56804   0.36057   0.00000  Uiso   1.00
C207   C     0.00540   0.66045   0.35316   0.00000  Uiso   1.00
H208   H     0.11547   0.05341   0.37678   0.00000  Uiso   1.00
H209   H     0.18805   0.07008   0.25531   0.00000  Uiso   1.00
H210   H     0.11841   0.07010   0.51451   0.00000  Uiso   1.00
H211   H     0.03995   0.07001   0.36056   0.00000  Uiso   1.00
H212   H     0.26853   0.00981   0.12066   0.00000  Uiso   1.00
H213   H     0.12167   0.00984   0.66720   0.00000  Uiso   1.00
H214   H     0.95622   0.00967   0.34258   0.00000  Uiso   1.00
H215   H     0.11549   0.44653   0.37679   0.00000  Uiso   1.00
H216   H     0.18807   0.42990   0.25532   0.00000  Uiso   1.00
H217   H     0.11843   0.42992   0.51452   0.00000  Uiso   1.00
H218   H     0.03997   0.42984   0.36057   0.00000  Uiso   1.00
H219   H     0.26854   0.49021   0.12067   0.00000  Uiso   1.00
H220   H     0.12169   0.49024   0.66722   0.00000  Uiso   1.00
H221   H     0.95623   0.49007   0.34259   0.00000  Uiso   1.00
O222   O     0.31629   0.75001   0.04078   0.00000  Uiso   1.00
O223   O     0.12361   0.75006   0.75782   0.00000  Uiso   1.00
O224   O     0.90654   0.74984   0.33192   0.00000  Uiso   1.00
N225   N     0.25856   0.88980   0.13733   0.00000  Uiso   1.00
N226   N     0.12127   0.88983   0.64830   0.00000  Uiso   1.00
N227   N     0.96658   0.88967   0.34483   0.00000  Uiso   1.00
N228   N     0.25857   0.61021   0.13733   0.00000  Uiso   1.00
N229   N     0.12128   0.61024   0.64831   0.00000  Uiso   1.00
N230   N     0.96659   0.61008   0.34483   0.00000  Uiso   1.00
C231   C     0.61548   0.41438   0.37677   0.00000  Uiso   1.00
C232   C     0.65491   0.33928   0.31078   0.00000  Uiso   1.00
C233   C     0.68806   0.43187   0.25529   0.00000  Uiso   1.00
C234   C     0.72127   0.33946   0.19974   0.00000  Uiso   1.00
C235   C     0.78251   0.25001   0.09728   0.00000  Uiso   1.00
C236   C     0.61708   0.33928   0.45160   0.00000  Uiso   1.00
C237   C     0.61842   0.43189   0.51453   0.00000  Uiso   1.00
C238   C     0.61977   0.33947   0.57752   0.00000  Uiso   1.00
C239   C     0.62224   0.25004   0.69373   0.00000  Uiso   1.00
C240   C     0.57445   0.33924   0.36795   0.00000  Uiso   1.00
C241   C     0.53994   0.43182   0.36056   0.00000  Uiso   1.00
C242   C     0.50540   0.33936   0.35315   0.00000  Uiso   1.00
C243   C     0.44168   0.24987   0.33948   0.00000  Uiso   1.00
C244   C     0.61549   0.08558   0.37678   0.00000  Uiso   1.00
C245   C     0.65491   0.16069   0.31079   0.00000  Uiso   1.00
C246   C     0.68807   0.06810   0.25530   0.00000  Uiso   1.00
C247   C     0.72127   0.16055   0.19974   0.00000  Uiso   1.00
C248   C     0.61709   0.16070   0.45161   0.00000  Uiso   1.00
C249   C     0.61843   0.06812   0.51454   0.00000  Uiso   1.00
C250   C     0.61977   0.16056   0.57753   0.00000  Uiso   1.00
C251   C     0.57446   0.16065   0.36796   0.00000  Uiso   1.00
C252   C     0.53995   0.06804   0.36057   0.00000  Uiso   1.00
C253   C     0.50540   0.16045   0.35316   0.00000  Uiso   1.00
H254   H     0.61547   0.55341   0.37678   0.00000  Uiso   1.00
H255   H     0.68805   0.57008   0.25531   0.00000  Uiso   1.00
H256   H     0.61841   0.57010   0.51451   0.00000  Uiso   1.00
H257   H     0.53995   0.57001   0.36056   0.00000  Uiso   1.00
H258   H     0.76853   0.50981   0.12066   0.00000  Uiso   1.00
H259   H     0.62167   0.50984   0.66720   0.00000  Uiso   1.00
H260   H     0.45622   0.50967   0.34258   0.00000  Uiso   1.00
H261   H     0.61549   0.94653   0.37679   0.00000  Uiso   1.00
H262   H     0.68807   0.92990   0.25532   0.00000  Uiso   1.00
H263   H     0.61843   0.92992   0.51452   0.00000  Uiso   1.00
H264   H     0.53997   0.92984   0.36057   0.00000  Uiso   1.00
H265   H     0.76854   0.99021   0.12067   0.00000  Uiso   1.00
H266   H     0.62169   0.99024   0.66722   0.00000  Uiso   1.00
H267   H     0.45623   0.99007   0.34259   0.00000  Uiso   1.00
O268   O     0.81629   0.25001   0.04078   0.00000  Uiso   1.00
O269   O     0.62361   0.25006   0.75782   0.00000  Uiso   1.00
O270   O     0.40654   0.24984   0.33192   0.00000  Uiso   1.00
N271   N     0.75856   0.38980   0.13733   0.00000  Uiso   1.00
N272   N     0.62127   0.38983   0.64830   0.00000  Uiso   1.00
N273   N     0.46658   0.38967   0.34483   0.00000  Uiso   1.00
N274   N     0.75857   0.11021   0.13733   0.00000  Uiso   1.00
N275   N     0.62128   0.11024   0.64831   0.00000  Uiso   1.00
N276   N     0.46659   0.11008   0.34483   0.00000  Uiso   1.00
C277   C     0.88452   0.91438   0.12323   0.00000  Uiso   1.00
C278   C     0.84509   0.83928   0.18922   0.00000  Uiso   1.00
C279   C     0.81194   0.93187   0.24471   0.00000  Uiso   1.00
C280   C     0.77873   0.83946   0.30026   0.00000  Uiso   1.00
C281   C     0.71749   0.75001   0.40272   0.00000  Uiso   1.00
C282   C     0.88292   0.83928   0.04840   0.00000  Uiso   1.00
C283   C     0.88158   0.93189   0.98547   0.00000  Uiso   1.00
C284   C     0.88023   0.83947   0.92248   0.00000  Uiso   1.00
C285   C     0.87776   0.75004   0.80627   0.00000  Uiso   1.00
C286   C     0.92555   0.83924   0.13205   0.00000  Uiso   1.00
C287   C     0.96006   0.93182   0.13944   0.00000  Uiso   1.00
C288   C     0.99460   0.83936   0.14685   0.00000  Uiso   1.00
C289   C     0.05832   0.74987   0.16052   0.00000  Uiso   1.00
C290   C     0.88451   0.58558   0.12322   0.00000  Uiso   1.00
C291   C     0.84509   0.66069   0.18921   0.00000  Uiso   1.00
C292   C     0.81193   0.56810   0.24470   0.00000  Uiso   1.00
C293   C     0.77873   0.66055   0.30026   0.00000  Uiso   1.00
C294   C     0.88291   0.66070   0.04839   0.00000  Uiso   1.00
C295   C     0.88157   0.56812   0.98546   0.00000  Uiso   1.00
C296   C     0.88023   0.66056   0.92247   0.00000  Uiso   1.00
C297   C     0.92554   0.66065   0.13204   0.00000  Uiso   1.00
C298   C     0.96005   0.56804   0.13943   0.00000  Uiso   1.00
C299   C     0.99460   0.66045   0.14684   0.00000  Uiso   1.00
H300   H     0.88453   0.05341   0.12322   0.00000  Uiso   1.00
H301   H     0.81195   0.07008   0.24469   0.00000  Uiso   1.00
H302   H     0.88159   0.07010   0.98549   0.00000  Uiso   1.00
H303   H     0.96005   0.07001   0.13944   0.00000  Uiso   1.00
H304   H     0.73147   0.00981   0.37934   0.00000  Uiso   1.00
H305   H     0.87833   0.00984   0.83280   0.00000  Uiso   1.00
H306   H     0.04378   0.00967   0.15742   0.00000  Uiso   1.00
H307   H     0.88451   0.44653   0.12321   0.00000  Uiso   1.00
H308   H     0.81193   0.42990   0.24468   0.00000  Uiso   1.00
H309   H     0.88157   0.42992   0.98548   0.00000  Uiso   1.00
H310   H     0.96003   0.42984   0.13943   0.00000  Uiso   1.00
H311   H     0.73146   0.49021   0.37933   0.00000  Uiso   1.00
H312   H     0.87831   0.49024   0.83278   0.00000  Uiso   1.00
H313   H     0.04377   0.49007   0.15741   0.00000  Uiso   1.00
O314   O     0.68371   0.75001   0.45922   0.00000  Uiso   1.00
O315   O     0.87639   0.75006   0.74218   0.00000  Uiso   1.00
O316   O     0.09346   0.74984   0.16808   0.00000  Uiso   1.00
N317   N     0.74144   0.88980   0.36267   0.00000  Uiso   1.00
N318   N     0.87873   0.88983   0.85170   0.00000  Uiso   1.00
N319   N     0.03342   0.88967   0.15517   0.00000  Uiso   1.00
N320   N     0.74143   0.61021   0.36267   0.00000  Uiso   1.00
N321   N     0.87872   0.61024   0.85169   0.00000  Uiso   1.00
N322   N     0.03341   0.61008   0.15517   0.00000  Uiso   1.00
C323   C     0.38452   0.41438   0.12323   0.00000  Uiso   1.00
C324   C     0.34509   0.33928   0.18922   0.00000  Uiso   1.00
C325   C     0.31194   0.43187   0.24471   0.00000  Uiso   1.00
C326   C     0.27873   0.33946   0.30026   0.00000  Uiso   1.00
C327   C     0.21749   0.25001   0.40272   0.00000  Uiso   1.00
C328   C     0.38292   0.33928   0.04840   0.00000  Uiso   1.00
C329   C     0.38158   0.43189   0.98547   0.00000  Uiso   1.00
C330   C     0.38023   0.33947   0.92248   0.00000  Uiso   1.00
C331   C     0.37776   0.25004   0.80627   0.00000  Uiso   1.00
C332   C     0.42555   0.33924   0.13205   0.00000  Uiso   1.00
C333   C     0.46006   0.43182   0.13944   0.00000  Uiso   1.00
C334   C     0.49460   0.33936   0.14685   0.00000  Uiso   1.00
C335   C     0.55832   0.24987   0.16052   0.00000  Uiso   1.00
C336   C     0.38451   0.08558   0.12322   0.00000  Uiso   1.00
C337   C     0.34509   0.16069   0.18921   0.00000  Uiso   1.00
C338   C     0.31193   0.06810   0.24470   0.00000  Uiso   1.00
C339   C     0.27873   0.16055   0.30026   0.00000  Uiso   1.00
C340   C     0.38291   0.16070   0.04839   0.00000  Uiso   1.00
C341   C     0.38157   0.06812   0.98546   0.00000  Uiso   1.00
C342   C     0.38023   0.16056   0.92247   0.00000  Uiso   1.00
C343   C     0.42554   0.16065   0.13204   0.00000  Uiso   1.00
C344   C     0.46005   0.06804   0.13943   0.00000  Uiso   1.00
C345   C     0.49460   0.16045   0.14684   0.00000  Uiso   1.00
H346   H     0.38453   0.55341   0.12322   0.00000  Uiso   1.00
H347   H     0.31195   0.57008   0.24469   0.00000  Uiso   1.00
H348   H     0.38159   0.57010   0.98549   0.00000  Uiso   1.00
H349   H     0.46005   0.57001   0.13944   0.00000  Uiso   1.00
H350   H     0.23147   0.50981   0.37934   0.00000  Uiso   1.00
H351   H     0.37833   0.50984   0.83280   0.00000  Uiso   1.00
H352   H     0.54378   0.50967   0.15742   0.00000  Uiso   1.00
H353   H     0.38451   0.94653   0.12321   0.00000  Uiso   1.00
H354   H     0.31193   0.92990   0.24468   0.00000  Uiso   1.00
H355   H     0.38157   0.92992   0.98548   0.00000  Uiso   1.00
H356   H     0.46003   0.92984   0.13943   0.00000  Uiso   1.00
H357   H     0.23146   0.99021   0.37933   0.00000  Uiso   1.00
H358   H     0.37831   0.99024   0.83278   0.00000  Uiso   1.00
H359   H     0.54377   0.99007   0.15741   0.00000  Uiso   1.00
O360   O     0.18371   0.25001   0.45922   0.00000  Uiso   1.00
O361   O     0.37639   0.25006   0.74218   0.00000  Uiso   1.00
O362   O     0.59346   0.24984   0.16808   0.00000  Uiso   1.00
N363   N     0.24144   0.38980   0.36267   0.00000  Uiso   1.00
N364   N     0.37873   0.38983   0.85170   0.00000  Uiso   1.00
N365   N     0.53342   0.38967   0.15517   0.00000  Uiso   1.00
N366   N     0.24143   0.11021   0.36267   0.00000  Uiso   1.00
N367   N     0.37872   0.11024   0.85169   0.00000  Uiso   1.00
N368   N     0.53341   0.11008   0.15517   0.00000  Uiso   1.00
