data_job_01057
_audit_creation_date              2018-12-19
_audit_creation_method            'Materials Studio'
_symmetry_space_group_name_H-M    'P1'
_symmetry_Int_Tables_number       1
_symmetry_cell_setting            triclinic
loop_
_symmetry_equiv_pos_as_xyz
  x,y,z
_cell_length_a                    13.4106
_cell_length_b                    10.9503
_cell_length_c                    23.6370
_cell_angle_alpha                 90.0000
_cell_angle_beta                  45.5723
_cell_angle_gamma                 90.0000
loop_
_atom_site_label
_atom_site_type_symbol
_atom_site_fract_x
_atom_site_fract_y
_atom_site_fract_z
_atom_site_U_iso_or_equiv
_atom_site_adp_type
_atom_site_occupancy
C1     C     0.15327   0.67900   0.57035   0.00000  Uiso   1.00
C2     C     0.20239   0.65311   0.49066   0.00000  Uiso   1.00
C3     C     0.18136   0.54524   0.46940   0.00000  Uiso   1.00
C4     C     0.23442   0.53958   0.39373   0.00000  Uiso   1.00
C5     C     0.29987   0.48434   0.27795   0.00000  Uiso   1.00
C6     C     0.28355   0.71433   0.55191   0.00000  Uiso   1.00
C7     C     0.33073   0.65793   0.58215   0.00000  Uiso   1.00
C8     C     0.45210   0.70382   0.55804   0.00000  Uiso   1.00
C9     C     0.64349   0.74368   0.53740   0.00000  Uiso   1.00
C10    C     0.06410   0.79412   0.60231   0.00000  Uiso   1.00
C11    C     0.92678   0.80483   0.67493   0.00000  Uiso   1.00
C12    C     0.86339   0.91791   0.69327   0.00000  Uiso   1.00
C13    C     0.71406   0.08165   0.75087   0.00000  Uiso   1.00
C14    C     0.28489   0.86077   0.47378   0.00000  Uiso   1.00
C15    C     0.27388   0.75184   0.43820   0.00000  Uiso   1.00
C16    C     0.32698   0.74635   0.36255   0.00000  Uiso   1.00
C17    C     0.30603   0.63849   0.34117   0.00000  Uiso   1.00
C18    C     0.35504   0.81306   0.49945   0.00000  Uiso   1.00
C19    C     0.47635   0.85905   0.47530   0.00000  Uiso   1.00
C20    C     0.52372   0.80273   0.50549   0.00000  Uiso   1.00
C21    C     0.13558   0.89285   0.54985   0.00000  Uiso   1.00
C22    C     0.07240   0.00594   0.56808   0.00000  Uiso   1.00
C23    C     0.93502   0.01682   0.64072   0.00000  Uiso   1.00
H24    H     0.09762   0.60213   0.61119   0.00000  Uiso   1.00
H25    H     0.12604   0.46884   0.51001   0.00000  Uiso   1.00
H26    H     0.27538   0.58154   0.62275   0.00000  Uiso   1.00
H27    H     0.87149   0.72840   0.71551   0.00000  Uiso   1.00
H28    H     0.18912   0.36460   0.37468   0.00000  Uiso   1.00
H29    H     0.50399   0.60224   0.61242   0.00000  Uiso   1.00
H30    H     0.65231   0.91194   0.80804   0.00000  Uiso   1.00
H31    H     0.34055   0.93765   0.43294   0.00000  Uiso   1.00
H32    H     0.38230   0.82277   0.32196   0.00000  Uiso   1.00
H33    H     0.53164   0.93546   0.43471   0.00000  Uiso   1.00
H34    H     0.12776   0.08232   0.52747   0.00000  Uiso   1.00
H35    H     0.39712   0.65185   0.22206   0.00000  Uiso   1.00
H36    H     0.71198   0.88950   0.45980   0.00000  Uiso   1.00
H37    H     0.86030   0.19920   0.65541   0.00000  Uiso   1.00
O38    O     0.31624   0.42659   0.22858   0.00000  Uiso   1.00
O39    O     0.72931   0.73838   0.54050   0.00000  Uiso   1.00
O40    O     0.61193   0.14469   0.79713   0.00000  Uiso   1.00
N41    N     0.23232   0.44798   0.35400   0.00000  Uiso   1.00
N42    N     0.52671   0.67015   0.57626   0.00000  Uiso   1.00
N43    N     0.73047   0.95970   0.75915   0.00000  Uiso   1.00
N44    N     0.34424   0.60255   0.27187   0.00000  Uiso   1.00
N45    N     0.63863   0.82472   0.49414   0.00000  Uiso   1.00
N46    N     0.84239   0.11427   0.67703   0.00000  Uiso   1.00
C47    C     0.84673   0.67900   0.92965   0.00000  Uiso   1.00
C48    C     0.79761   0.65311   0.00934   0.00000  Uiso   1.00
C49    C     0.81864   0.54524   0.03060   0.00000  Uiso   1.00
C50    C     0.76558   0.53958   0.10627   0.00000  Uiso   1.00
C51    C     0.70013   0.48434   0.22205   0.00000  Uiso   1.00
C52    C     0.71645   0.71433   0.94809   0.00000  Uiso   1.00
C53    C     0.66927   0.65793   0.91785   0.00000  Uiso   1.00
C54    C     0.54790   0.70382   0.94196   0.00000  Uiso   1.00
C55    C     0.35651   0.74368   0.96260   0.00000  Uiso   1.00
C56    C     0.93590   0.79412   0.89769   0.00000  Uiso   1.00
C57    C     0.07322   0.80483   0.82507   0.00000  Uiso   1.00
C58    C     0.13661   0.91791   0.80673   0.00000  Uiso   1.00
C59    C     0.28594   0.08165   0.74913   0.00000  Uiso   1.00
C60    C     0.71511   0.86077   0.02622   0.00000  Uiso   1.00
C61    C     0.72612   0.75184   0.06180   0.00000  Uiso   1.00
C62    C     0.67302   0.74635   0.13745   0.00000  Uiso   1.00
C63    C     0.69397   0.63849   0.15883   0.00000  Uiso   1.00
C64    C     0.64496   0.81306   0.00055   0.00000  Uiso   1.00
C65    C     0.52365   0.85905   0.02470   0.00000  Uiso   1.00
C66    C     0.47628   0.80273   0.99451   0.00000  Uiso   1.00
C67    C     0.86442   0.89285   0.95015   0.00000  Uiso   1.00
C68    C     0.92760   0.00594   0.93192   0.00000  Uiso   1.00
C69    C     0.06498   0.01682   0.85928   0.00000  Uiso   1.00
H70    H     0.90238   0.60213   0.88881   0.00000  Uiso   1.00
H71    H     0.87396   0.46884   0.98999   0.00000  Uiso   1.00
H72    H     0.72462   0.58154   0.87725   0.00000  Uiso   1.00
H73    H     0.12851   0.72840   0.78449   0.00000  Uiso   1.00
H74    H     0.81088   0.36460   0.12532   0.00000  Uiso   1.00
H75    H     0.49601   0.60224   0.88758   0.00000  Uiso   1.00
H76    H     0.34769   0.91194   0.69196   0.00000  Uiso   1.00
H77    H     0.65945   0.93765   0.06706   0.00000  Uiso   1.00
H78    H     0.61770   0.82277   0.17804   0.00000  Uiso   1.00
H79    H     0.46836   0.93546   0.06529   0.00000  Uiso   1.00
H80    H     0.87224   0.08232   0.97253   0.00000  Uiso   1.00
H81    H     0.60288   0.65185   0.27794   0.00000  Uiso   1.00
H82    H     0.28802   0.88950   0.04020   0.00000  Uiso   1.00
H83    H     0.13970   0.19920   0.84459   0.00000  Uiso   1.00
O84    O     0.68376   0.42659   0.27142   0.00000  Uiso   1.00
O85    O     0.27069   0.73838   0.95950   0.00000  Uiso   1.00
O86    O     0.38807   0.14469   0.70287   0.00000  Uiso   1.00
N87    N     0.76768   0.44798   0.14600   0.00000  Uiso   1.00
N88    N     0.47329   0.67015   0.92374   0.00000  Uiso   1.00
N89    N     0.26953   0.95970   0.74085   0.00000  Uiso   1.00
N90    N     0.65576   0.60255   0.22813   0.00000  Uiso   1.00
N91    N     0.36137   0.82472   0.00586   0.00000  Uiso   1.00
N92    N     0.15761   0.11427   0.82297   0.00000  Uiso   1.00
C93    C     0.84673   0.32100   0.42965   0.00000  Uiso   1.00
C94    C     0.79761   0.34689   0.50934   0.00000  Uiso   1.00
C95    C     0.81864   0.45476   0.53060   0.00000  Uiso   1.00
C96    C     0.76558   0.46042   0.60627   0.00000  Uiso   1.00
C97    C     0.70013   0.51566   0.72205   0.00000  Uiso   1.00
C98    C     0.71645   0.28567   0.44809   0.00000  Uiso   1.00
C99    C     0.66927   0.34207   0.41785   0.00000  Uiso   1.00
C100   C     0.54790   0.29618   0.44196   0.00000  Uiso   1.00
C101   C     0.35651   0.25632   0.46260   0.00000  Uiso   1.00
C102   C     0.93590   0.20588   0.39769   0.00000  Uiso   1.00
C103   C     0.07322   0.19517   0.32507   0.00000  Uiso   1.00
C104   C     0.13661   0.08209   0.30673   0.00000  Uiso   1.00
C105   C     0.28594   0.91835   0.24913   0.00000  Uiso   1.00
C106   C     0.71511   0.13923   0.52622   0.00000  Uiso   1.00
C107   C     0.72612   0.24816   0.56180   0.00000  Uiso   1.00
C108   C     0.67302   0.25365   0.63745   0.00000  Uiso   1.00
C109   C     0.69397   0.36151   0.65883   0.00000  Uiso   1.00
C110   C     0.64496   0.18694   0.50055   0.00000  Uiso   1.00
C111   C     0.52365   0.14095   0.52470   0.00000  Uiso   1.00
C112   C     0.47628   0.19727   0.49451   0.00000  Uiso   1.00
C113   C     0.86442   0.10715   0.45015   0.00000  Uiso   1.00
C114   C     0.92760   0.99406   0.43192   0.00000  Uiso   1.00
C115   C     0.06498   0.98318   0.35928   0.00000  Uiso   1.00
H116   H     0.90238   0.39787   0.38881   0.00000  Uiso   1.00
H117   H     0.87396   0.53116   0.48999   0.00000  Uiso   1.00
H118   H     0.72462   0.41846   0.37725   0.00000  Uiso   1.00
H119   H     0.12851   0.27160   0.28449   0.00000  Uiso   1.00
H120   H     0.81088   0.63540   0.62532   0.00000  Uiso   1.00
H121   H     0.49601   0.39776   0.38758   0.00000  Uiso   1.00
H122   H     0.34769   0.08806   0.19196   0.00000  Uiso   1.00
H123   H     0.65945   0.06235   0.56706   0.00000  Uiso   1.00
H124   H     0.61770   0.17723   0.67804   0.00000  Uiso   1.00
H125   H     0.46836   0.06454   0.56529   0.00000  Uiso   1.00
H126   H     0.87224   0.91768   0.47253   0.00000  Uiso   1.00
H127   H     0.60288   0.34815   0.77794   0.00000  Uiso   1.00
H128   H     0.28802   0.11050   0.54020   0.00000  Uiso   1.00
H129   H     0.13970   0.80080   0.34459   0.00000  Uiso   1.00
O130   O     0.68376   0.57341   0.77142   0.00000  Uiso   1.00
O131   O     0.27069   0.26162   0.45950   0.00000  Uiso   1.00
O132   O     0.38807   0.85531   0.20287   0.00000  Uiso   1.00
N133   N     0.76768   0.55202   0.64600   0.00000  Uiso   1.00
N134   N     0.47329   0.32985   0.42374   0.00000  Uiso   1.00
N135   N     0.26953   0.04030   0.24085   0.00000  Uiso   1.00
N136   N     0.65576   0.39745   0.72813   0.00000  Uiso   1.00
N137   N     0.36137   0.17528   0.50586   0.00000  Uiso   1.00
N138   N     0.15761   0.88573   0.32297   0.00000  Uiso   1.00
C139   C     0.15327   0.32100   0.07035   0.00000  Uiso   1.00
C140   C     0.20239   0.34689   0.99066   0.00000  Uiso   1.00
C141   C     0.18136   0.45476   0.96940   0.00000  Uiso   1.00
C142   C     0.23442   0.46042   0.89373   0.00000  Uiso   1.00
C143   C     0.29987   0.51566   0.77795   0.00000  Uiso   1.00
C144   C     0.28355   0.28567   0.05191   0.00000  Uiso   1.00
C145   C     0.33073   0.34207   0.08215   0.00000  Uiso   1.00
C146   C     0.45210   0.29618   0.05804   0.00000  Uiso   1.00
C147   C     0.64349   0.25632   0.03740   0.00000  Uiso   1.00
C148   C     0.06410   0.20588   0.10231   0.00000  Uiso   1.00
C149   C     0.92678   0.19517   0.17493   0.00000  Uiso   1.00
C150   C     0.86339   0.08209   0.19327   0.00000  Uiso   1.00
C151   C     0.71406   0.91835   0.25087   0.00000  Uiso   1.00
C152   C     0.28489   0.13923   0.97378   0.00000  Uiso   1.00
C153   C     0.27388   0.24816   0.93820   0.00000  Uiso   1.00
C154   C     0.32698   0.25365   0.86255   0.00000  Uiso   1.00
C155   C     0.30603   0.36151   0.84117   0.00000  Uiso   1.00
C156   C     0.35504   0.18694   0.99945   0.00000  Uiso   1.00
C157   C     0.47635   0.14095   0.97530   0.00000  Uiso   1.00
C158   C     0.52372   0.19727   0.00549   0.00000  Uiso   1.00
C159   C     0.13558   0.10715   0.04985   0.00000  Uiso   1.00
C160   C     0.07240   0.99406   0.06808   0.00000  Uiso   1.00
C161   C     0.93502   0.98318   0.14072   0.00000  Uiso   1.00
H162   H     0.09762   0.39787   0.11119   0.00000  Uiso   1.00
H163   H     0.12604   0.53116   0.01001   0.00000  Uiso   1.00
H164   H     0.27538   0.41846   0.12275   0.00000  Uiso   1.00
H165   H     0.87149   0.27160   0.21551   0.00000  Uiso   1.00
H166   H     0.18912   0.63540   0.87468   0.00000  Uiso   1.00
H167   H     0.50399   0.39776   0.11242   0.00000  Uiso   1.00
H168   H     0.65231   0.08806   0.30804   0.00000  Uiso   1.00
H169   H     0.34055   0.06235   0.93294   0.00000  Uiso   1.00
H170   H     0.38230   0.17723   0.82196   0.00000  Uiso   1.00
H171   H     0.53164   0.06454   0.93471   0.00000  Uiso   1.00
H172   H     0.12776   0.91768   0.02747   0.00000  Uiso   1.00
H173   H     0.39712   0.34815   0.72206   0.00000  Uiso   1.00
H174   H     0.71198   0.11050   0.95980   0.00000  Uiso   1.00
H175   H     0.86030   0.80080   0.15541   0.00000  Uiso   1.00
O176   O     0.31624   0.57341   0.72858   0.00000  Uiso   1.00
O177   O     0.72931   0.26162   0.04050   0.00000  Uiso   1.00
O178   O     0.61193   0.85531   0.29713   0.00000  Uiso   1.00
N179   N     0.23232   0.55202   0.85400   0.00000  Uiso   1.00
N180   N     0.52671   0.32985   0.07626   0.00000  Uiso   1.00
N181   N     0.73047   0.04030   0.25915   0.00000  Uiso   1.00
N182   N     0.34424   0.39745   0.77187   0.00000  Uiso   1.00
N183   N     0.63863   0.17528   0.99414   0.00000  Uiso   1.00
N184   N     0.84239   0.88573   0.17703   0.00000  Uiso   1.00
