data_job_01828
_audit_creation_date              2018-12-19
_audit_creation_method            'Materials Studio'
_symmetry_space_group_name_H-M    'P1'
_symmetry_Int_Tables_number       1
_symmetry_cell_setting            triclinic
loop_
_symmetry_equiv_pos_as_xyz
  x,y,z
_cell_length_a                    9.7150
_cell_length_b                    10.1092
_cell_length_c                    16.1112
_cell_angle_alpha                 104.2154
_cell_angle_beta                  78.8594
_cell_angle_gamma                 76.9483
loop_
_atom_site_label
_atom_site_type_symbol
_atom_site_fract_x
_atom_site_fract_y
_atom_site_fract_z
_atom_site_U_iso_or_equiv
_atom_site_adp_type
_atom_site_occupancy
C1     C     0.64412   0.18339   0.29070   0.00000  Uiso   1.00
C2     C     0.58461   0.28502   0.24153   0.00000  Uiso   1.00
C3     C     0.59959   0.42099   0.25182   0.00000  Uiso   1.00
C4     C     0.53729   0.49709   0.20076   0.00000  Uiso   1.00
C5     C     0.45617   0.66373   0.13346   0.00000  Uiso   1.00
C6     C     0.51280   0.14502   0.33664   0.00000  Uiso   1.00
C7     C     0.46743   0.16326   0.42688   0.00000  Uiso   1.00
C8     C     0.34468   0.12149   0.45588   0.00000  Uiso   1.00
C9     C     0.15215   0.07068   0.53623   0.00000  Uiso   1.00
C10    C     0.74083   0.04705   0.21926   0.00000  Uiso   1.00
C11    C     0.88718   0.98290   0.21082   0.00000  Uiso   1.00
C12    C     0.95641   0.85862   0.14100   0.00000  Uiso   1.00
C13    C     0.11793   0.65571   0.03909   0.00000  Uiso   1.00
C14    C     0.50682   0.07674   0.18174   0.00000  Uiso   1.00
C15    C     0.51003   0.22709   0.18236   0.00000  Uiso   1.00
C16    C     0.44769   0.30299   0.13127   0.00000  Uiso   1.00
C17    C     0.46258   0.43905   0.14147   0.00000  Uiso   1.00
C18    C     0.43823   0.08709   0.27746   0.00000  Uiso   1.00
C19    C     0.31553   0.04527   0.30634   0.00000  Uiso   1.00
C20    C     0.26997   0.06346   0.39660   0.00000  Uiso   1.00
C21    C     0.66626   0.98912   0.16008   0.00000  Uiso   1.00
C22    C     0.73527   0.86491   0.09027   0.00000  Uiso   1.00
C23    C     0.88170   0.80059   0.08172   0.00000  Uiso   1.00
H24    H     0.70217   0.22848   0.33677   0.00000  Uiso   1.00
H25    H     0.65730   0.46578   0.29763   0.00000  Uiso   1.00
H26    H     0.52517   0.20808   0.47266   0.00000  Uiso   1.00
H27    H     0.94485   0.02775   0.25662   0.00000  Uiso   1.00
H28    H     0.57463   0.70335   0.22815   0.00000  Uiso   1.00
H29    H     0.29605   0.15993   0.59722   0.00000  Uiso   1.00
H30    H     0.18103   0.77966   0.14167   0.00000  Uiso   1.00
H31    H     0.44875   0.03164   0.13567   0.00000  Uiso   1.00
H32    H     0.38998   0.25814   0.08548   0.00000  Uiso   1.00
H33    H     0.25785   0.00044   0.26052   0.00000  Uiso   1.00
H34    H     0.67753   0.82012   0.04449   0.00000  Uiso   1.00
H35    H     0.35765   0.53482   0.05597   0.00000  Uiso   1.00
H36    H     0.07908   0.99139   0.42504   0.00000  Uiso   1.00
H37    H     0.96406   0.61114   0.96949   0.00000  Uiso   1.00
O38    O     0.43201   0.77165   0.11270   0.00000  Uiso   1.00
O39    O     0.06655   0.05868   0.59690   0.00000  Uiso   1.00
O40    O     0.22762   0.55980   0.99922   0.00000  Uiso   1.00
N41    N     0.53165   0.63259   0.19450   0.00000  Uiso   1.00
N42    N     0.27118   0.12454   0.53956   0.00000  Uiso   1.00
N43    N     0.09856   0.76901   0.11367   0.00000  Uiso   1.00
N44    N     0.41490   0.54190   0.10185   0.00000  Uiso   1.00
N45    N     0.15443   0.03386   0.44691   0.00000  Uiso   1.00
N46    N     0.98181   0.67833   0.02102   0.00000  Uiso   1.00
C47    C     0.35588   0.81661   0.70930   0.00000  Uiso   1.00
C48    C     0.41539   0.71498   0.75847   0.00000  Uiso   1.00
C49    C     0.40041   0.57901   0.74818   0.00000  Uiso   1.00
C50    C     0.46271   0.50291   0.79924   0.00000  Uiso   1.00
C51    C     0.54383   0.33627   0.86654   0.00000  Uiso   1.00
C52    C     0.48720   0.85498   0.66336   0.00000  Uiso   1.00
C53    C     0.53257   0.83674   0.57312   0.00000  Uiso   1.00
C54    C     0.65532   0.87851   0.54412   0.00000  Uiso   1.00
C55    C     0.84785   0.92932   0.46377   0.00000  Uiso   1.00
C56    C     0.25917   0.95295   0.78074   0.00000  Uiso   1.00
C57    C     0.11282   0.01710   0.78918   0.00000  Uiso   1.00
C58    C     0.04359   0.14138   0.85900   0.00000  Uiso   1.00
C59    C     0.88207   0.34429   0.96091   0.00000  Uiso   1.00
C60    C     0.49318   0.92326   0.81826   0.00000  Uiso   1.00
C61    C     0.48997   0.77291   0.81764   0.00000  Uiso   1.00
C62    C     0.55231   0.69701   0.86873   0.00000  Uiso   1.00
C63    C     0.53742   0.56095   0.85853   0.00000  Uiso   1.00
C64    C     0.56177   0.91291   0.72254   0.00000  Uiso   1.00
C65    C     0.68447   0.95473   0.69366   0.00000  Uiso   1.00
C66    C     0.73003   0.93654   0.60340   0.00000  Uiso   1.00
C67    C     0.33374   0.01088   0.83992   0.00000  Uiso   1.00
C68    C     0.26473   0.13509   0.90973   0.00000  Uiso   1.00
C69    C     0.11830   0.19941   0.91828   0.00000  Uiso   1.00
H70    H     0.29783   0.77152   0.66323   0.00000  Uiso   1.00
H71    H     0.34270   0.53422   0.70237   0.00000  Uiso   1.00
H72    H     0.47483   0.79192   0.52734   0.00000  Uiso   1.00
H73    H     0.05515   0.97225   0.74338   0.00000  Uiso   1.00
H74    H     0.42537   0.29665   0.77185   0.00000  Uiso   1.00
H75    H     0.70395   0.84007   0.40278   0.00000  Uiso   1.00
H76    H     0.81897   0.22034   0.85833   0.00000  Uiso   1.00
H77    H     0.55125   0.96836   0.86433   0.00000  Uiso   1.00
H78    H     0.61002   0.74186   0.91452   0.00000  Uiso   1.00
H79    H     0.74215   0.99956   0.73948   0.00000  Uiso   1.00
H80    H     0.32247   0.17988   0.95551   0.00000  Uiso   1.00
H81    H     0.64235   0.46518   0.94403   0.00000  Uiso   1.00
H82    H     0.92092   0.00861   0.57496   0.00000  Uiso   1.00
H83    H     0.03594   0.38886   0.03051   0.00000  Uiso   1.00
O84    O     0.56799   0.22835   0.88730   0.00000  Uiso   1.00
O85    O     0.93345   0.94132   0.40310   0.00000  Uiso   1.00
O86    O     0.77238   0.44020   0.00078   0.00000  Uiso   1.00
N87    N     0.46835   0.36741   0.80550   0.00000  Uiso   1.00
N88    N     0.72882   0.87546   0.46044   0.00000  Uiso   1.00
N89    N     0.90144   0.23099   0.88633   0.00000  Uiso   1.00
N90    N     0.58510   0.45810   0.89815   0.00000  Uiso   1.00
N91    N     0.84557   0.96614   0.55309   0.00000  Uiso   1.00
N92    N     0.01819   0.32167   0.97898   0.00000  Uiso   1.00
