data_job_02997
_audit_creation_date              2018-12-19
_audit_creation_method            'Materials Studio'
_symmetry_space_group_name_H-M    'P1'
_symmetry_Int_Tables_number       1
_symmetry_cell_setting            triclinic
loop_
_symmetry_equiv_pos_as_xyz
  x,y,z
_cell_length_a                    10.6117
_cell_length_b                    21.0452
_cell_length_c                    12.3669
_cell_angle_alpha                 90.0000
_cell_angle_beta                  90.0000
_cell_angle_gamma                 90.0000
loop_
_atom_site_label
_atom_site_type_symbol
_atom_site_fract_x
_atom_site_fract_y
_atom_site_fract_z
_atom_site_U_iso_or_equiv
_atom_site_adp_type
_atom_site_occupancy
C1     C     0.40494   0.16537   0.67542   0.00000  Uiso   1.00
C2     C     0.31262   0.10996   0.68155   0.00000  Uiso   1.00
C3     C     0.18464   0.11295   0.65903   0.00000  Uiso   1.00
C4     C     0.11634   0.05701   0.66939   0.00000  Uiso   1.00
C5     C     0.96419   0.97963   0.67413   0.00000  Uiso   1.00
C6     C     0.46612   0.16987   0.78674   0.00000  Uiso   1.00
C7     C     0.46721   0.22325   0.85264   0.00000  Uiso   1.00
C8     C     0.52816   0.21774   0.95155   0.00000  Uiso   1.00
C9     C     0.61439   0.23340   0.11955   0.00000  Uiso   1.00
C10    C     0.50894   0.14454   0.59806   0.00000  Uiso   1.00
C11    C     0.54607   0.17662   0.50534   0.00000  Uiso   1.00
C12    C     0.64308   0.14980   0.44540   0.00000  Uiso   1.00
C13    C     0.79580   0.12612   0.32046   0.00000  Uiso   1.00
C14    C     0.51124   0.06069   0.73389   0.00000  Uiso   1.00
C15    C     0.37035   0.05310   0.71331   0.00000  Uiso   1.00
C16    C     0.30224   0.99714   0.72371   0.00000  Uiso   1.00
C17    C     0.17418   0.00005   0.70120   0.00000  Uiso   1.00
C18    C     0.52385   0.11302   0.81850   0.00000  Uiso   1.00
C19    C     0.58481   0.10744   0.91733   0.00000  Uiso   1.00
C20    C     0.58600   0.16079   0.98336   0.00000  Uiso   1.00
C21    C     0.56667   0.08768   0.62982   0.00000  Uiso   1.00
C22    C     0.66366   0.06081   0.57002   0.00000  Uiso   1.00
C23    C     0.70092   0.09284   0.47722   0.00000  Uiso   1.00
H24    H     0.36000   0.20963   0.65071   0.00000  Uiso   1.00
H25    H     0.13999   0.15696   0.63446   0.00000  Uiso   1.00
H26    H     0.42254   0.26724   0.82804   0.00000  Uiso   1.00
H27    H     0.50137   0.22062   0.48079   0.00000  Uiso   1.00
H28    H     0.92152   0.07350   0.63049   0.00000  Uiso   1.00
H29    H     0.51732   0.30603   0.03865   0.00000  Uiso   1.00
H30    H     0.68355   0.20772   0.30640   0.00000  Uiso   1.00
H31    H     0.55619   0.01643   0.75862   0.00000  Uiso   1.00
H32    H     0.34694   0.95315   0.74829   0.00000  Uiso   1.00
H33    H     0.62949   0.06343   0.94187   0.00000  Uiso   1.00
H34    H     0.70831   0.01681   0.59462   0.00000  Uiso   1.00
H35    H     0.08949   0.90808   0.72288   0.00000  Uiso   1.00
H36    H     0.68530   0.14062   0.13104   0.00000  Uiso   1.00
H37    H     0.85152   0.04231   0.39879   0.00000  Uiso   1.00
O38    O     0.86431   0.95266   0.66798   0.00000  Uiso   1.00
O39    O     0.64600   0.25774   0.20345   0.00000  Uiso   1.00
O40    O     0.86408   0.12876   0.24276   0.00000  Uiso   1.00
N41    N     0.98978   0.04325   0.65363   0.00000  Uiso   1.00
N42    N     0.54680   0.26065   0.03524   0.00000  Uiso   1.00
N43    N     0.70223   0.16875   0.35067   0.00000  Uiso   1.00
N44    N     0.08016   0.95424   0.70335   0.00000  Uiso   1.00
N45    N     0.63718   0.17164   0.08495   0.00000  Uiso   1.00
N46    N     0.79261   0.07974   0.40038   0.00000  Uiso   1.00
C47    C     0.09506   0.83463   0.17542   0.00000  Uiso   1.00
C48    C     0.18738   0.89004   0.18155   0.00000  Uiso   1.00
C49    C     0.31536   0.88705   0.15903   0.00000  Uiso   1.00
C50    C     0.38366   0.94299   0.16939   0.00000  Uiso   1.00
C51    C     0.53581   0.02037   0.17413   0.00000  Uiso   1.00
C52    C     0.03388   0.83013   0.28674   0.00000  Uiso   1.00
C53    C     0.03279   0.77675   0.35264   0.00000  Uiso   1.00
C54    C     0.97184   0.78226   0.45155   0.00000  Uiso   1.00
C55    C     0.88561   0.76660   0.61955   0.00000  Uiso   1.00
C56    C     0.99106   0.85546   0.09806   0.00000  Uiso   1.00
C57    C     0.95393   0.82338   0.00534   0.00000  Uiso   1.00
C58    C     0.85692   0.85020   0.94540   0.00000  Uiso   1.00
C59    C     0.70420   0.87388   0.82046   0.00000  Uiso   1.00
C60    C     0.98876   0.93931   0.23389   0.00000  Uiso   1.00
C61    C     0.12965   0.94690   0.21331   0.00000  Uiso   1.00
C62    C     0.19776   0.00286   0.22371   0.00000  Uiso   1.00
C63    C     0.32582   0.99995   0.20120   0.00000  Uiso   1.00
C64    C     0.97615   0.88698   0.31850   0.00000  Uiso   1.00
C65    C     0.91519   0.89256   0.41733   0.00000  Uiso   1.00
C66    C     0.91400   0.83921   0.48336   0.00000  Uiso   1.00
C67    C     0.93333   0.91232   0.12982   0.00000  Uiso   1.00
C68    C     0.83634   0.93919   0.07002   0.00000  Uiso   1.00
C69    C     0.79908   0.90716   0.97722   0.00000  Uiso   1.00
H70    H     0.14000   0.79037   0.15071   0.00000  Uiso   1.00
H71    H     0.36001   0.84304   0.13446   0.00000  Uiso   1.00
H72    H     0.07746   0.73276   0.32804   0.00000  Uiso   1.00
H73    H     0.99863   0.77938   0.98079   0.00000  Uiso   1.00
H74    H     0.57848   0.92650   0.13049   0.00000  Uiso   1.00
H75    H     0.98268   0.69397   0.53865   0.00000  Uiso   1.00
H76    H     0.81645   0.79228   0.80640   0.00000  Uiso   1.00
H77    H     0.94381   0.98357   0.25862   0.00000  Uiso   1.00
H78    H     0.15306   0.04685   0.24829   0.00000  Uiso   1.00
H79    H     0.87051   0.93657   0.44187   0.00000  Uiso   1.00
H80    H     0.79169   0.98319   0.09462   0.00000  Uiso   1.00
H81    H     0.41051   0.09192   0.22288   0.00000  Uiso   1.00
H82    H     0.81470   0.85938   0.63104   0.00000  Uiso   1.00
H83    H     0.64848   0.95769   0.89879   0.00000  Uiso   1.00
O84    O     0.63569   0.04734   0.16798   0.00000  Uiso   1.00
O85    O     0.85400   0.74226   0.70345   0.00000  Uiso   1.00
O86    O     0.63592   0.87124   0.74276   0.00000  Uiso   1.00
N87    N     0.51022   0.95675   0.15363   0.00000  Uiso   1.00
N88    N     0.95320   0.73935   0.53524   0.00000  Uiso   1.00
N89    N     0.79777   0.83125   0.85067   0.00000  Uiso   1.00
N90    N     0.41984   0.04576   0.20335   0.00000  Uiso   1.00
N91    N     0.86282   0.82836   0.58495   0.00000  Uiso   1.00
N92    N     0.70739   0.92026   0.90038   0.00000  Uiso   1.00
C93    C     0.59506   0.66537   0.82458   0.00000  Uiso   1.00
C94    C     0.68738   0.60996   0.81845   0.00000  Uiso   1.00
C95    C     0.81536   0.61295   0.84097   0.00000  Uiso   1.00
C96    C     0.88366   0.55701   0.83061   0.00000  Uiso   1.00
C97    C     0.03581   0.47963   0.82587   0.00000  Uiso   1.00
C98    C     0.53388   0.66987   0.71326   0.00000  Uiso   1.00
C99    C     0.53279   0.72325   0.64736   0.00000  Uiso   1.00
C100   C     0.47184   0.71774   0.54845   0.00000  Uiso   1.00
C101   C     0.38561   0.73340   0.38045   0.00000  Uiso   1.00
C102   C     0.49106   0.64454   0.90194   0.00000  Uiso   1.00
C103   C     0.45393   0.67662   0.99466   0.00000  Uiso   1.00
C104   C     0.35692   0.64980   0.05460   0.00000  Uiso   1.00
C105   C     0.20420   0.62612   0.17954   0.00000  Uiso   1.00
C106   C     0.48876   0.56069   0.76611   0.00000  Uiso   1.00
C107   C     0.62965   0.55310   0.78669   0.00000  Uiso   1.00
C108   C     0.69776   0.49714   0.77629   0.00000  Uiso   1.00
C109   C     0.82582   0.50005   0.79880   0.00000  Uiso   1.00
C110   C     0.47615   0.61302   0.68150   0.00000  Uiso   1.00
C111   C     0.41519   0.60744   0.58267   0.00000  Uiso   1.00
C112   C     0.41400   0.66079   0.51664   0.00000  Uiso   1.00
C113   C     0.43333   0.58768   0.87018   0.00000  Uiso   1.00
C114   C     0.33634   0.56081   0.92998   0.00000  Uiso   1.00
C115   C     0.29908   0.59284   0.02278   0.00000  Uiso   1.00
H116   H     0.64000   0.70963   0.84929   0.00000  Uiso   1.00
H117   H     0.86001   0.65696   0.86554   0.00000  Uiso   1.00
H118   H     0.57746   0.76724   0.67196   0.00000  Uiso   1.00
H119   H     0.49863   0.72062   0.01921   0.00000  Uiso   1.00
H120   H     0.07848   0.57350   0.86951   0.00000  Uiso   1.00
H121   H     0.48268   0.80603   0.46135   0.00000  Uiso   1.00
H122   H     0.31645   0.70772   0.19360   0.00000  Uiso   1.00
H123   H     0.44381   0.51643   0.74138   0.00000  Uiso   1.00
H124   H     0.65306   0.45315   0.75171   0.00000  Uiso   1.00
H125   H     0.37051   0.56343   0.55813   0.00000  Uiso   1.00
H126   H     0.29169   0.51681   0.90538   0.00000  Uiso   1.00
H127   H     0.91051   0.40808   0.77712   0.00000  Uiso   1.00
H128   H     0.31470   0.64062   0.36896   0.00000  Uiso   1.00
H129   H     0.14848   0.54231   0.10121   0.00000  Uiso   1.00
O130   O     0.13569   0.45266   0.83202   0.00000  Uiso   1.00
O131   O     0.35400   0.75774   0.29655   0.00000  Uiso   1.00
O132   O     0.13592   0.62876   0.25724   0.00000  Uiso   1.00
N133   N     0.01022   0.54325   0.84637   0.00000  Uiso   1.00
N134   N     0.45320   0.76065   0.46476   0.00000  Uiso   1.00
N135   N     0.29777   0.66875   0.14933   0.00000  Uiso   1.00
N136   N     0.91984   0.45424   0.79665   0.00000  Uiso   1.00
N137   N     0.36282   0.67164   0.41505   0.00000  Uiso   1.00
N138   N     0.20739   0.57974   0.09962   0.00000  Uiso   1.00
C139   C     0.90494   0.33463   0.32458   0.00000  Uiso   1.00
C140   C     0.81262   0.39004   0.31845   0.00000  Uiso   1.00
C141   C     0.68464   0.38705   0.34097   0.00000  Uiso   1.00
C142   C     0.61634   0.44299   0.33061   0.00000  Uiso   1.00
C143   C     0.46419   0.52037   0.32587   0.00000  Uiso   1.00
C144   C     0.96612   0.33013   0.21326   0.00000  Uiso   1.00
C145   C     0.96721   0.27675   0.14736   0.00000  Uiso   1.00
C146   C     0.02816   0.28226   0.04845   0.00000  Uiso   1.00
C147   C     0.11439   0.26660   0.88045   0.00000  Uiso   1.00
C148   C     0.00894   0.35546   0.40194   0.00000  Uiso   1.00
C149   C     0.04607   0.32338   0.49466   0.00000  Uiso   1.00
C150   C     0.14308   0.35020   0.55460   0.00000  Uiso   1.00
C151   C     0.29580   0.37388   0.67954   0.00000  Uiso   1.00
C152   C     0.01124   0.43931   0.26611   0.00000  Uiso   1.00
C153   C     0.87035   0.44690   0.28669   0.00000  Uiso   1.00
C154   C     0.80224   0.50286   0.27629   0.00000  Uiso   1.00
C155   C     0.67418   0.49995   0.29880   0.00000  Uiso   1.00
C156   C     0.02385   0.38698   0.18150   0.00000  Uiso   1.00
C157   C     0.08481   0.39256   0.08267   0.00000  Uiso   1.00
C158   C     0.08600   0.33921   0.01664   0.00000  Uiso   1.00
C159   C     0.06667   0.41232   0.37018   0.00000  Uiso   1.00
C160   C     0.16366   0.43919   0.42998   0.00000  Uiso   1.00
C161   C     0.20092   0.40716   0.52278   0.00000  Uiso   1.00
H162   H     0.86000   0.29037   0.34929   0.00000  Uiso   1.00
H163   H     0.63999   0.34304   0.36554   0.00000  Uiso   1.00
H164   H     0.92254   0.23276   0.17196   0.00000  Uiso   1.00
H165   H     0.00137   0.27938   0.51921   0.00000  Uiso   1.00
H166   H     0.42152   0.42650   0.36951   0.00000  Uiso   1.00
H167   H     0.01732   0.19397   0.96135   0.00000  Uiso   1.00
H168   H     0.18355   0.29228   0.69360   0.00000  Uiso   1.00
H169   H     0.05619   0.48357   0.24138   0.00000  Uiso   1.00
H170   H     0.84694   0.54685   0.25171   0.00000  Uiso   1.00
H171   H     0.12949   0.43657   0.05813   0.00000  Uiso   1.00
H172   H     0.20831   0.48319   0.40538   0.00000  Uiso   1.00
H173   H     0.58949   0.59192   0.27712   0.00000  Uiso   1.00
H174   H     0.18530   0.35938   0.86896   0.00000  Uiso   1.00
H175   H     0.35152   0.45769   0.60121   0.00000  Uiso   1.00
O176   O     0.36431   0.54734   0.33202   0.00000  Uiso   1.00
O177   O     0.14600   0.24226   0.79655   0.00000  Uiso   1.00
O178   O     0.36408   0.37124   0.75724   0.00000  Uiso   1.00
N179   N     0.48978   0.45675   0.34637   0.00000  Uiso   1.00
N180   N     0.04680   0.23935   0.96476   0.00000  Uiso   1.00
N181   N     0.20223   0.33125   0.64933   0.00000  Uiso   1.00
N182   N     0.58016   0.54576   0.29665   0.00000  Uiso   1.00
N183   N     0.13718   0.32836   0.91505   0.00000  Uiso   1.00
N184   N     0.29261   0.42026   0.59962   0.00000  Uiso   1.00
