data_job_07086
_audit_creation_date              2018-12-19
_audit_creation_method            'Materials Studio'
_symmetry_space_group_name_H-M    'P1'
_symmetry_Int_Tables_number       1
_symmetry_cell_setting            triclinic
loop_
_symmetry_equiv_pos_as_xyz
  x,y,z
_cell_length_a                    20.4647
_cell_length_b                    23.2434
_cell_length_c                    22.3067
_cell_angle_alpha                 99.6330
_cell_angle_beta                  88.5278
_cell_angle_gamma                 108.8760
loop_
_atom_site_label
_atom_site_type_symbol
_atom_site_fract_x
_atom_site_fract_y
_atom_site_fract_z
_atom_site_U_iso_or_equiv
_atom_site_adp_type
_atom_site_occupancy
C1     C     0.93242   0.27599   0.02999   0.00000  Uiso   1.00
C2     C     0.98305   0.33672   0.06178   0.00000  Uiso   1.00
C3     C     0.97861   0.36506   0.12095   0.00000  Uiso   1.00
C4     C     0.03004   0.42046   0.14163   0.00000  Uiso   1.00
C5     C     0.10043   0.51081   0.19664   0.00000  Uiso   1.00
C6     C     0.90681   0.29009   0.97229   0.00000  Uiso   1.00
C7     C     0.83827   0.27921   0.95622   0.00000  Uiso   1.00
C8     C     0.82552   0.29535   0.90156   0.00000  Uiso   1.00
C9     C     0.77755   0.31326   0.81763   0.00000  Uiso   1.00
C10    C     0.97540   0.23404   0.00895   0.00000  Uiso   1.00
C11    C     0.96452   0.17603   0.02369   0.00000  Uiso   1.00
C12    C     0.00952   0.14497   0.99988   0.00000  Uiso   1.00
C13    C     0.06805   0.07586   0.97286   0.00000  Uiso   1.00
C14    C     0.03166   0.32397   0.96149   0.00000  Uiso   1.00
C15    C     0.03695   0.36278   0.02457   0.00000  Uiso   1.00
C16    C     0.08840   0.41815   0.04517   0.00000  Uiso   1.00
C17    C     0.08404   0.44656   0.10436   0.00000  Uiso   1.00
C18    C     0.96071   0.31615   0.93509   0.00000  Uiso   1.00
C19    C     0.94806   0.33230   0.88044   0.00000  Uiso   1.00
C20    C     0.87951   0.32145   0.86429   0.00000  Uiso   1.00
C21    C     0.02931   0.26010   0.97175   0.00000  Uiso   1.00
C22    C     0.07432   0.22912   0.94791   0.00000  Uiso   1.00
C23    C     0.06351   0.17107   0.96261   0.00000  Uiso   1.00
H24    H     0.89046   0.25570   0.05895   0.00000  Uiso   1.00
H25    H     0.93688   0.34488   0.14972   0.00000  Uiso   1.00
H26    H     0.79657   0.25904   0.98502   0.00000  Uiso   1.00
H27    H     0.92281   0.15588   0.05248   0.00000  Uiso   1.00
H28    H     0.01212   0.45526   0.23395   0.00000  Uiso   1.00
H29    H     0.71625   0.27424   0.88665   0.00000  Uiso   1.00
H30    H     0.98245   0.05670   0.02890   0.00000  Uiso   1.00
H31    H     0.07362   0.34426   0.93253   0.00000  Uiso   1.00
H32    H     0.13010   0.43830   0.01637   0.00000  Uiso   1.00
H33    H     0.98978   0.35246   0.85166   0.00000  Uiso   1.00
H34    H     0.11602   0.24930   0.91912   0.00000  Uiso   1.00
H35    H     0.16894   0.53109   0.12571   0.00000  Uiso   1.00
H36    H     0.87306   0.35006   0.77841   0.00000  Uiso   1.00
H37    H     0.13927   0.13252   0.92066   0.00000  Uiso   1.00
O38    O     0.12437   0.55345   0.23726   0.00000  Uiso   1.00
O39    O     0.73619   0.31595   0.78161   0.00000  Uiso   1.00
O40    O     0.08545   0.03054   0.96824   0.00000  Uiso   1.00
N41    N     0.04128   0.46019   0.19697   0.00000  Uiso   1.00
N42    N     0.76466   0.29096   0.87228   0.00000  Uiso   1.00
N43    N     0.01353   0.08757   0.00525   0.00000  Uiso   1.00
N44    N     0.12567   0.50100   0.13873   0.00000  Uiso   1.00
N45    N     0.84904   0.33176   0.81403   0.00000  Uiso   1.00
N46    N     0.09791   0.12837   0.94701   0.00000  Uiso   1.00
C47    C     0.02492   0.04523   0.29618   0.00000  Uiso   1.00
C48    C     0.05695   0.07383   0.35963   0.00000  Uiso   1.00
C49    C     0.12681   0.09278   0.37523   0.00000  Uiso   1.00
C50    C     0.14571   0.11780   0.43572   0.00000  Uiso   1.00
C51    C     0.20292   0.16130   0.52766   0.00000  Uiso   1.00
C52    C     0.97142   0.98344   0.30262   0.00000  Uiso   1.00
C53    C     0.96937   0.92639   0.27028   0.00000  Uiso   1.00
C54    C     0.91627   0.87533   0.28278   0.00000  Uiso   1.00
C55    C     0.84067   0.77850   0.28618   0.00000  Uiso   1.00
C56    C     0.98428   0.08577   0.28092   0.00000  Uiso   1.00
C57    C     0.99303   0.11475   0.23031   0.00000  Uiso   1.00
C58    C     0.95075   0.14984   0.22453   0.00000  Uiso   1.00
C59    C     0.89511   0.21190   0.19423   0.00000  Uiso   1.00
C60    C     0.93427   0.05599   0.37589   0.00000  Uiso   1.00
C61    C     0.00770   0.07967   0.40292   0.00000  Uiso   1.00
C62    C     0.02651   0.10468   0.46341   0.00000  Uiso   1.00
C63    C     0.09639   0.12366   0.47909   0.00000  Uiso   1.00
C64    C     0.92218   0.98928   0.34592   0.00000  Uiso   1.00
C65    C     0.86907   0.93829   0.35846   0.00000  Uiso   1.00
C66    C     0.86694   0.88118   0.32615   0.00000  Uiso   1.00
C67    C     0.93504   0.09162   0.32421   0.00000  Uiso   1.00
C68    C     0.89273   0.12666   0.31851   0.00000  Uiso   1.00
C69    C     0.90142   0.15569   0.26791   0.00000  Uiso   1.00
H70    H     0.06326   0.04067   0.26248   0.00000  Uiso   1.00
H71    H     0.16490   0.08824   0.34171   0.00000  Uiso   1.00
H72    H     0.00748   0.92188   0.23677   0.00000  Uiso   1.00
H73    H     0.03114   0.11022   0.19682   0.00000  Uiso   1.00
H74    H     0.25587   0.14353   0.44865   0.00000  Uiso   1.00
H75    H     0.92393   0.79276   0.22737   0.00000  Uiso   1.00
H76    H     0.97381   0.18991   0.14312   0.00000  Uiso   1.00
H77    H     0.89593   0.06054   0.40960   0.00000  Uiso   1.00
H78    H     0.98839   0.10920   0.49690   0.00000  Uiso   1.00
H79    H     0.83097   0.94284   0.39197   0.00000  Uiso   1.00
H80    H     0.85463   0.13117   0.35202   0.00000  Uiso   1.00
H81    H     0.11261   0.16054   0.57461   0.00000  Uiso   1.00
H82    H     0.78067   0.80977   0.35333   0.00000  Uiso   1.00
H83    H     0.83056   0.20692   0.26909   0.00000  Uiso   1.00
O84    O     0.24808   0.18367   0.56641   0.00000  Uiso   1.00
O85    O     0.81258   0.72347   0.27610   0.00000  Uiso   1.00
O86    O     0.87804   0.24452   0.16557   0.00000  Uiso   1.00
N87    N     0.20946   0.14087   0.46631   0.00000  Uiso   1.00
N88    N     0.89913   0.81292   0.25944   0.00000  Uiso   1.00
N89    N     0.94575   0.18420   0.18066   0.00000  Uiso   1.00
N90    N     0.13238   0.15002   0.53409   0.00000  Uiso   1.00
N91    N     0.82204   0.82207   0.32722   0.00000  Uiso   1.00
N92    N     0.86867   0.19335   0.24844   0.00000  Uiso   1.00
C93    C     0.25073   0.93908   0.00998   0.00000  Uiso   1.00
C94    C     0.31216   0.99431   0.03691   0.00000  Uiso   1.00
C95    C     0.32276   0.05527   0.03152   0.00000  Uiso   1.00
C96    C     0.38217   0.09904   0.05943   0.00000  Uiso   1.00
C97    C     0.47040   0.18733   0.09633   0.00000  Uiso   1.00
C98    C     0.28111   0.89445   0.97037   0.00000  Uiso   1.00
C99    C     0.26559   0.87144   0.90904   0.00000  Uiso   1.00
C100   C     0.29885   0.83115   0.88094   0.00000  Uiso   1.00
C101   C     0.33884   0.76436   0.81454   0.00000  Uiso   1.00
C102   C     0.21833   0.90746   0.06320   0.00000  Uiso   1.00
C103   C     0.15003   0.89538   0.07992   0.00000  Uiso   1.00
C104   C     0.13044   0.86603   0.12997   0.00000  Uiso   1.00
C105   C     0.07296   0.81946   0.20772   0.00000  Uiso   1.00
C106   C     0.33740   0.90842   0.06914   0.00000  Uiso   1.00
C107   C     0.35923   0.97765   0.06904   0.00000  Uiso   1.00
C108   C     0.41864   0.02135   0.09697   0.00000  Uiso   1.00
C109   C     0.42932   0.08236   0.09162   0.00000  Uiso   1.00
C110   C     0.32818   0.87779   0.00250   0.00000  Uiso   1.00
C111   C     0.36147   0.83752   0.97449   0.00000  Uiso   1.00
C112   C     0.34601   0.81446   0.91313   0.00000  Uiso   1.00
C113   C     0.26541   0.89081   0.09534   0.00000  Uiso   1.00
C114   C     0.24592   0.86147   0.14537   0.00000  Uiso   1.00
C115   C     0.17760   0.84935   0.16216   0.00000  Uiso   1.00
H116   H     0.21409   0.95204   0.98496   0.00000  Uiso   1.00
H117   H     0.28632   0.06814   0.00664   0.00000  Uiso   1.00
H118   H     0.22915   0.88433   0.88419   0.00000  Uiso   1.00
H119   H     0.11362   0.90828   0.05504   0.00000  Uiso   1.00
H120   H     0.38717   0.18950   0.04483   0.00000  Uiso   1.00
H121   H     0.26662   0.80193   0.78663   0.00000  Uiso   1.00
H122   H     0.02299   0.85242   0.14691   0.00000  Uiso   1.00
H123   H     0.37405   0.89545   0.09415   0.00000  Uiso   1.00
H124   H     0.45506   0.00844   0.12183   0.00000  Uiso   1.00
H125   H     0.39789   0.82464   0.99937   0.00000  Uiso   1.00
H126   H     0.28236   0.84858   0.17022   0.00000  Uiso   1.00
H127   H     0.52413   0.14105   0.13832   0.00000  Uiso   1.00
H128   H     0.40357   0.75348   0.88011   0.00000  Uiso   1.00
H129   H     0.15995   0.80397   0.24040   0.00000  Uiso   1.00
O130   O     0.50607   0.24063   0.10780   0.00000  Uiso   1.00
O131   O     0.34789   0.73214   0.76904   0.00000  Uiso   1.00
O132   O     0.02826   0.79838   0.24173   0.00000  Uiso   1.00
N133   N     0.40828   0.16260   0.06305   0.00000  Uiso   1.00
N134   N     0.29558   0.80024   0.82164   0.00000  Uiso   1.00
N135   N     0.06780   0.84743   0.15846   0.00000  Uiso   1.00
N136   N     0.48198   0.13653   0.11335   0.00000  Uiso   1.00
N137   N     0.36927   0.77417   0.87194   0.00000  Uiso   1.00
N138   N     0.14149   0.82136   0.20877   0.00000  Uiso   1.00
C139   C     0.48852   0.45738   0.77941   0.00000  Uiso   1.00
C140   C     0.52157   0.51029   0.83107   0.00000  Uiso   1.00
C141   C     0.51680   0.56923   0.83781   0.00000  Uiso   1.00
C142   C     0.55071   0.61107   0.88819   0.00000  Uiso   1.00
C143   C     0.59632   0.69574   0.96202   0.00000  Uiso   1.00
C144   C     0.44376   0.40436   0.80956   0.00000  Uiso   1.00
C145   C     0.37357   0.37423   0.79821   0.00000  Uiso   1.00
C146   C     0.34199   0.32688   0.83048   0.00000  Uiso   1.00
C147   C     0.26680   0.24706   0.87088   0.00000  Uiso   1.00
C148   C     0.54732   0.43657   0.75070   0.00000  Uiso   1.00
C149   C     0.56419   0.43350   0.68986   0.00000  Uiso   1.00
C150   C     0.61979   0.41326   0.67256   0.00000  Uiso   1.00
C151   C     0.70540   0.38345   0.62157   0.00000  Uiso   1.00
C152   C     0.55723   0.42686   0.85689   0.00000  Uiso   1.00
C153   C     0.55889   0.49371   0.87316   0.00000  Uiso   1.00
C154   C     0.59282   0.53547   0.92353   0.00000  Uiso   1.00
C155   C     0.58810   0.59447   0.93035   0.00000  Uiso   1.00
C156   C     0.48107   0.38778   0.85164   0.00000  Uiso   1.00
C157   C     0.44959   0.34046   0.88393   0.00000  Uiso   1.00
C158   C     0.37937   0.31028   0.87263   0.00000  Uiso   1.00
C159   C     0.58464   0.41999   0.79279   0.00000  Uiso   1.00
C160   C     0.64021   0.39974   0.77558   0.00000  Uiso   1.00
C161   C     0.65718   0.39665   0.71472   0.00000  Uiso   1.00
H162   H     0.45946   0.47028   0.74665   0.00000  Uiso   1.00
H163   H     0.48791   0.58204   0.80524   0.00000  Uiso   1.00
H164   H     0.34471   0.38706   0.76564   0.00000  Uiso   1.00
H165   H     0.53530   0.44633   0.65731   0.00000  Uiso   1.00
H166   H     0.53588   0.69864   0.88876   0.00000  Uiso   1.00
H167   H     0.23394   0.28750   0.80525   0.00000  Uiso   1.00
H168   H     0.63584   0.41247   0.57680   0.00000  Uiso   1.00
H169   H     0.58628   0.41395   0.88965   0.00000  Uiso   1.00
H170   H     0.62169   0.52263   0.95609   0.00000  Uiso   1.00
H171   H     0.47849   0.32765   0.91649   0.00000  Uiso   1.00
H172   H     0.66908   0.38692   0.80816   0.00000  Uiso   1.00
H173   H     0.64446   0.65041   0.01120   0.00000  Uiso   1.00
H174   H     0.34252   0.23927   0.92769   0.00000  Uiso   1.00
H175   H     0.74442   0.36425   0.69924   0.00000  Uiso   1.00
O176   O     0.61116   0.74703   0.99112   0.00000  Uiso   1.00
O177   O     0.21502   0.20762   0.88154   0.00000  Uiso   1.00
O178   O     0.74231   0.37159   0.58183   0.00000  Uiso   1.00
N179   N     0.55659   0.67238   0.90846   0.00000  Uiso   1.00
N180   N     0.27428   0.28799   0.83038   0.00000  Uiso   1.00
N181   N     0.65002   0.40482   0.61680   0.00000  Uiso   1.00
N182   N     0.61502   0.64643   0.97434   0.00000  Uiso   1.00
N183   N     0.33271   0.26204   0.89626   0.00000  Uiso   1.00
N184   N     0.70845   0.37887   0.68268   0.00000  Uiso   1.00
C185   C     0.49856   0.78633   0.47221   0.00000  Uiso   1.00
C186   C     0.54738   0.85120   0.49504   0.00000  Uiso   1.00
C187   C     0.61385   0.87650   0.47541   0.00000  Uiso   1.00
C188   C     0.65018   0.93660   0.50190   0.00000  Uiso   1.00
C189   C     0.73041   0.03224   0.53056   0.00000  Uiso   1.00
C190   C     0.43297   0.79437   0.44939   0.00000  Uiso   1.00
C191   C     0.40323   0.77188   0.39138   0.00000  Uiso   1.00
C192   C     0.34324   0.78413   0.37945   0.00000  Uiso   1.00
C193   C     0.24581   0.79150   0.33725   0.00000  Uiso   1.00
C194   C     0.47855   0.75573   0.52835   0.00000  Uiso   1.00
C195   C     0.48713   0.70075   0.53673   0.00000  Uiso   1.00
C196   C     0.46550   0.68046   0.59128   0.00000  Uiso   1.00
C197   C     0.43884   0.62784   0.67168   0.00000  Uiso   1.00
C198   C     0.44488   0.84807   0.55416   0.00000  Uiso   1.00
C199   C     0.51822   0.88474   0.53956   0.00000  Uiso   1.00
C200   C     0.55446   0.94481   0.56609   0.00000  Uiso   1.00
C201   C     0.62097   0.97020   0.54650   0.00000  Uiso   1.00
C202   C     0.40381   0.82791   0.49390   0.00000  Uiso   1.00
C203   C     0.34384   0.84019   0.48206   0.00000  Uiso   1.00
C204   C     0.31403   0.81773   0.42404   0.00000  Uiso   1.00
C205   C     0.44939   0.78927   0.57287   0.00000  Uiso   1.00
C206   C     0.42774   0.76906   0.62741   0.00000  Uiso   1.00
C207   C     0.43628   0.71406   0.63587   0.00000  Uiso   1.00
H208   H     0.52126   0.76022   0.43755   0.00000  Uiso   1.00
H209   H     0.63640   0.85053   0.44096   0.00000  Uiso   1.00
H210   H     0.42581   0.74592   0.35695   0.00000  Uiso   1.00
H211   H     0.50969   0.67481   0.50228   0.00000  Uiso   1.00
H212   H     0.75118   0.96546   0.46435   0.00000  Uiso   1.00
H213   H     0.30713   0.74487   0.28721   0.00000  Uiso   1.00
H214   H     0.48401   0.59490   0.59367   0.00000  Uiso   1.00
H215   H     0.42217   0.87418   0.58882   0.00000  Uiso   1.00
H216   H     0.53188   0.97075   0.60053   0.00000  Uiso   1.00
H217   H     0.32129   0.86614   0.51652   0.00000  Uiso   1.00
H218   H     0.40517   0.79503   0.66185   0.00000  Uiso   1.00
H219   H     0.66635   0.06304   0.59387   0.00000  Uiso   1.00
H220   H     0.22229   0.84244   0.41672   0.00000  Uiso   1.00
H221   H     0.39918   0.69248   0.72318   0.00000  Uiso   1.00
O222   O     0.78271   0.07573   0.53407   0.00000  Uiso   1.00
O223   O     0.20012   0.78630   0.30167   0.00000  Uiso   1.00
O224   O     0.43220   0.58956   0.70373   0.00000  Uiso   1.00
N225   N     0.71616   0.97517   0.49323   0.00000  Uiso   1.00
N226   N     0.30101   0.76893   0.32762   0.00000  Uiso   1.00
N227   N     0.46636   0.62872   0.61412   0.00000  Uiso   1.00
N228   N     0.67052   0.02767   0.56293   0.00000  Uiso   1.00
N229   N     0.25536   0.82144   0.39731   0.00000  Uiso   1.00
N230   N     0.42072   0.68122   0.68381   0.00000  Uiso   1.00
C231   C     0.76141   0.50176   0.49425   0.00000  Uiso   1.00
C232   C     0.82952   0.53571   0.52964   0.00000  Uiso   1.00
C233   C     0.83918   0.54389   0.59224   0.00000  Uiso   1.00
C234   C     0.90545   0.57628   0.61587   0.00000  Uiso   1.00
C235   C     0.00292   0.62543   0.67654   0.00000  Uiso   1.00
C236   C     0.77506   0.45148   0.44735   0.00000  Uiso   1.00
C237   C     0.73891   0.38883   0.44076   0.00000  Uiso   1.00
C238   C     0.75933   0.35032   0.39512   0.00000  Uiso   1.00
C239   C     0.77220   0.26869   0.32802   0.00000  Uiso   1.00
C240   C     0.74854   0.54754   0.45825   0.00000  Uiso   1.00
C241   C     0.69008   0.56566   0.46080   0.00000  Uiso   1.00
C242   C     0.68817   0.60801   0.42431   0.00000  Uiso   1.00
C243   C     0.65987   0.67554   0.37412   0.00000  Uiso   1.00
C244   C     0.86194   0.54475   0.42491   0.00000  Uiso   1.00
C245   C     0.88413   0.55906   0.49198   0.00000  Uiso   1.00
C246   C     0.95041   0.59146   0.51552   0.00000  Uiso   1.00
C247   C     0.96016   0.59968   0.57814   0.00000  Uiso   1.00
C248   C     0.82966   0.47483   0.40969   0.00000  Uiso   1.00
C249   C     0.85014   0.43640   0.36405   0.00000  Uiso   1.00
C250   C     0.81403   0.37371   0.35739   0.00000  Uiso   1.00
C251   C     0.80315   0.57090   0.42058   0.00000  Uiso   1.00
C252   C     0.80132   0.61323   0.38408   0.00000  Uiso   1.00
C253   C     0.74287   0.63141   0.38658   0.00000  Uiso   1.00
H254   H     0.71889   0.48357   0.52357   0.00000  Uiso   1.00
H255   H     0.79690   0.52581   0.62137   0.00000  Uiso   1.00
H256   H     0.69664   0.37077   0.46991   0.00000  Uiso   1.00
H257   H     0.64783   0.54758   0.48995   0.00000  Uiso   1.00
H258   H     0.90749   0.58291   0.71318   0.00000  Uiso   1.00
H259   H     0.69607   0.25601   0.39381   0.00000  Uiso   1.00
H260   H     0.59313   0.62884   0.43606   0.00000  Uiso   1.00
H261   H     0.90446   0.56293   0.39559   0.00000  Uiso   1.00
H262   H     0.99266   0.60952   0.48636   0.00000  Uiso   1.00
H263   H     0.89240   0.45449   0.33491   0.00000  Uiso   1.00
H264   H     0.84359   0.63129   0.35494   0.00000  Uiso   1.00
H265   H     0.06637   0.65085   0.60361   0.00000  Uiso   1.00
H266   H     0.85494   0.32395   0.28424   0.00000  Uiso   1.00
H267   H     0.75202   0.69678   0.32649   0.00000  Uiso   1.00
O268   O     0.04160   0.64608   0.72041   0.00000  Uiso   1.00
O269   O     0.76422   0.21721   0.30141   0.00000  Uiso   1.00
O270   O     0.62918   0.70634   0.35684   0.00000  Uiso   1.00
N271   N     0.93277   0.59251   0.67493   0.00000  Uiso   1.00
N272   N     0.73511   0.28689   0.37635   0.00000  Uiso   1.00
N273   N     0.63887   0.63543   0.41584   0.00000  Uiso   1.00
N274   N     0.01827   0.62908   0.61597   0.00000  Uiso   1.00
N275   N     0.82061   0.32345   0.31739   0.00000  Uiso   1.00
N276   N     0.72437   0.67199   0.35688   0.00000  Uiso   1.00
C277   C     0.06758   0.72401   0.97001   0.00000  Uiso   1.00
C278   C     0.01695   0.66328   0.93822   0.00000  Uiso   1.00
C279   C     0.02139   0.63494   0.87905   0.00000  Uiso   1.00
C280   C     0.96996   0.57954   0.85837   0.00000  Uiso   1.00
C281   C     0.89957   0.48919   0.80336   0.00000  Uiso   1.00
C282   C     0.09319   0.70991   0.02771   0.00000  Uiso   1.00
C283   C     0.16173   0.72079   0.04378   0.00000  Uiso   1.00
C284   C     0.17448   0.70465   0.09844   0.00000  Uiso   1.00
C285   C     0.22245   0.68674   0.18237   0.00000  Uiso   1.00
C286   C     0.02460   0.76596   0.99105   0.00000  Uiso   1.00
C287   C     0.03548   0.82397   0.97631   0.00000  Uiso   1.00
C288   C     0.99048   0.85503   0.00012   0.00000  Uiso   1.00
C289   C     0.93195   0.92414   0.02714   0.00000  Uiso   1.00
C290   C     0.96834   0.67603   0.03851   0.00000  Uiso   1.00
C291   C     0.96305   0.63722   0.97543   0.00000  Uiso   1.00
C292   C     0.91160   0.58185   0.95483   0.00000  Uiso   1.00
C293   C     0.91596   0.55344   0.89564   0.00000  Uiso   1.00
C294   C     0.03929   0.68385   0.06491   0.00000  Uiso   1.00
C295   C     0.05194   0.66770   0.11956   0.00000  Uiso   1.00
C296   C     0.12049   0.67855   0.13571   0.00000  Uiso   1.00
C297   C     0.97069   0.73990   0.02825   0.00000  Uiso   1.00
C298   C     0.92568   0.77088   0.05209   0.00000  Uiso   1.00
C299   C     0.93649   0.82893   0.03739   0.00000  Uiso   1.00
H300   H     0.10954   0.74430   0.94105   0.00000  Uiso   1.00
H301   H     0.06312   0.65512   0.85028   0.00000  Uiso   1.00
H302   H     0.20343   0.74096   0.01498   0.00000  Uiso   1.00
H303   H     0.07719   0.84412   0.94752   0.00000  Uiso   1.00
H304   H     0.98788   0.54474   0.76605   0.00000  Uiso   1.00
H305   H     0.28375   0.72576   0.11335   0.00000  Uiso   1.00
H306   H     0.01755   0.94330   0.97110   0.00000  Uiso   1.00
H307   H     0.92638   0.65574   0.06747   0.00000  Uiso   1.00
H308   H     0.86990   0.56170   0.98363   0.00000  Uiso   1.00
H309   H     0.01022   0.64754   0.14834   0.00000  Uiso   1.00
H310   H     0.88398   0.75070   0.08088   0.00000  Uiso   1.00
H311   H     0.83106   0.46891   0.87429   0.00000  Uiso   1.00
H312   H     0.12694   0.64994   0.22159   0.00000  Uiso   1.00
H313   H     0.86073   0.86748   0.07934   0.00000  Uiso   1.00
O314   O     0.87563   0.44655   0.76274   0.00000  Uiso   1.00
O315   O     0.26381   0.68405   0.21839   0.00000  Uiso   1.00
O316   O     0.91455   0.96946   0.03176   0.00000  Uiso   1.00
N317   N     0.95872   0.53981   0.80303   0.00000  Uiso   1.00
N318   N     0.23534   0.70904   0.12772   0.00000  Uiso   1.00
N319   N     0.98647   0.91243   0.99475   0.00000  Uiso   1.00
N320   N     0.87433   0.49900   0.86127   0.00000  Uiso   1.00
N321   N     0.15096   0.66824   0.18597   0.00000  Uiso   1.00
N322   N     0.90209   0.87163   0.05299   0.00000  Uiso   1.00
C323   C     0.97508   0.95477   0.70382   0.00000  Uiso   1.00
C324   C     0.94305   0.92617   0.64037   0.00000  Uiso   1.00
C325   C     0.87319   0.90722   0.62477   0.00000  Uiso   1.00
C326   C     0.85429   0.88220   0.56428   0.00000  Uiso   1.00
C327   C     0.79708   0.83870   0.47234   0.00000  Uiso   1.00
C328   C     0.02858   0.01656   0.69738   0.00000  Uiso   1.00
C329   C     0.03063   0.07361   0.72972   0.00000  Uiso   1.00
C330   C     0.08373   0.12467   0.71722   0.00000  Uiso   1.00
C331   C     0.15933   0.22150   0.71382   0.00000  Uiso   1.00
C332   C     0.01572   0.91423   0.71908   0.00000  Uiso   1.00
C333   C     0.00697   0.88525   0.76969   0.00000  Uiso   1.00
C334   C     0.04925   0.85016   0.77547   0.00000  Uiso   1.00
C335   C     0.10489   0.78810   0.80577   0.00000  Uiso   1.00
C336   C     0.06573   0.94401   0.62411   0.00000  Uiso   1.00
C337   C     0.99230   0.92033   0.59708   0.00000  Uiso   1.00
C338   C     0.97349   0.89532   0.53659   0.00000  Uiso   1.00
C339   C     0.90361   0.87634   0.52091   0.00000  Uiso   1.00
C340   C     0.07782   0.01072   0.65408   0.00000  Uiso   1.00
C341   C     0.13093   0.06171   0.64154   0.00000  Uiso   1.00
C342   C     0.13306   0.11882   0.67385   0.00000  Uiso   1.00
C343   C     0.06496   0.90838   0.67579   0.00000  Uiso   1.00
C344   C     0.10727   0.87334   0.68149   0.00000  Uiso   1.00
C345   C     0.09858   0.84431   0.73209   0.00000  Uiso   1.00
H346   H     0.93674   0.95933   0.73752   0.00000  Uiso   1.00
H347   H     0.83510   0.91176   0.65829   0.00000  Uiso   1.00
H348   H     0.99252   0.07812   0.76323   0.00000  Uiso   1.00
H349   H     0.96886   0.88978   0.80318   0.00000  Uiso   1.00
H350   H     0.74413   0.85647   0.55135   0.00000  Uiso   1.00
H351   H     0.07607   0.20724   0.77263   0.00000  Uiso   1.00
H352   H     0.02619   0.81009   0.85688   0.00000  Uiso   1.00
H353   H     0.10407   0.93946   0.59040   0.00000  Uiso   1.00
H354   H     0.01161   0.89080   0.50310   0.00000  Uiso   1.00
H355   H     0.16903   0.05716   0.60803   0.00000  Uiso   1.00
H356   H     0.14537   0.86883   0.64798   0.00000  Uiso   1.00
H357   H     0.88739   0.83946   0.42539   0.00000  Uiso   1.00
H358   H     0.21933   0.19023   0.64667   0.00000  Uiso   1.00
H359   H     0.16944   0.79308   0.73091   0.00000  Uiso   1.00
O360   O     0.75192   0.81633   0.43359   0.00000  Uiso   1.00
O361   O     0.18742   0.27653   0.72390   0.00000  Uiso   1.00
O362   O     0.12196   0.75548   0.83443   0.00000  Uiso   1.00
N363   N     0.79054   0.85913   0.53369   0.00000  Uiso   1.00
N364   N     0.10087   0.18708   0.74056   0.00000  Uiso   1.00
N365   N     0.05425   0.81580   0.81934   0.00000  Uiso   1.00
N366   N     0.86762   0.84998   0.46591   0.00000  Uiso   1.00
N367   N     0.17796   0.17793   0.67278   0.00000  Uiso   1.00
N368   N     0.13133   0.80665   0.75156   0.00000  Uiso   1.00
C369   C     0.74927   0.06092   0.99002   0.00000  Uiso   1.00
C370   C     0.68784   0.00569   0.96309   0.00000  Uiso   1.00
C371   C     0.67724   0.94473   0.96848   0.00000  Uiso   1.00
C372   C     0.61783   0.90096   0.94057   0.00000  Uiso   1.00
C373   C     0.52960   0.81267   0.90367   0.00000  Uiso   1.00
C374   C     0.71889   0.10555   0.02963   0.00000  Uiso   1.00
C375   C     0.73441   0.12856   0.09096   0.00000  Uiso   1.00
C376   C     0.70115   0.16885   0.11906   0.00000  Uiso   1.00
C377   C     0.66116   0.23564   0.18546   0.00000  Uiso   1.00
C378   C     0.78167   0.09254   0.93680   0.00000  Uiso   1.00
C379   C     0.84997   0.10462   0.92008   0.00000  Uiso   1.00
C380   C     0.86956   0.13397   0.87003   0.00000  Uiso   1.00
C381   C     0.92704   0.18054   0.79228   0.00000  Uiso   1.00
C382   C     0.66260   0.09158   0.93086   0.00000  Uiso   1.00
C383   C     0.64077   0.02235   0.93096   0.00000  Uiso   1.00
C384   C     0.58136   0.97865   0.90303   0.00000  Uiso   1.00
C385   C     0.57068   0.91764   0.90838   0.00000  Uiso   1.00
C386   C     0.67182   0.12221   0.99750   0.00000  Uiso   1.00
C387   C     0.63853   0.16248   0.02551   0.00000  Uiso   1.00
C388   C     0.65399   0.18554   0.08687   0.00000  Uiso   1.00
C389   C     0.73459   0.10919   0.90466   0.00000  Uiso   1.00
C390   C     0.75408   0.13853   0.85463   0.00000  Uiso   1.00
C391   C     0.82240   0.15065   0.83784   0.00000  Uiso   1.00
H392   H     0.78591   0.04796   0.01504   0.00000  Uiso   1.00
H393   H     0.71368   0.93186   0.99336   0.00000  Uiso   1.00
H394   H     0.77085   0.11567   0.11581   0.00000  Uiso   1.00
H395   H     0.88638   0.09172   0.94496   0.00000  Uiso   1.00
H396   H     0.61283   0.81050   0.95517   0.00000  Uiso   1.00
H397   H     0.73338   0.19807   0.21337   0.00000  Uiso   1.00
H398   H     0.97701   0.14758   0.85309   0.00000  Uiso   1.00
H399   H     0.62595   0.10455   0.90585   0.00000  Uiso   1.00
H400   H     0.54494   0.99156   0.87817   0.00000  Uiso   1.00
H401   H     0.60211   0.17536   0.00063   0.00000  Uiso   1.00
H402   H     0.71764   0.15142   0.82978   0.00000  Uiso   1.00
H403   H     0.47587   0.85895   0.86168   0.00000  Uiso   1.00
H404   H     0.59643   0.24652   0.11989   0.00000  Uiso   1.00
H405   H     0.84005   0.19603   0.75960   0.00000  Uiso   1.00
O406   O     0.49393   0.75937   0.89220   0.00000  Uiso   1.00
O407   O     0.65211   0.26786   0.23096   0.00000  Uiso   1.00
O408   O     0.97174   0.20162   0.75827   0.00000  Uiso   1.00
N409   N     0.59172   0.83740   0.93695   0.00000  Uiso   1.00
N410   N     0.70442   0.19976   0.17836   0.00000  Uiso   1.00
N411   N     0.93220   0.15257   0.84154   0.00000  Uiso   1.00
N412   N     0.51802   0.86347   0.88665   0.00000  Uiso   1.00
N413   N     0.63073   0.22583   0.12806   0.00000  Uiso   1.00
N414   N     0.85851   0.17864   0.79123   0.00000  Uiso   1.00
C415   C     0.51148   0.54262   0.22059   0.00000  Uiso   1.00
C416   C     0.47843   0.48971   0.16893   0.00000  Uiso   1.00
C417   C     0.48320   0.43077   0.16219   0.00000  Uiso   1.00
C418   C     0.44929   0.38893   0.11181   0.00000  Uiso   1.00
C419   C     0.40368   0.30426   0.03798   0.00000  Uiso   1.00
C420   C     0.55624   0.59564   0.19044   0.00000  Uiso   1.00
C421   C     0.62643   0.62577   0.20179   0.00000  Uiso   1.00
C422   C     0.65801   0.67312   0.16952   0.00000  Uiso   1.00
C423   C     0.73320   0.75294   0.12912   0.00000  Uiso   1.00
C424   C     0.45268   0.56343   0.24930   0.00000  Uiso   1.00
C425   C     0.43581   0.56650   0.31014   0.00000  Uiso   1.00
C426   C     0.38021   0.58674   0.32744   0.00000  Uiso   1.00
C427   C     0.29460   0.61655   0.37843   0.00000  Uiso   1.00
C428   C     0.44277   0.57314   0.14311   0.00000  Uiso   1.00
C429   C     0.44111   0.50629   0.12684   0.00000  Uiso   1.00
C430   C     0.40718   0.46453   0.07647   0.00000  Uiso   1.00
C431   C     0.41190   0.40553   0.06965   0.00000  Uiso   1.00
C432   C     0.51893   0.61222   0.14836   0.00000  Uiso   1.00
C433   C     0.55041   0.65954   0.11607   0.00000  Uiso   1.00
C434   C     0.62063   0.68972   0.12737   0.00000  Uiso   1.00
C435   C     0.41536   0.58001   0.20721   0.00000  Uiso   1.00
C436   C     0.35979   0.60026   0.22442   0.00000  Uiso   1.00
C437   C     0.34282   0.60335   0.28528   0.00000  Uiso   1.00
H438   H     0.54054   0.52972   0.25335   0.00000  Uiso   1.00
H439   H     0.51209   0.41796   0.19476   0.00000  Uiso   1.00
H440   H     0.65529   0.61294   0.23436   0.00000  Uiso   1.00
H441   H     0.46470   0.55367   0.34269   0.00000  Uiso   1.00
H442   H     0.46412   0.30136   0.11124   0.00000  Uiso   1.00
H443   H     0.76606   0.71250   0.19475   0.00000  Uiso   1.00
H444   H     0.36416   0.58753   0.42320   0.00000  Uiso   1.00
H445   H     0.41372   0.58605   0.11035   0.00000  Uiso   1.00
H446   H     0.37831   0.47737   0.04391   0.00000  Uiso   1.00
H447   H     0.52151   0.67235   0.08351   0.00000  Uiso   1.00
H448   H     0.33092   0.61308   0.19184   0.00000  Uiso   1.00
H449   H     0.35554   0.34959   0.98880   0.00000  Uiso   1.00
H450   H     0.65748   0.76073   0.07231   0.00000  Uiso   1.00
H451   H     0.25558   0.63575   0.30076   0.00000  Uiso   1.00
O452   O     0.38884   0.25297   0.00888   0.00000  Uiso   1.00
O453   O     0.78498   0.79238   0.11846   0.00000  Uiso   1.00
O454   O     0.25769   0.62841   0.41817   0.00000  Uiso   1.00
N455   N     0.44341   0.32762   0.09154   0.00000  Uiso   1.00
N456   N     0.72572   0.71201   0.16962   0.00000  Uiso   1.00
N457   N     0.34998   0.59518   0.38320   0.00000  Uiso   1.00
N458   N     0.38498   0.35357   0.02566   0.00000  Uiso   1.00
N459   N     0.66729   0.73796   0.10374   0.00000  Uiso   1.00
N460   N     0.29155   0.62113   0.31732   0.00000  Uiso   1.00
C461   C     0.50144   0.21367   0.52779   0.00000  Uiso   1.00
C462   C     0.45262   0.14880   0.50496   0.00000  Uiso   1.00
C463   C     0.38615   0.12350   0.52459   0.00000  Uiso   1.00
C464   C     0.34982   0.06340   0.49810   0.00000  Uiso   1.00
C465   C     0.26959   0.96776   0.46944   0.00000  Uiso   1.00
C466   C     0.56703   0.20563   0.55061   0.00000  Uiso   1.00
C467   C     0.59677   0.22812   0.60862   0.00000  Uiso   1.00
C468   C     0.65676   0.21587   0.62055   0.00000  Uiso   1.00
C469   C     0.75419   0.20850   0.66275   0.00000  Uiso   1.00
C470   C     0.52145   0.24427   0.47165   0.00000  Uiso   1.00
C471   C     0.51287   0.29925   0.46327   0.00000  Uiso   1.00
C472   C     0.53450   0.31954   0.40872   0.00000  Uiso   1.00
C473   C     0.56116   0.37216   0.32832   0.00000  Uiso   1.00
C474   C     0.55512   0.15193   0.44584   0.00000  Uiso   1.00
C475   C     0.48178   0.11526   0.46044   0.00000  Uiso   1.00
C476   C     0.44554   0.05519   0.43391   0.00000  Uiso   1.00
C477   C     0.37903   0.02980   0.45350   0.00000  Uiso   1.00
C478   C     0.59619   0.17209   0.50610   0.00000  Uiso   1.00
C479   C     0.65616   0.15981   0.51794   0.00000  Uiso   1.00
C480   C     0.68597   0.18227   0.57596   0.00000  Uiso   1.00
C481   C     0.55061   0.21073   0.42713   0.00000  Uiso   1.00
C482   C     0.57226   0.23094   0.37259   0.00000  Uiso   1.00
C483   C     0.56372   0.28594   0.36413   0.00000  Uiso   1.00
H484   H     0.47874   0.23978   0.56245   0.00000  Uiso   1.00
H485   H     0.36360   0.14947   0.55904   0.00000  Uiso   1.00
H486   H     0.57419   0.25408   0.64305   0.00000  Uiso   1.00
H487   H     0.49031   0.32519   0.49772   0.00000  Uiso   1.00
H488   H     0.24882   0.03454   0.53565   0.00000  Uiso   1.00
H489   H     0.69287   0.25513   0.71279   0.00000  Uiso   1.00
H490   H     0.51599   0.40510   0.40633   0.00000  Uiso   1.00
H491   H     0.57783   0.12582   0.41118   0.00000  Uiso   1.00
H492   H     0.46812   0.02925   0.39947   0.00000  Uiso   1.00
H493   H     0.67871   0.13386   0.48348   0.00000  Uiso   1.00
H494   H     0.59483   0.20497   0.33815   0.00000  Uiso   1.00
H495   H     0.33365   0.93696   0.40613   0.00000  Uiso   1.00
H496   H     0.77771   0.15756   0.58328   0.00000  Uiso   1.00
H497   H     0.60082   0.30752   0.27682   0.00000  Uiso   1.00
O498   O     0.21729   0.92427   0.46593   0.00000  Uiso   1.00
O499   O     0.79988   0.21370   0.69833   0.00000  Uiso   1.00
O500   O     0.56780   0.41044   0.29627   0.00000  Uiso   1.00
N501   N     0.28384   0.02483   0.50677   0.00000  Uiso   1.00
N502   N     0.69899   0.23107   0.67238   0.00000  Uiso   1.00
N503   N     0.53364   0.37128   0.38588   0.00000  Uiso   1.00
N504   N     0.32948   0.97233   0.43707   0.00000  Uiso   1.00
N505   N     0.74464   0.17856   0.60269   0.00000  Uiso   1.00
N506   N     0.57928   0.31878   0.31619   0.00000  Uiso   1.00
C507   C     0.23859   0.49824   0.50575   0.00000  Uiso   1.00
C508   C     0.17048   0.46429   0.47036   0.00000  Uiso   1.00
C509   C     0.16082   0.45611   0.40776   0.00000  Uiso   1.00
C510   C     0.09455   0.42372   0.38413   0.00000  Uiso   1.00
C511   C     0.99708   0.37457   0.32346   0.00000  Uiso   1.00
C512   C     0.22494   0.54852   0.55265   0.00000  Uiso   1.00
C513   C     0.26109   0.61117   0.55924   0.00000  Uiso   1.00
C514   C     0.24067   0.64968   0.60488   0.00000  Uiso   1.00
C515   C     0.22780   0.73131   0.67198   0.00000  Uiso   1.00
C516   C     0.25146   0.45246   0.54175   0.00000  Uiso   1.00
C517   C     0.30992   0.43434   0.53920   0.00000  Uiso   1.00
C518   C     0.31183   0.39199   0.57569   0.00000  Uiso   1.00
C519   C     0.34013   0.32446   0.62588   0.00000  Uiso   1.00
C520   C     0.13806   0.45525   0.57509   0.00000  Uiso   1.00
C521   C     0.11587   0.44094   0.50802   0.00000  Uiso   1.00
C522   C     0.04959   0.40854   0.48448   0.00000  Uiso   1.00
C523   C     0.03984   0.40032   0.42186   0.00000  Uiso   1.00
C524   C     0.17034   0.52517   0.59031   0.00000  Uiso   1.00
C525   C     0.14986   0.56360   0.63595   0.00000  Uiso   1.00
C526   C     0.18597   0.62629   0.64261   0.00000  Uiso   1.00
C527   C     0.19685   0.42910   0.57942   0.00000  Uiso   1.00
C528   C     0.19868   0.38677   0.61592   0.00000  Uiso   1.00
C529   C     0.25713   0.36859   0.61342   0.00000  Uiso   1.00
H530   H     0.28111   0.51643   0.47643   0.00000  Uiso   1.00
H531   H     0.20310   0.47419   0.37863   0.00000  Uiso   1.00
H532   H     0.30336   0.62923   0.53009   0.00000  Uiso   1.00
H533   H     0.35217   0.45242   0.51005   0.00000  Uiso   1.00
H534   H     0.09251   0.41709   0.28682   0.00000  Uiso   1.00
H535   H     0.30393   0.74399   0.60619   0.00000  Uiso   1.00
H536   H     0.40687   0.37116   0.56394   0.00000  Uiso   1.00
H537   H     0.09554   0.43707   0.60441   0.00000  Uiso   1.00
H538   H     0.00734   0.39048   0.51364   0.00000  Uiso   1.00
H539   H     0.10760   0.54551   0.66509   0.00000  Uiso   1.00
H540   H     0.15641   0.36871   0.64506   0.00000  Uiso   1.00
H541   H     0.93363   0.34915   0.39639   0.00000  Uiso   1.00
H542   H     0.14506   0.67605   0.71576   0.00000  Uiso   1.00
H543   H     0.24798   0.30322   0.67351   0.00000  Uiso   1.00
O544   O     0.95840   0.35392   0.27959   0.00000  Uiso   1.00
O545   O     0.23578   0.78279   0.69859   0.00000  Uiso   1.00
O546   O     0.37082   0.29366   0.64316   0.00000  Uiso   1.00
N547   N     0.06723   0.40749   0.32507   0.00000  Uiso   1.00
N548   N     0.26489   0.71311   0.62365   0.00000  Uiso   1.00
N549   N     0.36113   0.36457   0.58416   0.00000  Uiso   1.00
N550   N     0.98173   0.37092   0.38403   0.00000  Uiso   1.00
N551   N     0.17939   0.67655   0.68261   0.00000  Uiso   1.00
N552   N     0.27563   0.32801   0.64312   0.00000  Uiso   1.00
