data_job_06042
_audit_creation_date              2018-12-19
_audit_creation_method            'Materials Studio'
_symmetry_space_group_name_H-M    'P1'
_symmetry_Int_Tables_number       1
_symmetry_cell_setting            triclinic
loop_
_symmetry_equiv_pos_as_xyz
  x,y,z
_cell_length_a                    15.4084
_cell_length_b                    15.4405
_cell_length_c                    15.4987
_cell_angle_alpha                 74.5802
_cell_angle_beta                  74.5239
_cell_angle_gamma                 74.5134
loop_
_atom_site_label
_atom_site_type_symbol
_atom_site_fract_x
_atom_site_fract_y
_atom_site_fract_z
_atom_site_U_iso_or_equiv
_atom_site_adp_type
_atom_site_occupancy
C1     C     0.15350   0.67143   0.49455   0.00000  Uiso   1.00
C2     C     0.20890   0.69744   0.54833   0.00000  Uiso   1.00
C3     C     0.30417   0.67599   0.53623   0.00000  Uiso   1.00
C4     C     0.34168   0.70600   0.59225   0.00000  Uiso   1.00
C5     C     0.43620   0.73879   0.66578   0.00000  Uiso   1.00
C6     C     0.08624   0.61818   0.56549   0.00000  Uiso   1.00
C7     C     0.07835   0.53008   0.56781   0.00000  Uiso   1.00
C8     C     0.01259   0.49336   0.63827   0.00000  Uiso   1.00
C9     C     0.91662   0.40312   0.73841   0.00000  Uiso   1.00
C10    C     0.09493   0.76133   0.45278   0.00000  Uiso   1.00
C11    C     0.09434   0.79360   0.36033   0.00000  Uiso   1.00
C12    C     0.03589   0.87740   0.33591   0.00000  Uiso   1.00
C13    C     0.95342   0.00942   0.26105   0.00000  Uiso   1.00
C14    C     0.05073   0.76287   0.61556   0.00000  Uiso   1.00
C15    C     0.15308   0.74711   0.61406   0.00000  Uiso   1.00
C16    C     0.19046   0.77716   0.67011   0.00000  Uiso   1.00
C17    C     0.28576   0.75575   0.65810   0.00000  Uiso   1.00
C18    C     0.03041   0.66784   0.63121   0.00000  Uiso   1.00
C19    C     0.96465   0.63124   0.70169   0.00000  Uiso   1.00
C20    C     0.95667   0.54312   0.70412   0.00000  Uiso   1.00
C21    C     0.03911   0.81100   0.51851   0.00000  Uiso   1.00
C22    C     0.98064   0.89476   0.49422   0.00000  Uiso   1.00
C23    C     0.97997   0.92715   0.40176   0.00000  Uiso   1.00
H24    H     0.19696   0.63276   0.44338   0.00000  Uiso   1.00
H25    H     0.34734   0.63755   0.48536   0.00000  Uiso   1.00
H26    H     0.12155   0.49167   0.51693   0.00000  Uiso   1.00
H27    H     0.13755   0.75514   0.30949   0.00000  Uiso   1.00
H28    H     0.48945   0.66473   0.56091   0.00000  Uiso   1.00
H29    H     0.01335   0.35714   0.62745   0.00000  Uiso   1.00
H30    H     0.04707   0.91273   0.19003   0.00000  Uiso   1.00
H31    H     0.00726   0.80154   0.66674   0.00000  Uiso   1.00
H32    H     0.14724   0.81559   0.72097   0.00000  Uiso   1.00
H33    H     0.92146   0.66970   0.75254   0.00000  Uiso   1.00
H34    H     0.93745   0.93318   0.54510   0.00000  Uiso   1.00
H35    H     0.32705   0.80922   0.75214   0.00000  Uiso   1.00
H36    H     0.85094   0.50164   0.81869   0.00000  Uiso   1.00
H37    H     0.88467   0.05723   0.38126   0.00000  Uiso   1.00
O38    O     0.50375   0.74315   0.68819   0.00000  Uiso   1.00
O39    O     0.87911   0.33961   0.77548   0.00000  Uiso   1.00
O40    O     0.92336   0.06853   0.20160   0.00000  Uiso   1.00
N41    N     0.43202   0.69682   0.59846   0.00000  Uiso   1.00
N42    N     0.98690   0.40924   0.66068   0.00000  Uiso   1.00
N43    N     0.01841   0.92866   0.25173   0.00000  Uiso   1.00
N44    N     0.34463   0.77458   0.70136   0.00000  Uiso   1.00
N45    N     0.89951   0.48700   0.76358   0.00000  Uiso   1.00
N46    N     0.93102   0.00641   0.35463   0.00000  Uiso   1.00
C47    C     0.49379   0.15392   0.67181   0.00000  Uiso   1.00
C48    C     0.54798   0.20916   0.69764   0.00000  Uiso   1.00
C49    C     0.53588   0.30419   0.67631   0.00000  Uiso   1.00
C50    C     0.59232   0.34160   0.70611   0.00000  Uiso   1.00
C51    C     0.66644   0.43585   0.73866   0.00000  Uiso   1.00
C52    C     0.56509   0.08672   0.61864   0.00000  Uiso   1.00
C53    C     0.56736   0.07879   0.53090   0.00000  Uiso   1.00
C54    C     0.63820   0.01310   0.49421   0.00000  Uiso   1.00
C55    C     0.73884   0.91721   0.40416   0.00000  Uiso   1.00
C56    C     0.45174   0.09559   0.76139   0.00000  Uiso   1.00
C57    C     0.35872   0.09509   0.79368   0.00000  Uiso   1.00
C58    C     0.33413   0.03686   0.87716   0.00000  Uiso   1.00
C59    C     0.25879   0.95474   0.00875   0.00000  Uiso   1.00
C60    C     0.61555   0.05135   0.76265   0.00000  Uiso   1.00
C61    C     0.61412   0.15345   0.74698   0.00000  Uiso   1.00
C62    C     0.67059   0.19072   0.77682   0.00000  Uiso   1.00
C63    C     0.65857   0.28579   0.75554   0.00000  Uiso   1.00
C64    C     0.63122   0.03101   0.66798   0.00000  Uiso   1.00
C65    C     0.70207   0.96531   0.63141   0.00000  Uiso   1.00
C66    C     0.70446   0.95729   0.54364   0.00000  Uiso   1.00
C67    C     0.51788   0.03988   0.81074   0.00000  Uiso   1.00
C68    C     0.49343   0.98162   0.89419   0.00000  Uiso   1.00
C69    C     0.40039   0.98105   0.92659   0.00000  Uiso   1.00
H70    H     0.44230   0.19729   0.63339   0.00000  Uiso   1.00
H71    H     0.48469   0.34728   0.63811   0.00000  Uiso   1.00
H72    H     0.51616   0.12190   0.49274   0.00000  Uiso   1.00
H73    H     0.30756   0.13821   0.75547   0.00000  Uiso   1.00
H74    H     0.56088   0.48901   0.66509   0.00000  Uiso   1.00
H75    H     0.62722   0.01377   0.35857   0.00000  Uiso   1.00
H76    H     0.18733   0.04816   0.91259   0.00000  Uiso   1.00
H77    H     0.66704   0.00798   0.80107   0.00000  Uiso   1.00
H78    H     0.72177   0.14759   0.81500   0.00000  Uiso   1.00
H79    H     0.75324   0.92221   0.66962   0.00000  Uiso   1.00
H80    H     0.54463   0.93852   0.93235   0.00000  Uiso   1.00
H81    H     0.75330   0.32693   0.80865   0.00000  Uiso   1.00
H82    H     0.81964   0.85169   0.50213   0.00000  Uiso   1.00
H83    H     0.37975   0.88608   0.05615   0.00000  Uiso   1.00
O84    O     0.68906   0.50323   0.74298   0.00000  Uiso   1.00
O85    O     0.77608   0.87972   0.34084   0.00000  Uiso   1.00
O86    O     0.19896   0.92484   0.06771   0.00000  Uiso   1.00
N87    N     0.59865   0.43171   0.69698   0.00000  Uiso   1.00
N88    N     0.66068   0.98739   0.41039   0.00000  Uiso   1.00
N89    N     0.24942   0.01953   0.92834   0.00000  Uiso   1.00
N90    N     0.70218   0.34449   0.77423   0.00000  Uiso   1.00
N91    N     0.76422   0.90018   0.48764   0.00000  Uiso   1.00
N92    N     0.35296   0.93232   0.00560   0.00000  Uiso   1.00
C93    C     0.67132   0.49401   0.15472   0.00000  Uiso   1.00
C94    C     0.69740   0.54809   0.20970   0.00000  Uiso   1.00
C95    C     0.67598   0.53610   0.30438   0.00000  Uiso   1.00
C96    C     0.70605   0.59241   0.34159   0.00000  Uiso   1.00
C97    C     0.73895   0.66639   0.43542   0.00000  Uiso   1.00
C98    C     0.61783   0.56513   0.08789   0.00000  Uiso   1.00
C99    C     0.52952   0.56747   0.08014   0.00000  Uiso   1.00
C100   C     0.49261   0.63813   0.01479   0.00000  Uiso   1.00
C101   C     0.40200   0.73853   0.91946   0.00000  Uiso   1.00
C102   C     0.76141   0.45195   0.09647   0.00000  Uiso   1.00
C103   C     0.79382   0.35912   0.09591   0.00000  Uiso   1.00
C104   C     0.87779   0.33448   0.03778   0.00000  Uiso   1.00
C105   C     0.01011   0.25915   0.95577   0.00000  Uiso   1.00
C106   C     0.76280   0.61533   0.05245   0.00000  Uiso   1.00
C107   C     0.74709   0.61399   0.15415   0.00000  Uiso   1.00
C108   C     0.77720   0.67033   0.19123   0.00000  Uiso   1.00
C109   C     0.75583   0.65842   0.28594   0.00000  Uiso   1.00
C110   C     0.66752   0.63103   0.03234   0.00000  Uiso   1.00
C111   C     0.63074   0.70170   0.96699   0.00000  Uiso   1.00
C112   C     0.54239   0.70415   0.95915   0.00000  Uiso   1.00
C113   C     0.81110   0.51785   0.04092   0.00000  Uiso   1.00
C114   C     0.89504   0.49335   0.98277   0.00000  Uiso   1.00
C115   C     0.92757   0.40050   0.98213   0.00000  Uiso   1.00
H116   H     0.63263   0.44270   0.19796   0.00000  Uiso   1.00
H117   H     0.63752   0.48509   0.34734   0.00000  Uiso   1.00
H118   H     0.49108   0.51646   0.12313   0.00000  Uiso   1.00
H119   H     0.75534   0.30814   0.13891   0.00000  Uiso   1.00
H120   H     0.66482   0.56118   0.48846   0.00000  Uiso   1.00
H121   H     0.35607   0.62729   0.01568   0.00000  Uiso   1.00
H122   H     0.91331   0.18801   0.04894   0.00000  Uiso   1.00
H123   H     0.80149   0.66664   0.00920   0.00000  Uiso   1.00
H124   H     0.81565   0.72132   0.14823   0.00000  Uiso   1.00
H125   H     0.66921   0.75268   0.92401   0.00000  Uiso   1.00
H126   H     0.93347   0.54437   0.93979   0.00000  Uiso   1.00
H127   H     0.80940   0.75291   0.32685   0.00000  Uiso   1.00
H128   H     0.50064   0.81902   0.85406   0.00000  Uiso   1.00
H129   H     0.05789   0.37974   0.88734   0.00000  Uiso   1.00
O130   O     0.74335   0.68900   0.50251   0.00000  Uiso   1.00
O131   O     0.33829   0.77572   0.88223   0.00000  Uiso   1.00
O132   O     0.06938   0.19940   0.92589   0.00000  Uiso   1.00
N133   N     0.69692   0.59879   0.43135   0.00000  Uiso   1.00
N134   N     0.40825   0.66060   0.98933   0.00000  Uiso   1.00
N135   N     0.92921   0.24992   0.02042   0.00000  Uiso   1.00
N136   N     0.77472   0.70196   0.34438   0.00000  Uiso   1.00
N137   N     0.48605   0.76377   0.90237   0.00000  Uiso   1.00
N138   N     0.00701   0.35309   0.93346   0.00000  Uiso   1.00
C139   C     0.84650   0.32857   0.50545   0.00000  Uiso   1.00
C140   C     0.79110   0.30256   0.45167   0.00000  Uiso   1.00
C141   C     0.69583   0.32401   0.46377   0.00000  Uiso   1.00
C142   C     0.65832   0.29400   0.40775   0.00000  Uiso   1.00
C143   C     0.56380   0.26121   0.33422   0.00000  Uiso   1.00
C144   C     0.91377   0.38182   0.43451   0.00000  Uiso   1.00
C145   C     0.92165   0.46992   0.43219   0.00000  Uiso   1.00
C146   C     0.98741   0.50664   0.36173   0.00000  Uiso   1.00
C147   C     0.08338   0.59688   0.26159   0.00000  Uiso   1.00
C148   C     0.90507   0.23867   0.54722   0.00000  Uiso   1.00
C149   C     0.90566   0.20640   0.63967   0.00000  Uiso   1.00
C150   C     0.96411   0.12260   0.66409   0.00000  Uiso   1.00
C151   C     0.04658   0.99058   0.73895   0.00000  Uiso   1.00
C152   C     0.94927   0.23713   0.38444   0.00000  Uiso   1.00
C153   C     0.84692   0.25289   0.38594   0.00000  Uiso   1.00
C154   C     0.80954   0.22284   0.32989   0.00000  Uiso   1.00
C155   C     0.71424   0.24425   0.34190   0.00000  Uiso   1.00
C156   C     0.96959   0.33216   0.36879   0.00000  Uiso   1.00
C157   C     0.03535   0.36876   0.29831   0.00000  Uiso   1.00
C158   C     0.04333   0.45688   0.29588   0.00000  Uiso   1.00
C159   C     0.96089   0.18900   0.48149   0.00000  Uiso   1.00
C160   C     0.01936   0.10524   0.50578   0.00000  Uiso   1.00
C161   C     0.02003   0.07285   0.59824   0.00000  Uiso   1.00
H162   H     0.80304   0.36724   0.55662   0.00000  Uiso   1.00
H163   H     0.65266   0.36245   0.51464   0.00000  Uiso   1.00
H164   H     0.87845   0.50833   0.48307   0.00000  Uiso   1.00
H165   H     0.86245   0.24486   0.69051   0.00000  Uiso   1.00
H166   H     0.51055   0.33527   0.43909   0.00000  Uiso   1.00
H167   H     0.98665   0.64286   0.37255   0.00000  Uiso   1.00
H168   H     0.95293   0.08727   0.80997   0.00000  Uiso   1.00
H169   H     0.99274   0.19846   0.33326   0.00000  Uiso   1.00
H170   H     0.85276   0.18441   0.27903   0.00000  Uiso   1.00
H171   H     0.07854   0.33030   0.24746   0.00000  Uiso   1.00
H172   H     0.06255   0.06682   0.45490   0.00000  Uiso   1.00
H173   H     0.67296   0.19078   0.24786   0.00000  Uiso   1.00
H174   H     0.14906   0.49836   0.18131   0.00000  Uiso   1.00
H175   H     0.11533   0.94277   0.61874   0.00000  Uiso   1.00
O176   O     0.49625   0.25685   0.31181   0.00000  Uiso   1.00
O177   O     0.12089   0.66039   0.22452   0.00000  Uiso   1.00
O178   O     0.07664   0.93147   0.79840   0.00000  Uiso   1.00
N179   N     0.56798   0.30318   0.40154   0.00000  Uiso   1.00
N180   N     0.01310   0.59076   0.33932   0.00000  Uiso   1.00
N181   N     0.98159   0.07134   0.74827   0.00000  Uiso   1.00
N182   N     0.65537   0.22542   0.29864   0.00000  Uiso   1.00
N183   N     0.10049   0.51300   0.23642   0.00000  Uiso   1.00
N184   N     0.06898   0.99359   0.64537   0.00000  Uiso   1.00
C185   C     0.50621   0.84608   0.32819   0.00000  Uiso   1.00
C186   C     0.45202   0.79084   0.30236   0.00000  Uiso   1.00
C187   C     0.46412   0.69581   0.32369   0.00000  Uiso   1.00
C188   C     0.40768   0.65840   0.29389   0.00000  Uiso   1.00
C189   C     0.33356   0.56415   0.26134   0.00000  Uiso   1.00
C190   C     0.43491   0.91328   0.38136   0.00000  Uiso   1.00
C191   C     0.43264   0.92121   0.46910   0.00000  Uiso   1.00
C192   C     0.36180   0.98690   0.50579   0.00000  Uiso   1.00
C193   C     0.26116   0.08279   0.59584   0.00000  Uiso   1.00
C194   C     0.54826   0.90441   0.23861   0.00000  Uiso   1.00
C195   C     0.64128   0.90490   0.20632   0.00000  Uiso   1.00
C196   C     0.66587   0.96314   0.12284   0.00000  Uiso   1.00
C197   C     0.74121   0.04526   0.99125   0.00000  Uiso   1.00
C198   C     0.38445   0.94865   0.23735   0.00000  Uiso   1.00
C199   C     0.38588   0.84655   0.25302   0.00000  Uiso   1.00
C200   C     0.32941   0.80928   0.22318   0.00000  Uiso   1.00
C201   C     0.34143   0.71421   0.24446   0.00000  Uiso   1.00
C202   C     0.36878   0.96899   0.33202   0.00000  Uiso   1.00
C203   C     0.29793   0.03469   0.36859   0.00000  Uiso   1.00
C204   C     0.29554   0.04271   0.45636   0.00000  Uiso   1.00
C205   C     0.48212   0.96012   0.18926   0.00000  Uiso   1.00
C206   C     0.50657   0.01838   0.10581   0.00000  Uiso   1.00
C207   C     0.59961   0.01895   0.07341   0.00000  Uiso   1.00
H208   H     0.55770   0.80271   0.36661   0.00000  Uiso   1.00
H209   H     0.51531   0.65272   0.36189   0.00000  Uiso   1.00
H210   H     0.48384   0.87810   0.50726   0.00000  Uiso   1.00
H211   H     0.69244   0.86179   0.24453   0.00000  Uiso   1.00
H212   H     0.43912   0.51099   0.33491   0.00000  Uiso   1.00
H213   H     0.37278   0.98623   0.64144   0.00000  Uiso   1.00
H214   H     0.81267   0.95184   0.08741   0.00000  Uiso   1.00
H215   H     0.33296   0.99202   0.19893   0.00000  Uiso   1.00
H216   H     0.27823   0.85241   0.18500   0.00000  Uiso   1.00
H217   H     0.24676   0.07779   0.33038   0.00000  Uiso   1.00
H218   H     0.45537   0.06148   0.06765   0.00000  Uiso   1.00
H219   H     0.24670   0.67307   0.19135   0.00000  Uiso   1.00
H220   H     0.18036   0.14831   0.49787   0.00000  Uiso   1.00
H221   H     0.62025   0.11392   0.94385   0.00000  Uiso   1.00
O222   O     0.31094   0.49677   0.25702   0.00000  Uiso   1.00
O223   O     0.22392   0.12028   0.65916   0.00000  Uiso   1.00
O224   O     0.80104   0.07516   0.93229   0.00000  Uiso   1.00
N225   N     0.40135   0.56829   0.30302   0.00000  Uiso   1.00
N226   N     0.33932   0.01261   0.58961   0.00000  Uiso   1.00
N227   N     0.75058   0.98047   0.07166   0.00000  Uiso   1.00
N228   N     0.29782   0.65551   0.22577   0.00000  Uiso   1.00
N229   N     0.23578   0.09982   0.51236   0.00000  Uiso   1.00
N230   N     0.64704   0.06768   0.99440   0.00000  Uiso   1.00
C231   C     0.32868   0.50599   0.84528   0.00000  Uiso   1.00
C232   C     0.30260   0.45191   0.79030   0.00000  Uiso   1.00
C233   C     0.32402   0.46390   0.69562   0.00000  Uiso   1.00
C234   C     0.29395   0.40759   0.65841   0.00000  Uiso   1.00
C235   C     0.26105   0.33361   0.56458   0.00000  Uiso   1.00
C236   C     0.38217   0.43487   0.91211   0.00000  Uiso   1.00
C237   C     0.47048   0.43253   0.91986   0.00000  Uiso   1.00
C238   C     0.50739   0.36187   0.98521   0.00000  Uiso   1.00
C239   C     0.59800   0.26147   0.08054   0.00000  Uiso   1.00
C240   C     0.23859   0.54805   0.90353   0.00000  Uiso   1.00
C241   C     0.20618   0.64088   0.90409   0.00000  Uiso   1.00
C242   C     0.12221   0.66552   0.96222   0.00000  Uiso   1.00
C243   C     0.98989   0.74085   0.04423   0.00000  Uiso   1.00
C244   C     0.23720   0.38467   0.94755   0.00000  Uiso   1.00
C245   C     0.25291   0.38601   0.84585   0.00000  Uiso   1.00
C246   C     0.22280   0.32967   0.80877   0.00000  Uiso   1.00
C247   C     0.24417   0.34158   0.71406   0.00000  Uiso   1.00
C248   C     0.33248   0.36897   0.96766   0.00000  Uiso   1.00
C249   C     0.36927   0.29830   0.03301   0.00000  Uiso   1.00
C250   C     0.45761   0.29585   0.04085   0.00000  Uiso   1.00
C251   C     0.18890   0.48215   0.95908   0.00000  Uiso   1.00
C252   C     0.10496   0.50665   0.01723   0.00000  Uiso   1.00
C253   C     0.07243   0.59950   0.01787   0.00000  Uiso   1.00
H254   H     0.36737   0.55730   0.80204   0.00000  Uiso   1.00
H255   H     0.36248   0.51491   0.65266   0.00000  Uiso   1.00
H256   H     0.50892   0.48354   0.87687   0.00000  Uiso   1.00
H257   H     0.24466   0.69186   0.86109   0.00000  Uiso   1.00
H258   H     0.33518   0.43882   0.51154   0.00000  Uiso   1.00
H259   H     0.64393   0.37271   0.98432   0.00000  Uiso   1.00
H260   H     0.08669   0.81199   0.95106   0.00000  Uiso   1.00
H261   H     0.19851   0.33336   0.99080   0.00000  Uiso   1.00
H262   H     0.18435   0.27868   0.85177   0.00000  Uiso   1.00
H263   H     0.33079   0.24732   0.07599   0.00000  Uiso   1.00
H264   H     0.06653   0.45563   0.06021   0.00000  Uiso   1.00
H265   H     0.19060   0.24709   0.67315   0.00000  Uiso   1.00
H266   H     0.49936   0.18098   0.14594   0.00000  Uiso   1.00
H267   H     0.94211   0.62026   0.11266   0.00000  Uiso   1.00
O268   O     0.25665   0.31100   0.49749   0.00000  Uiso   1.00
O269   O     0.66171   0.22428   0.11777   0.00000  Uiso   1.00
O270   O     0.93063   0.80060   0.07411   0.00000  Uiso   1.00
N271   N     0.30308   0.40121   0.56865   0.00000  Uiso   1.00
N272   N     0.59175   0.33940   0.01067   0.00000  Uiso   1.00
N273   N     0.07079   0.75008   0.97958   0.00000  Uiso   1.00
N274   N     0.22528   0.29804   0.65562   0.00000  Uiso   1.00
N275   N     0.51396   0.23623   0.09763   0.00000  Uiso   1.00
N276   N     0.99299   0.64691   0.06654   0.00000  Uiso   1.00
