data_job_06836
_audit_creation_date              2018-12-19
_audit_creation_method            'Materials Studio'
_symmetry_space_group_name_H-M    'P1'
_symmetry_Int_Tables_number       1
_symmetry_cell_setting            triclinic
loop_
_symmetry_equiv_pos_as_xyz
  x,y,z
_cell_length_a                    19.6215
_cell_length_b                    20.6527
_cell_length_c                    25.4216
_cell_angle_alpha                 97.6510
_cell_angle_beta                  73.4875
_cell_angle_gamma                 68.0610
loop_
_atom_site_label
_atom_site_type_symbol
_atom_site_fract_x
_atom_site_fract_y
_atom_site_fract_z
_atom_site_U_iso_or_equiv
_atom_site_adp_type
_atom_site_occupancy
C1     C     0.03621   0.35012   0.51566   0.00000  Uiso   1.00
C2     C     0.05336   0.30610   0.55783   0.00000  Uiso   1.00
C3     C     0.01464   0.26562   0.57891   0.00000  Uiso   1.00
C4     C     0.03902   0.22922   0.61712   0.00000  Uiso   1.00
C5     C     0.05635   0.16028   0.68012   0.00000  Uiso   1.00
C6     C     0.01813   0.42738   0.54443   0.00000  Uiso   1.00
C7     C     0.94980   0.48887   0.55422   0.00000  Uiso   1.00
C8     C     0.94454   0.55456   0.58114   0.00000  Uiso   1.00
C9     C     0.90720   0.67393   0.62329   0.00000  Uiso   1.00
C10    C     0.11401   0.32193   0.46554   0.00000  Uiso   1.00
C11    C     0.12629   0.29477   0.40900   0.00000  Uiso   1.00
C12    C     0.20175   0.27169   0.36950   0.00000  Uiso   1.00
C13    C     0.31327   0.22732   0.28916   0.00000  Uiso   1.00
C14    C     0.14838   0.35746   0.54604   0.00000  Uiso   1.00
C15    C     0.11428   0.31009   0.57433   0.00000  Uiso   1.00
C16    C     0.13874   0.27374   0.61252   0.00000  Uiso   1.00
C17    C     0.10006   0.23321   0.63365   0.00000  Uiso   1.00
C18    C     0.07905   0.43137   0.56093   0.00000  Uiso   1.00
C19    C     0.07390   0.49699   0.58784   0.00000  Uiso   1.00
C20    C     0.00557   0.55856   0.59767   0.00000  Uiso   1.00
C21    C     0.17494   0.32591   0.48204   0.00000  Uiso   1.00
C22    C     0.25039   0.30288   0.44262   0.00000  Uiso   1.00
C23    C     0.26278   0.27569   0.38603   0.00000  Uiso   1.00
H24    H     0.98878   0.34703   0.50281   0.00000  Uiso   1.00
H25    H     0.96749   0.26255   0.56613   0.00000  Uiso   1.00
H26    H     0.90267   0.48577   0.54144   0.00000  Uiso   1.00
H27    H     0.07913   0.29169   0.39625   0.00000  Uiso   1.00
H28    H     0.97073   0.17068   0.64363   0.00000  Uiso   1.00
H29    H     0.83406   0.64134   0.59155   0.00000  Uiso   1.00
H30    H     0.20616   0.23209   0.28537   0.00000  Uiso   1.00
H31    H     0.19581   0.36057   0.55889   0.00000  Uiso   1.00
H32    H     0.18588   0.27683   0.62529   0.00000  Uiso   1.00
H33    H     0.12106   0.50005   0.60060   0.00000  Uiso   1.00
H34    H     0.29752   0.30598   0.45540   0.00000  Uiso   1.00
H35    H     0.14798   0.18227   0.69164   0.00000  Uiso   1.00
H36    H     0.01131   0.65294   0.63956   0.00000  Uiso   1.00
H37    H     0.38342   0.24369   0.33339   0.00000  Uiso   1.00
O38    O     0.04907   0.12116   0.71031   0.00000  Uiso   1.00
O39    O     0.86977   0.73866   0.64198   0.00000  Uiso   1.00
O40    O     0.35796   0.20173   0.24029   0.00000  Uiso   1.00
N41    N     0.01382   0.18488   0.64581   0.00000  Uiso   1.00
N42    N     0.88603   0.62493   0.59713   0.00000  Uiso   1.00
N43    N     0.23392   0.24233   0.31087   0.00000  Uiso   1.00
N44    N     0.10920   0.19112   0.67164   0.00000  Uiso   1.00
N45    N     0.98141   0.63117   0.62296   0.00000  Uiso   1.00
N46    N     0.32930   0.24857   0.33671   0.00000  Uiso   1.00
C47    C     0.65564   0.02029   0.47074   0.00000  Uiso   1.00
C48    C     0.64725   0.97562   0.51327   0.00000  Uiso   1.00
C49    C     0.69288   0.95683   0.54654   0.00000  Uiso   1.00
C50    C     0.67595   0.91569   0.58281   0.00000  Uiso   1.00
C51    C     0.67214   0.84957   0.64840   0.00000  Uiso   1.00
C52    C     0.66845   0.97375   0.41378   0.00000  Uiso   1.00
C53    C     0.73190   0.95340   0.36340   0.00000  Uiso   1.00
C54    C     0.73281   0.91070   0.31592   0.00000  Uiso   1.00
C55    C     0.76189   0.84172   0.22704   0.00000  Uiso   1.00
C56    C     0.57501   0.08433   0.48875   0.00000  Uiso   1.00
C57    C     0.55989   0.15696   0.50138   0.00000  Uiso   1.00
C58    C     0.48213   0.20736   0.51700   0.00000  Uiso   1.00
C59    C     0.36613   0.31008   0.54452   0.00000  Uiso   1.00
C60    C     0.54443   0.98065   0.47598   0.00000  Uiso   1.00
C61    C     0.58685   0.95409   0.51612   0.00000  Uiso   1.00
C62    C     0.56984   0.91297   0.55235   0.00000  Uiso   1.00
C63    C     0.61544   0.89412   0.58567   0.00000  Uiso   1.00
C64    C     0.60805   0.95222   0.41663   0.00000  Uiso   1.00
C65    C     0.60886   0.90954   0.36920   0.00000  Uiso   1.00
C66    C     0.67230   0.88913   0.31877   0.00000  Uiso   1.00
C67    C     0.51461   0.06280   0.49160   0.00000  Uiso   1.00
C68    C     0.43686   0.11310   0.50719   0.00000  Uiso   1.00
C69    C     0.42162   0.18579   0.51986   0.00000  Uiso   1.00
H70    H     0.70267   0.03705   0.46851   0.00000  Uiso   1.00
H71    H     0.73962   0.97349   0.54432   0.00000  Uiso   1.00
H72    H     0.77863   0.97007   0.36121   0.00000  Uiso   1.00
H73    H     0.60665   0.17360   0.49917   0.00000  Uiso   1.00
H74    H     0.75398   0.89351   0.62961   0.00000  Uiso   1.00
H75    H     0.83622   0.88632   0.24350   0.00000  Uiso   1.00
H76    H     0.47356   0.31549   0.53443   0.00000  Uiso   1.00
H77    H     0.49740   0.96389   0.47820   0.00000  Uiso   1.00
H78    H     0.52310   0.89632   0.55454   0.00000  Uiso   1.00
H79    H     0.56211   0.89290   0.37143   0.00000  Uiso   1.00
H80    H     0.39013   0.09642   0.50939   0.00000  Uiso   1.00
H81    H     0.57824   0.83087   0.63790   0.00000  Uiso   1.00
H82    H     0.66048   0.82368   0.25179   0.00000  Uiso   1.00
H83    H     0.29783   0.25285   0.54272   0.00000  Uiso   1.00
O84    O     0.68673   0.81904   0.68379   0.00000  Uiso   1.00
O85    O     0.79462   0.80962   0.17723   0.00000  Uiso   1.00
O86    O     0.31883   0.37268   0.55892   0.00000  Uiso   1.00
N87    N     0.70908   0.88806   0.62109   0.00000  Uiso   1.00
N88    N     0.78598   0.88132   0.26011   0.00000  Uiso   1.00
N89    N     0.44693   0.28256   0.53208   0.00000  Uiso   1.00
N90    N     0.61452   0.85435   0.62556   0.00000  Uiso   1.00
N91    N     0.69142   0.84762   0.26457   0.00000  Uiso   1.00
N92    N     0.35237   0.24886   0.53655   0.00000  Uiso   1.00
C93    C     0.34821   0.64198   0.15195   0.00000  Uiso   1.00
C94    C     0.39531   0.61961   0.19022   0.00000  Uiso   1.00
C95    C     0.37888   0.66040   0.24405   0.00000  Uiso   1.00
C96    C     0.42904   0.63039   0.27220   0.00000  Uiso   1.00
C97    C     0.49241   0.60606   0.33539   0.00000  Uiso   1.00
C98    C     0.40685   0.63822   0.09602   0.00000  Uiso   1.00
C99    C     0.40013   0.69467   0.07065   0.00000  Uiso   1.00
C100   C     0.46000   0.68033   0.01950   0.00000  Uiso   1.00
C101   C     0.54127   0.68488   0.93642   0.00000  Uiso   1.00
C102   C     0.32355   0.58189   0.13827   0.00000  Uiso   1.00
C103   C     0.24677   0.59097   0.14842   0.00000  Uiso   1.00
C104   C     0.23651   0.52920   0.13283   0.00000  Uiso   1.00
C105   C     0.18843   0.44629   0.11535   0.00000  Uiso   1.00
C106   C     0.46650   0.51614   0.10622   0.00000  Uiso   1.00
C107   C     0.45956   0.55125   0.16538   0.00000  Uiso   1.00
C108   C     0.50975   0.52117   0.19346   0.00000  Uiso   1.00
C109   C     0.49340   0.56192   0.24732   0.00000  Uiso   1.00
C110   C     0.47110   0.56987   0.07118   0.00000  Uiso   1.00
C111   C     0.53100   0.55544   0.02006   0.00000  Uiso   1.00
C112   C     0.52437   0.61185   0.99462   0.00000  Uiso   1.00
C113   C     0.38780   0.51353   0.11344   0.00000  Uiso   1.00
C114   C     0.37765   0.45174   0.09782   0.00000  Uiso   1.00
C115   C     0.30088   0.46072   0.10794   0.00000  Uiso   1.00
H116   H     0.29819   0.69520   0.17129   0.00000  Uiso   1.00
H117   H     0.32916   0.71330   0.26326   0.00000  Uiso   1.00
H118   H     0.35040   0.74756   0.08988   0.00000  Uiso   1.00
H119   H     0.19707   0.64388   0.16764   0.00000  Uiso   1.00
H120   H     0.39184   0.70324   0.35426   0.00000  Uiso   1.00
H121   H     0.43661   0.77546   0.98868   0.00000  Uiso   1.00
H122   H     0.11328   0.55683   0.15264   0.00000  Uiso   1.00
H123   H     0.51653   0.46292   0.08688   0.00000  Uiso   1.00
H124   H     0.55947   0.46827   0.17422   0.00000  Uiso   1.00
H125   H     0.58071   0.50253   0.00085   0.00000  Uiso   1.00
H126   H     0.42738   0.39885   0.07860   0.00000  Uiso   1.00
H127   H     0.57877   0.50436   0.28199   0.00000  Uiso   1.00
H128   H     0.62354   0.57659   0.91641   0.00000  Uiso   1.00
H129   H     0.30022   0.35795   0.08038   0.00000  Uiso   1.00
O130   O     0.50963   0.61152   0.37710   0.00000  Uiso   1.00
O131   O     0.56835   0.70628   0.89746   0.00000  Uiso   1.00
O132   O     0.14417   0.41943   0.11258   0.00000  Uiso   1.00
N133   N     0.42993   0.65569   0.32527   0.00000  Uiso   1.00
N134   N     0.47179   0.72322   0.98348   0.00000  Uiso   1.00
N135   N     0.16951   0.51882   0.13676   0.00000  Uiso   1.00
N136   N     0.53051   0.54868   0.28639   0.00000  Uiso   1.00
N137   N     0.57238   0.61621   0.94459   0.00000  Uiso   1.00
N138   N     0.27010   0.41181   0.09787   0.00000  Uiso   1.00
C139   C     0.27907   0.64909   0.57937   0.00000  Uiso   1.00
C140   C     0.30395   0.63797   0.63034   0.00000  Uiso   1.00
C141   C     0.25380   0.65042   0.68540   0.00000  Uiso   1.00
C142   C     0.28807   0.63697   0.72603   0.00000  Uiso   1.00
C143   C     0.31431   0.62348   0.80730   0.00000  Uiso   1.00
C144   C     0.32633   0.57653   0.53410   0.00000  Uiso   1.00
C145   C     0.29499   0.53733   0.50823   0.00000  Uiso   1.00
C146   C     0.34811   0.47216   0.46784   0.00000  Uiso   1.00
C147   C     0.40909   0.36331   0.39966   0.00000  Uiso   1.00
C148   C     0.30976   0.70120   0.55600   0.00000  Uiso   1.00
C149   C     0.26449   0.76682   0.54854   0.00000  Uiso   1.00
C150   C     0.30366   0.80660   0.52657   0.00000  Uiso   1.00
C151   C     0.33892   0.89133   0.49240   0.00000  Uiso   1.00
C152   C     0.42912   0.60306   0.55360   0.00000  Uiso   1.00
C153   C     0.38545   0.61297   0.61635   0.00000  Uiso   1.00
C154   C     0.41981   0.59950   0.65690   0.00000  Uiso   1.00
C155   C     0.36972   0.61193   0.71201   0.00000  Uiso   1.00
C156   C     0.40783   0.55153   0.52011   0.00000  Uiso   1.00
C157   C     0.46100   0.48641   0.47973   0.00000  Uiso   1.00
C158   C     0.42976   0.44711   0.45382   0.00000  Uiso   1.00
C159   C     0.39126   0.67621   0.54201   0.00000  Uiso   1.00
C160   C     0.43051   0.71590   0.52004   0.00000  Uiso   1.00
C161   C     0.38531   0.78156   0.51255   0.00000  Uiso   1.00
H162   H     0.21562   0.66854   0.59026   0.00000  Uiso   1.00
H163   H     0.19073   0.66976   0.69621   0.00000  Uiso   1.00
H164   H     0.23192   0.55669   0.51907   0.00000  Uiso   1.00
H165   H     0.20143   0.78614   0.55937   0.00000  Uiso   1.00
H166   H     0.19908   0.66006   0.80751   0.00000  Uiso   1.00
H167   H     0.28593   0.42166   0.43398   0.00000  Uiso   1.00
H168   H     0.22163   0.90550   0.51896   0.00000  Uiso   1.00
H169   H     0.49258   0.58360   0.54271   0.00000  Uiso   1.00
H170   H     0.48288   0.58016   0.64606   0.00000  Uiso   1.00
H171   H     0.52407   0.46708   0.46891   0.00000  Uiso   1.00
H172   H     0.49358   0.69654   0.50922   0.00000  Uiso   1.00
H173   H     0.43620   0.58733   0.76680   0.00000  Uiso   1.00
H174   H     0.52305   0.34893   0.39327   0.00000  Uiso   1.00
H175   H     0.45875   0.83278   0.47825   0.00000  Uiso   1.00
O176   O     0.30627   0.62294   0.85600   0.00000  Uiso   1.00
O177   O     0.42021   0.31017   0.36593   0.00000  Uiso   1.00
O178   O     0.33585   0.94497   0.47743   0.00000  Uiso   1.00
N179   N     0.25621   0.64343   0.78375   0.00000  Uiso   1.00
N180   N     0.33741   0.42053   0.43452   0.00000  Uiso   1.00
N181   N     0.27730   0.87288   0.51396   0.00000  Uiso   1.00
N182   N     0.38381   0.60429   0.76185   0.00000  Uiso   1.00
N183   N     0.46501   0.38140   0.41262   0.00000  Uiso   1.00
N184   N     0.40489   0.83374   0.49206   0.00000  Uiso   1.00
C185   C     0.72199   0.95488   0.91866   0.00000  Uiso   1.00
C186   C     0.75894   0.93055   0.96206   0.00000  Uiso   1.00
C187   C     0.82680   0.93395   0.96576   0.00000  Uiso   1.00
C188   C     0.85100   0.90902   0.00845   0.00000  Uiso   1.00
C189   C     0.91477   0.87544   0.07014   0.00000  Uiso   1.00
C190   C     0.63728   0.01038   0.95312   0.00000  Uiso   1.00
C191   C     0.60284   0.08088   0.94930   0.00000  Uiso   1.00
C192   C     0.52462   0.12314   0.98447   0.00000  Uiso   1.00
C193   C     0.39949   0.21347   0.03225   0.00000  Uiso   1.00
C194   C     0.71651   0.88922   0.88824   0.00000  Uiso   1.00
C195   C     0.74868   0.85786   0.82987   0.00000  Uiso   1.00
C196   C     0.73715   0.79812   0.81041   0.00000  Uiso   1.00
C197   C     0.73505   0.70034   0.75745   0.00000  Uiso   1.00
C198   C     0.64430   0.90455   0.98789   0.00000  Uiso   1.00
C199   C     0.71674   0.90322   0.99966   0.00000  Uiso   1.00
C200   C     0.74085   0.87827   0.04236   0.00000  Uiso   1.00
C201   C     0.80873   0.88163   0.04612   0.00000  Uiso   1.00
C202   C     0.59508   0.98304   0.99073   0.00000  Uiso   1.00
C203   C     0.51689   0.02520   0.02590   0.00000  Uiso   1.00
C204   C     0.48235   0.09575   0.02214   0.00000  Uiso   1.00
C205   C     0.67432   0.86188   0.92585   0.00000  Uiso   1.00
C206   C     0.66273   0.80218   0.90647   0.00000  Uiso   1.00
C207   C     0.69488   0.77074   0.84808   0.00000  Uiso   1.00
H208   H     0.75484   0.97616   0.88938   0.00000  Uiso   1.00
H209   H     0.85943   0.95512   0.93666   0.00000  Uiso   1.00
H210   H     0.63551   0.10202   0.92019   0.00000  Uiso   1.00
H211   H     0.78133   0.87903   0.80078   0.00000  Uiso   1.00
H212   H     0.95677   0.91975   0.00566   0.00000  Uiso   1.00
H213   H     0.48461   0.22950   0.97094   0.00000  Uiso   1.00
H214   H     0.79209   0.75929   0.71913   0.00000  Uiso   1.00
H215   H     0.61145   0.88326   0.01717   0.00000  Uiso   1.00
H216   H     0.70818   0.85712   0.07145   0.00000  Uiso   1.00
H217   H     0.48426   0.00402   0.05499   0.00000  Uiso   1.00
H218   H     0.63008   0.78104   0.93558   0.00000  Uiso   1.00
H219   H     0.83401   0.84022   0.11507   0.00000  Uiso   1.00
H220   H     0.36184   0.14997   0.08035   0.00000  Uiso   1.00
H221   H     0.66933   0.67975   0.82854   0.00000  Uiso   1.00
O222   O     0.96159   0.86448   0.09378   0.00000  Uiso   1.00
O223   O     0.34213   0.27085   0.04822   0.00000  Uiso   1.00
O224   O     0.74555   0.65395   0.71786   0.00000  Uiso   1.00
N225   N     0.91461   0.90461   0.02395   0.00000  Uiso   1.00
N226   N     0.47317   0.19421   0.99150   0.00000  Uiso   1.00
N227   N     0.76063   0.75461   0.75608   0.00000  Uiso   1.00
N228   N     0.84856   0.86181   0.08283   0.00000  Uiso   1.00
N229   N     0.40712   0.15141   0.05037   0.00000  Uiso   1.00
N230   N     0.69457   0.71181   0.81495   0.00000  Uiso   1.00
C231   C     0.98899   0.31324   0.91459   0.00000  Uiso   1.00
C232   C     0.99367   0.24744   0.93706   0.00000  Uiso   1.00
C233   C     0.99528   0.18465   0.90813   0.00000  Uiso   1.00
C234   C     0.99967   0.13064   0.93601   0.00000  Uiso   1.00
C235   C     0.00657   0.02714   0.96255   0.00000  Uiso   1.00
C236   C     0.06007   0.32524   0.91755   0.00000  Uiso   1.00
C237   C     0.11751   0.32789   0.87221   0.00000  Uiso   1.00
C238   C     0.17779   0.33938   0.88367   0.00000  Uiso   1.00
C239   C     0.28775   0.35674   0.87993   0.00000  Uiso   1.00
C240   C     0.91661   0.37783   0.95835   0.00000  Uiso   1.00
C241   C     0.85343   0.42471   0.94731   0.00000  Uiso   1.00
C242   C     0.79293   0.48050   0.99313   0.00000  Uiso   1.00
C243   C     0.68015   0.57951   0.05273   0.00000  Uiso   1.00
C244   C     0.99391   0.32898   0.01558   0.00000  Uiso   1.00
C245   C     0.99634   0.25599   0.99192   0.00000  Uiso   1.00
C246   C     0.00072   0.20206   0.01985   0.00000  Uiso   1.00
C247   C     0.00234   0.13920   0.99096   0.00000  Uiso   1.00
C248   C     0.06275   0.33379   0.97240   0.00000  Uiso   1.00
C249   C     0.12295   0.34530   0.98394   0.00000  Uiso   1.00
C250   C     0.18047   0.34795   0.93862   0.00000  Uiso   1.00
C251   C     0.91928   0.38639   0.01321   0.00000  Uiso   1.00
C252   C     0.85887   0.44212   0.05904   0.00000  Uiso   1.00
C253   C     0.79561   0.48906   0.04808   0.00000  Uiso   1.00
H254   H     0.98692   0.30659   0.87189   0.00000  Uiso   1.00
H255   H     0.99322   0.17805   0.86567   0.00000  Uiso   1.00
H256   H     0.11542   0.32127   0.82977   0.00000  Uiso   1.00
H257   H     0.85138   0.41808   0.90486   0.00000  Uiso   1.00
H258   H     0.00142   0.03930   0.88297   0.00000  Uiso   1.00
H259   H     0.25908   0.34132   0.80726   0.00000  Uiso   1.00
H260   H     0.70230   0.54545   0.96561   0.00000  Uiso   1.00
H261   H     0.99599   0.33564   0.05828   0.00000  Uiso   1.00
H262   H     0.00279   0.20869   0.06230   0.00000  Uiso   1.00
H263   H     0.12500   0.35192   0.02639   0.00000  Uiso   1.00
H264   H     0.86096   0.44872   0.10148   0.00000  Uiso   1.00
H265   H     0.00919   0.06417   0.04256   0.00000  Uiso   1.00
H266   H     0.26685   0.36619   0.96684   0.00000  Uiso   1.00
H267   H     0.71007   0.57032   0.12520   0.00000  Uiso   1.00
O268   O     0.00965   0.96769   0.96204   0.00000  Uiso   1.00
O269   O     0.34767   0.36394   0.86271   0.00000  Uiso   1.00
O270   O     0.61719   0.63175   0.07046   0.00000  Uiso   1.00
N271   N     0.00230   0.06258   0.91998   0.00000  Uiso   1.00
N272   N     0.24320   0.34494   0.84919   0.00000  Uiso   1.00
N273   N     0.72267   0.53579   0.99724   0.00000  Uiso   1.00
N274   N     0.00648   0.07596   0.00586   0.00000  Uiso   1.00
N275   N     0.24738   0.35832   0.93507   0.00000  Uiso   1.00
N276   N     0.72685   0.54918   0.08311   0.00000  Uiso   1.00
C277   C     0.93998   0.61625   0.25006   0.00000  Uiso   1.00
C278   C     0.93776   0.62839   0.19258   0.00000  Uiso   1.00
C279   C     0.97083   0.66792   0.16328   0.00000  Uiso   1.00
C280   C     0.96243   0.67263   0.11132   0.00000  Uiso   1.00
C281   C     0.96511   0.69656   0.02537   0.00000  Uiso   1.00
C282   C     0.97735   0.53432   0.24089   0.00000  Uiso   1.00
C283   C     0.04371   0.49477   0.25221   0.00000  Uiso   1.00
C284   C     0.06862   0.42030   0.24092   0.00000  Uiso   1.00
C285   C     0.13273   0.29821   0.23002   0.00000  Uiso   1.00
C286   C     0.85429   0.64358   0.28918   0.00000  Uiso   1.00
C287   C     0.81718   0.69589   0.34112   0.00000  Uiso   1.00
C288   C     0.73849   0.71339   0.37049   0.00000  Uiso   1.00
C289   C     0.61154   0.76095   0.43457   0.00000  Uiso   1.00
C290   C     0.86623   0.55432   0.20990   0.00000  Uiso   1.00
C291   C     0.89770   0.59474   0.17077   0.00000  Uiso   1.00
C292   C     0.88924   0.59940   0.11884   0.00000  Uiso   1.00
C293   C     0.92230   0.63893   0.08946   0.00000  Uiso   1.00
C294   C     0.93729   0.50068   0.21908   0.00000  Uiso   1.00
C295   C     0.96211   0.42626   0.20777   0.00000  Uiso   1.00
C296   C     0.02849   0.38660   0.21907   0.00000  Uiso   1.00
C297   C     0.81423   0.60995   0.26737   0.00000  Uiso   1.00
C298   C     0.73559   0.62737   0.29667   0.00000  Uiso   1.00
C299   C     0.69836   0.67969   0.34864   0.00000  Uiso   1.00
H300   H     0.97117   0.64243   0.26705   0.00000  Uiso   1.00
H301   H     0.00184   0.69394   0.18017   0.00000  Uiso   1.00
H302   H     0.07469   0.52082   0.26910   0.00000  Uiso   1.00
H303   H     0.84820   0.72191   0.35798   0.00000  Uiso   1.00
H304   H     0.01820   0.73618   0.07422   0.00000  Uiso   1.00
H305   H     0.17180   0.37116   0.26175   0.00000  Uiso   1.00
H306   H     0.69420   0.79519   0.44919   0.00000  Uiso   1.00
H307   H     0.83504   0.52813   0.19291   0.00000  Uiso   1.00
H308   H     0.85824   0.57336   0.10197   0.00000  Uiso   1.00
H309   H     0.93109   0.40024   0.19089   0.00000  Uiso   1.00
H310   H     0.70461   0.60133   0.27978   0.00000  Uiso   1.00
H311   H     0.90165   0.63832   0.01075   0.00000  Uiso   1.00
H312   H     0.05525   0.27330   0.19828   0.00000  Uiso   1.00
H313   H     0.57766   0.69732   0.38571   0.00000  Uiso   1.00
O314   O     0.97767   0.71905   0.98399   0.00000  Uiso   1.00
O315   O     0.17917   0.24016   0.23002   0.00000  Uiso   1.00
O316   O     0.55258   0.79647   0.47593   0.00000  Uiso   1.00
N317   N     0.98757   0.70695   0.07177   0.00000  Uiso   1.00
N318   N     0.13119   0.36568   0.24709   0.00000  Uiso   1.00
N319   N     0.68468   0.76210   0.42233   0.00000  Uiso   1.00
N320   N     0.92486   0.65429   0.03762   0.00000  Uiso   1.00
N321   N     0.06847   0.31302   0.21293   0.00000  Uiso   1.00
N322   N     0.62197   0.70944   0.38818   0.00000  Uiso   1.00
C323   C     0.40331   0.00123   0.33566   0.00000  Uiso   1.00
C324   C     0.33111   0.03410   0.31944   0.00000  Uiso   1.00
C325   C     0.25319   0.06009   0.35555   0.00000  Uiso   1.00
C326   C     0.19563   0.08809   0.33258   0.00000  Uiso   1.00
C327   C     0.08052   0.13888   0.31609   0.00000  Uiso   1.00
C328   C     0.44941   0.04587   0.32143   0.00000  Uiso   1.00
C329   C     0.47098   0.08175   0.35922   0.00000  Uiso   1.00
C330   C     0.51302   0.11964   0.33792   0.00000  Uiso   1.00
C331   C     0.58163   0.18866   0.32451   0.00000  Uiso   1.00
C332   C     0.45430   0.92613   0.29413   0.00000  Uiso   1.00
C333   C     0.47999   0.86131   0.30896   0.00000  Uiso   1.00
C334   C     0.52616   0.79839   0.26467   0.00000  Uiso   1.00
C335   C     0.60236   0.68148   0.20887   0.00000  Uiso   1.00
C336   C     0.43964   0.00474   0.23065   0.00000  Uiso   1.00
C337   C     0.35085   0.03601   0.26241   0.00000  Uiso   1.00
C338   C     0.29339   0.06397   0.23937   0.00000  Uiso   1.00
C339   C     0.21541   0.09000   0.27544   0.00000  Uiso   1.00
C340   C     0.46915   0.04778   0.26440   0.00000  Uiso   1.00
C341   C     0.51118   0.08563   0.24304   0.00000  Uiso   1.00
C342   C     0.53279   0.12156   0.28078   0.00000  Uiso   1.00
C343   C     0.47404   0.92803   0.23710   0.00000  Uiso   1.00
C344   C     0.52019   0.86520   0.19278   0.00000  Uiso   1.00
C345   C     0.54594   0.80030   0.20754   0.00000  Uiso   1.00
H346   H     0.38794   0.99975   0.38006   0.00000  Uiso   1.00
H347   H     0.23794   0.05861   0.39969   0.00000  Uiso   1.00
H348   H     0.45570   0.08026   0.40335   0.00000  Uiso   1.00
H349   H     0.46471   0.85986   0.35310   0.00000  Uiso   1.00
H350   H     0.08034   0.12474   0.39630   0.00000  Uiso   1.00
H351   H     0.53952   0.17036   0.40402   0.00000  Uiso   1.00
H352   H     0.55851   0.70560   0.29806   0.00000  Uiso   1.00
H353   H     0.45501   0.00623   0.18624   0.00000  Uiso   1.00
H354   H     0.30868   0.06544   0.19524   0.00000  Uiso   1.00
H355   H     0.52644   0.08709   0.19890   0.00000  Uiso   1.00
H356   H     0.53545   0.86669   0.14865   0.00000  Uiso   1.00
H357   H     0.13776   0.13029   0.23036   0.00000  Uiso   1.00
H358   H     0.59694   0.17590   0.23808   0.00000  Uiso   1.00
H359   H     0.61593   0.71115   0.13212   0.00000  Uiso   1.00
O360   O     0.01158   0.16637   0.32275   0.00000  Uiso   1.00
O361   O     0.61402   0.22621   0.33287   0.00000  Uiso   1.00
O362   O     0.63893   0.61647   0.19385   0.00000  Uiso   1.00
N363   N     0.11393   0.11790   0.35601   0.00000  Uiso   1.00
N364   N     0.54323   0.16056   0.36323   0.00000  Uiso   1.00
N365   N     0.56100   0.72606   0.26416   0.00000  Uiso   1.00
N366   N     0.14483   0.12089   0.26672   0.00000  Uiso   1.00
N367   N     0.57412   0.16355   0.27394   0.00000  Uiso   1.00
N368   N     0.59190   0.72904   0.17487   0.00000  Uiso   1.00
C369   C     0.61836   0.45305   0.75736   0.00000  Uiso   1.00
C370   C     0.61893   0.43365   0.69718   0.00000  Uiso   1.00
C371   C     0.59251   0.38526   0.67726   0.00000  Uiso   1.00
C372   C     0.59802   0.37495   0.62084   0.00000  Uiso   1.00
C373   C     0.59418   0.33927   0.53274   0.00000  Uiso   1.00
C374   C     0.57176   0.53518   0.77978   0.00000  Uiso   1.00
C375   C     0.50568   0.57214   0.82932   0.00000  Uiso   1.00
C376   C     0.47149   0.64730   0.84244   0.00000  Uiso   1.00
C377   C     0.39444   0.76923   0.88262   0.00000  Uiso   1.00
C378   C     0.70330   0.43676   0.75074   0.00000  Uiso   1.00
C379   C     0.74781   0.39098   0.77588   0.00000  Uiso   1.00
C380   C     0.82436   0.38329   0.76456   0.00000  Uiso   1.00
C381   C     0.95154   0.35241   0.75964   0.00000  Uiso   1.00
C382   C     0.67514   0.52081   0.69258   0.00000  Uiso   1.00
C383   C     0.64977   0.47046   0.66199   0.00000  Uiso   1.00
C384   C     0.65533   0.46023   0.60558   0.00000  Uiso   1.00
C385   C     0.62892   0.41182   0.58559   0.00000  Uiso   1.00
C386   C     0.60259   0.57198   0.74460   0.00000  Uiso   1.00
C387   C     0.56849   0.64711   0.75765   0.00000  Uiso   1.00
C388   C     0.50238   0.68417   0.80719   0.00000  Uiso   1.00
C389   C     0.73414   0.47356   0.71555   0.00000  Uiso   1.00
C390   C     0.81063   0.46595   0.70420   0.00000  Uiso   1.00
C391   C     0.85525   0.42017   0.72931   0.00000  Uiso   1.00
H392   H     0.59435   0.42440   0.78476   0.00000  Uiso   1.00
H393   H     0.56864   0.35679   0.70450   0.00000  Uiso   1.00
H394   H     0.48183   0.54364   0.85655   0.00000  Uiso   1.00
H395   H     0.72393   0.36251   0.80310   0.00000  Uiso   1.00
H396   H     0.55371   0.29808   0.60001   0.00000  Uiso   1.00
H397   H     0.37068   0.69207   0.92061   0.00000  Uiso   1.00
H398   H     0.88119   0.31012   0.80792   0.00000  Uiso   1.00
H399   H     0.69915   0.54947   0.66519   0.00000  Uiso   1.00
H400   H     0.67919   0.48872   0.57837   0.00000  Uiso   1.00
H401   H     0.59238   0.67557   0.73041   0.00000  Uiso   1.00
H402   H     0.83447   0.49444   0.67697   0.00000  Uiso   1.00
H403   H     0.64343   0.40517   0.49764   0.00000  Uiso   1.00
H404   H     0.46040   0.79916   0.81824   0.00000  Uiso   1.00
H405   H     0.97091   0.41720   0.70554   0.00000  Uiso   1.00
O406   O     0.58353   0.30942   0.49387   0.00000  Uiso   1.00
O407   O     0.34341   0.82632   0.91450   0.00000  Uiso   1.00
O408   O     0.01318   0.32520   0.76664   0.00000  Uiso   1.00
N409   N     0.57758   0.33161   0.58783   0.00000  Uiso   1.00
N410   N     0.40645   0.69997   0.88757   0.00000  Uiso   1.00
N411   N     0.88372   0.34289   0.78222   0.00000  Uiso   1.00
N412   N     0.62586   0.38923   0.53274   0.00000  Uiso   1.00
N413   N     0.45473   0.75759   0.83248   0.00000  Uiso   1.00
N414   N     0.93200   0.40051   0.72714   0.00000  Uiso   1.00
C415   C     0.66030   0.27068   0.14878   0.00000  Uiso   1.00
C416   C     0.69375   0.25706   0.08429   0.00000  Uiso   1.00
C417   C     0.73259   0.29319   0.05552   0.00000  Uiso   1.00
C418   C     0.75873   0.27281   0.99646   0.00000  Uiso   1.00
C419   C     0.81251   0.25999   0.90076   0.00000  Uiso   1.00
C420   C     0.57315   0.28825   0.16441   0.00000  Uiso   1.00
C421   C     0.51059   0.35061   0.20303   0.00000  Uiso   1.00
C422   C     0.43521   0.35648   0.21141   0.00000  Uiso   1.00
C423   C     0.30175   0.39206   0.24014   0.00000  Uiso   1.00
C424   C     0.69848   0.19789   0.16080   0.00000  Uiso   1.00
C425   C     0.74128   0.18428   0.19639   0.00000  Uiso   1.00
C426   C     0.77140   0.11408   0.20175   0.00000  Uiso   1.00
C427   C     0.83254   0.00937   0.22487   0.00000  Uiso   1.00
C428   C     0.63766   0.17022   0.09502   0.00000  Uiso   1.00
C429   C     0.68145   0.20249   0.05509   0.00000  Uiso   1.00
C430   C     0.70755   0.18205   0.99605   0.00000  Uiso   1.00
C431   C     0.74642   0.21815   0.96721   0.00000  Uiso   1.00
C432   C     0.56085   0.23369   0.13522   0.00000  Uiso   1.00
C433   C     0.48554   0.23947   0.14355   0.00000  Uiso   1.00
C434   C     0.42289   0.30182   0.18216   0.00000  Uiso   1.00
C435   C     0.68619   0.14333   0.13160   0.00000  Uiso   1.00
C436   C     0.71624   0.07314   0.13691   0.00000  Uiso   1.00
C437   C     0.75908   0.05942   0.17250   0.00000  Uiso   1.00
H438   H     0.66987   0.31316   0.17151   0.00000  Uiso   1.00
H439   H     0.74209   0.33542   0.07813   0.00000  Uiso   1.00
H440   H     0.52012   0.39282   0.22562   0.00000  Uiso   1.00
H441   H     0.75078   0.22652   0.21898   0.00000  Uiso   1.00
H442   H     0.81671   0.33606   0.96173   0.00000  Uiso   1.00
H443   H     0.34868   0.45708   0.27272   0.00000  Uiso   1.00
H444   H     0.83507   0.10640   0.25872   0.00000  Uiso   1.00
H445   H     0.62809   0.12774   0.07229   0.00000  Uiso   1.00
H446   H     0.69802   0.13982   0.97347   0.00000  Uiso   1.00
H447   H     0.47605   0.19723   0.12095   0.00000  Uiso   1.00
H448   H     0.70671   0.03093   0.11431   0.00000  Uiso   1.00
H449   H     0.78094   0.17731   0.87678   0.00000  Uiso   1.00
H450   H     0.31291   0.29833   0.18778   0.00000  Uiso   1.00
H451   H     0.79931   0.94765   0.17377   0.00000  Uiso   1.00
O452   O     0.84556   0.26799   0.85604   0.00000  Uiso   1.00
O453   O     0.23153   0.42676   0.26405   0.00000  Uiso   1.00
O454   O     0.86966   0.96668   0.24568   0.00000  Uiso   1.00
N455   N     0.79871   0.29703   0.95530   0.00000  Uiso   1.00
N456   N     0.36113   0.41018   0.24605   0.00000  Uiso   1.00
N457   N     0.81585   0.08233   0.23297   0.00000  Uiso   1.00
N458   N     0.77946   0.21160   0.90959   0.00000  Uiso   1.00
N459   N     0.34189   0.32476   0.20034   0.00000  Uiso   1.00
N460   N     0.79660   0.99691   0.18726   0.00000  Uiso   1.00
C461   C     0.34228   0.96735   0.86479   0.00000  Uiso   1.00
C462   C     0.29017   0.97559   0.82927   0.00000  Uiso   1.00
C463   C     0.27658   0.92064   0.80314   0.00000  Uiso   1.00
C464   C     0.22705   0.93918   0.77253   0.00000  Uiso   1.00
C465   C     0.15144   0.94117   0.71801   0.00000  Uiso   1.00
C466   C     0.40300   0.99380   0.83710   0.00000  Uiso   1.00
C467   C     0.48428   0.95417   0.81756   0.00000  Uiso   1.00
C468   C     0.52974   0.98804   0.79355   0.00000  Uiso   1.00
C469   C     0.62930   0.01832   0.75122   0.00000  Uiso   1.00
C470   C     0.28996   0.02216   0.92258   0.00000  Uiso   1.00
C471   C     0.27621   0.00639   0.97491   0.00000  Uiso   1.00
C472   C     0.22651   0.06414   0.02287   0.00000  Uiso   1.00
C473   C     0.15055   0.13847   0.11326   0.00000  Uiso   1.00
C474   C     0.27849   0.09796   0.85689   0.00000  Uiso   1.00
C475   C     0.25552   0.04653   0.82498   0.00000  Uiso   1.00
C476   C     0.20600   0.06515   0.79441   0.00000  Uiso   1.00
C477   C     0.19234   0.01025   0.76824   0.00000  Uiso   1.00
C478   C     0.36836   0.06474   0.83281   0.00000  Uiso   1.00
C479   C     0.41370   0.09868   0.80883   0.00000  Uiso   1.00
C480   C     0.49503   0.05911   0.78925   0.00000  Uiso   1.00
C481   C     0.25531   0.09311   0.91829   0.00000  Uiso   1.00
C482   C     0.20562   0.15090   0.96618   0.00000  Uiso   1.00
C483   C     0.19179   0.13521   0.01858   0.00000  Uiso   1.00
H484   H     0.36926   0.91211   0.86812   0.00000  Uiso   1.00
H485   H     0.30341   0.86575   0.80646   0.00000  Uiso   1.00
H486   H     0.51108   0.89927   0.82089   0.00000  Uiso   1.00
H487   H     0.30304   0.95148   0.97821   0.00000  Uiso   1.00
H488   H     0.21515   0.84562   0.73620   0.00000  Uiso   1.00
H489   H     0.65303   0.91631   0.76662   0.00000  Uiso   1.00
H490   H     0.21433   0.02641   0.09838   0.00000  Uiso   1.00
H491   H     0.25151   0.15320   0.85356   0.00000  Uiso   1.00
H492   H     0.17919   0.12006   0.79110   0.00000  Uiso   1.00
H493   H     0.38686   0.15358   0.80552   0.00000  Uiso   1.00
H494   H     0.17882   0.20579   0.96285   0.00000  Uiso   1.00
H495   H     0.11433   0.05203   0.72372   0.00000  Uiso   1.00
H496   H     0.55221   0.12272   0.75415   0.00000  Uiso   1.00
H497   H     0.11351   0.23282   0.08590   0.00000  Uiso   1.00
O498   O     0.11931   0.92267   0.68912   0.00000  Uiso   1.00
O499   O     0.69379   0.01542   0.72905   0.00000  Uiso   1.00
O500   O     0.11822   0.15987   0.16430   0.00000  Uiso   1.00
N501   N     0.20133   0.89875   0.74184   0.00000  Uiso   1.00
N502   N     0.61072   0.96484   0.77028   0.00000  Uiso   1.00
N503   N     0.20059   0.06777   0.08045   0.00000  Uiso   1.00
N504   N     0.14708   0.00982   0.73513   0.00000  Uiso   1.00
N505   N     0.55647   0.07591   0.76357   0.00000  Uiso   1.00
N506   N     0.14634   0.17884   0.07373   0.00000  Uiso   1.00
C507   C     0.06159   0.62524   0.84646   0.00000  Uiso   1.00
C508   C     0.04961   0.69577   0.82968   0.00000  Uiso   1.00
C509   C     0.04211   0.75862   0.86327   0.00000  Uiso   1.00
C510   C     0.03154   0.81733   0.84021   0.00000  Uiso   1.00
C511   C     0.01336   0.92748   0.82249   0.00000  Uiso   1.00
C512   C     0.99452   0.60823   0.84039   0.00000  Uiso   1.00
C513   C     0.94070   0.59747   0.88297   0.00000  Uiso   1.00
C514   C     0.88376   0.58248   0.86892   0.00000  Uiso   1.00
C515   C     0.78008   0.55667   0.86780   0.00000  Uiso   1.00
C516   C     0.13689   0.56660   0.80032   0.00000  Uiso   1.00
C517   C     0.20278   0.52082   0.80921   0.00000  Uiso   1.00
C518   C     0.26569   0.47077   0.76142   0.00000  Uiso   1.00
C519   C     0.38306   0.38032   0.69809   0.00000  Uiso   1.00
C520   C     0.05615   0.61777   0.74578   0.00000  Uiso   1.00
C521   C     0.04666   0.69171   0.77500   0.00000  Uiso   1.00
C522   C     0.03610   0.75035   0.75188   0.00000  Uiso   1.00
C523   C     0.02858   0.81327   0.78543   0.00000  Uiso   1.00
C524   C     0.99156   0.60417   0.78571   0.00000  Uiso   1.00
C525   C     0.93469   0.58920   0.77158   0.00000  Uiso   1.00
C526   C     0.88080   0.57842   0.81413   0.00000  Uiso   1.00
C527   C     0.13394   0.56254   0.74563   0.00000  Uiso   1.00
C528   C     0.19676   0.51255   0.69782   0.00000  Uiso   1.00
C529   C     0.26273   0.46670   0.70664   0.00000  Uiso   1.00
H530   H     0.06388   0.62840   0.88903   0.00000  Uiso   1.00
H531   H     0.04439   0.76174   0.90559   0.00000  Uiso   1.00
H532   H     0.94301   0.60061   0.92528   0.00000  Uiso   1.00
H533   H     0.20504   0.52398   0.85153   0.00000  Uiso   1.00
H534   H     0.02146   0.90779   0.89983   0.00000  Uiso   1.00
H535   H     0.80769   0.56801   0.94135   0.00000  Uiso   1.00
H536   H     0.36024   0.40641   0.78584   0.00000  Uiso   1.00
H537   H     0.05385   0.61460   0.70321   0.00000  Uiso   1.00
H538   H     0.03381   0.74719   0.70957   0.00000  Uiso   1.00
H539   H     0.93242   0.58605   0.72926   0.00000  Uiso   1.00
H540   H     0.19446   0.50942   0.65551   0.00000  Uiso   1.00
H541   H     0.01287   0.89598   0.74074   0.00000  Uiso   1.00
H542   H     0.79910   0.55619   0.78226   0.00000  Uiso   1.00
H543   H     0.35165   0.39460   0.62674   0.00000  Uiso   1.00
O544   O     0.00413   0.98935   0.82783   0.00000  Uiso   1.00
O545   O     0.72370   0.54356   0.88230   0.00000  Uiso   1.00
O546   O     0.44862   0.33156   0.67826   0.00000  Uiso   1.00
N547   N     0.02220   0.88681   0.86151   0.00000  Uiso   1.00
N548   N     0.82234   0.56914   0.90034   0.00000  Uiso   1.00
N549   N     0.33891   0.41805   0.75494   0.00000  Uiso   1.00
N550   N     0.01758   0.88045   0.77590   0.00000  Uiso   1.00
N551   N     0.81772   0.56279   0.81473   0.00000  Uiso   1.00
N552   N     0.33429   0.41170   0.66933   0.00000  Uiso   1.00
