data_job_01833
_audit_creation_date              2018-12-19
_audit_creation_method            'Materials Studio'
_symmetry_space_group_name_H-M    'P1'
_symmetry_Int_Tables_number       1
_symmetry_cell_setting            triclinic
loop_
_symmetry_equiv_pos_as_xyz
  x,y,z
_cell_length_a                    28.2078
_cell_length_b                    17.9161
_cell_length_c                    10.3715
_cell_angle_alpha                 90.0000
_cell_angle_beta                  90.0000
_cell_angle_gamma                 90.0000
loop_
_atom_site_label
_atom_site_type_symbol
_atom_site_fract_x
_atom_site_fract_y
_atom_site_fract_z
_atom_site_U_iso_or_equiv
_atom_site_adp_type
_atom_site_occupancy
C1     C     0.40797   0.32654   0.97589   0.00000  Uiso   1.00
C2     C     0.37029   0.36486   0.89382   0.00000  Uiso   1.00
C3     C     0.36947   0.43997   0.86123   0.00000  Uiso   1.00
C4     C     0.33196   0.46419   0.78533   0.00000  Uiso   1.00
C5     C     0.27883   0.53117   0.66429   0.00000  Uiso   1.00
C6     C     0.38151   0.28981   0.08731   0.00000  Uiso   1.00
C7     C     0.39014   0.30182   0.21741   0.00000  Uiso   1.00
C8     C     0.36207   0.26284   0.30438   0.00000  Uiso   1.00
C9     C     0.32639   0.21327   0.48374   0.00000  Uiso   1.00
C10    C     0.42744   0.26290   0.89389   0.00000  Uiso   1.00
C11    C     0.47469   0.25227   0.86139   0.00000  Uiso   1.00
C12    C     0.48530   0.19064   0.78554   0.00000  Uiso   1.00
C13    C     0.52093   0.09928   0.66460   0.00000  Uiso   1.00
C14    C     0.34280   0.23597   0.89903   0.00000  Uiso   1.00
C15    C     0.33489   0.31566   0.85207   0.00000  Uiso   1.00
C16    C     0.29737   0.33977   0.77619   0.00000  Uiso   1.00
C17    C     0.29650   0.41491   0.74349   0.00000  Uiso   1.00
C18    C     0.34612   0.24061   0.04556   0.00000  Uiso   1.00
C19    C     0.31804   0.20161   0.13236   0.00000  Uiso   1.00
C20    C     0.32661   0.21356   0.26255   0.00000  Uiso   1.00
C21    C     0.39205   0.21371   0.85214   0.00000  Uiso   1.00
C22    C     0.40259   0.15207   0.77634   0.00000  Uiso   1.00
C23    C     0.44984   0.14135   0.74372   0.00000  Uiso   1.00
H24    H     0.43552   0.36484   0.00841   0.00000  Uiso   1.00
H25    H     0.39687   0.47803   0.89357   0.00000  Uiso   1.00
H26    H     0.41753   0.33988   0.24969   0.00000  Uiso   1.00
H27    H     0.50207   0.29035   0.89372   0.00000  Uiso   1.00
H28    H     0.33839   0.58183   0.74788   0.00000  Uiso   1.00
H29    H     0.38197   0.29052   0.49877   0.00000  Uiso   1.00
H30    H     0.56024   0.18608   0.74815   0.00000  Uiso   1.00
H31    H     0.31524   0.19767   0.86652   0.00000  Uiso   1.00
H32    H     0.26999   0.30168   0.74389   0.00000  Uiso   1.00
H33    H     0.29065   0.16354   0.10002   0.00000  Uiso   1.00
H34    H     0.37519   0.11401   0.74405   0.00000  Uiso   1.00
H35    H     0.23541   0.43870   0.62641   0.00000  Uiso   1.00
H36    H     0.27899   0.14740   0.37730   0.00000  Uiso   1.00
H37    H     0.45726   0.04295   0.62667   0.00000  Uiso   1.00
O38    O     0.25929   0.58171   0.60907   0.00000  Uiso   1.00
O39    O     0.31648   0.19952   0.59421   0.00000  Uiso   1.00
O40    O     0.55036   0.06249   0.60940   0.00000  Uiso   1.00
N41    N     0.32037   0.53387   0.73610   0.00000  Uiso   1.00
N42    N     0.36111   0.26152   0.43814   0.00000  Uiso   1.00
N43    N     0.52778   0.16386   0.73639   0.00000  Uiso   1.00
N44    N     0.26496   0.45685   0.67073   0.00000  Uiso   1.00
N45    N     0.30570   0.18451   0.37277   0.00000  Uiso   1.00
N46    N     0.47237   0.08685   0.67103   0.00000  Uiso   1.00
C47    C     0.90797   0.82654   0.97589   0.00000  Uiso   1.00
C48    C     0.87029   0.86486   0.89382   0.00000  Uiso   1.00
C49    C     0.86947   0.93997   0.86123   0.00000  Uiso   1.00
C50    C     0.83196   0.96419   0.78533   0.00000  Uiso   1.00
C51    C     0.77883   0.03117   0.66429   0.00000  Uiso   1.00
C52    C     0.88151   0.78981   0.08731   0.00000  Uiso   1.00
C53    C     0.89014   0.80182   0.21741   0.00000  Uiso   1.00
C54    C     0.86207   0.76284   0.30438   0.00000  Uiso   1.00
C55    C     0.82639   0.71327   0.48374   0.00000  Uiso   1.00
C56    C     0.92744   0.76290   0.89389   0.00000  Uiso   1.00
C57    C     0.97469   0.75227   0.86139   0.00000  Uiso   1.00
C58    C     0.98530   0.69064   0.78554   0.00000  Uiso   1.00
C59    C     0.02093   0.59928   0.66460   0.00000  Uiso   1.00
C60    C     0.84280   0.73597   0.89903   0.00000  Uiso   1.00
C61    C     0.83489   0.81566   0.85207   0.00000  Uiso   1.00
C62    C     0.79737   0.83977   0.77619   0.00000  Uiso   1.00
C63    C     0.79650   0.91491   0.74349   0.00000  Uiso   1.00
C64    C     0.84612   0.74061   0.04556   0.00000  Uiso   1.00
C65    C     0.81804   0.70161   0.13236   0.00000  Uiso   1.00
C66    C     0.82661   0.71356   0.26255   0.00000  Uiso   1.00
C67    C     0.89205   0.71371   0.85214   0.00000  Uiso   1.00
C68    C     0.90259   0.65207   0.77634   0.00000  Uiso   1.00
C69    C     0.94984   0.64135   0.74372   0.00000  Uiso   1.00
H70    H     0.93552   0.86484   0.00841   0.00000  Uiso   1.00
H71    H     0.89687   0.97803   0.89357   0.00000  Uiso   1.00
H72    H     0.91753   0.83988   0.24969   0.00000  Uiso   1.00
H73    H     0.00207   0.79035   0.89372   0.00000  Uiso   1.00
H74    H     0.83839   0.08183   0.74788   0.00000  Uiso   1.00
H75    H     0.88197   0.79052   0.49877   0.00000  Uiso   1.00
H76    H     0.06024   0.68608   0.74815   0.00000  Uiso   1.00
H77    H     0.81524   0.69767   0.86652   0.00000  Uiso   1.00
H78    H     0.76999   0.80168   0.74389   0.00000  Uiso   1.00
H79    H     0.79065   0.66354   0.10002   0.00000  Uiso   1.00
H80    H     0.87519   0.61401   0.74405   0.00000  Uiso   1.00
H81    H     0.73541   0.93870   0.62641   0.00000  Uiso   1.00
H82    H     0.77899   0.64740   0.37730   0.00000  Uiso   1.00
H83    H     0.95726   0.54295   0.62667   0.00000  Uiso   1.00
O84    O     0.75929   0.08171   0.60907   0.00000  Uiso   1.00
O85    O     0.81648   0.69952   0.59421   0.00000  Uiso   1.00
O86    O     0.05036   0.56249   0.60940   0.00000  Uiso   1.00
N87    N     0.82037   0.03387   0.73610   0.00000  Uiso   1.00
N88    N     0.86111   0.76152   0.43814   0.00000  Uiso   1.00
N89    N     0.02778   0.66386   0.73639   0.00000  Uiso   1.00
N90    N     0.76496   0.95685   0.67073   0.00000  Uiso   1.00
N91    N     0.80570   0.68451   0.37277   0.00000  Uiso   1.00
N92    N     0.97237   0.58685   0.67103   0.00000  Uiso   1.00
C93    C     0.59203   0.67346   0.97589   0.00000  Uiso   1.00
C94    C     0.62971   0.63514   0.89382   0.00000  Uiso   1.00
C95    C     0.63053   0.56003   0.86123   0.00000  Uiso   1.00
C96    C     0.66804   0.53581   0.78533   0.00000  Uiso   1.00
C97    C     0.72117   0.46883   0.66429   0.00000  Uiso   1.00
C98    C     0.61849   0.71019   0.08731   0.00000  Uiso   1.00
C99    C     0.60986   0.69818   0.21741   0.00000  Uiso   1.00
C100   C     0.63793   0.73716   0.30438   0.00000  Uiso   1.00
C101   C     0.67361   0.78673   0.48374   0.00000  Uiso   1.00
C102   C     0.57256   0.73710   0.89389   0.00000  Uiso   1.00
C103   C     0.52531   0.74773   0.86139   0.00000  Uiso   1.00
C104   C     0.51470   0.80936   0.78554   0.00000  Uiso   1.00
C105   C     0.47907   0.90072   0.66460   0.00000  Uiso   1.00
C106   C     0.65720   0.76403   0.89903   0.00000  Uiso   1.00
C107   C     0.66511   0.68434   0.85207   0.00000  Uiso   1.00
C108   C     0.70263   0.66023   0.77619   0.00000  Uiso   1.00
C109   C     0.70350   0.58509   0.74349   0.00000  Uiso   1.00
C110   C     0.65388   0.75939   0.04556   0.00000  Uiso   1.00
C111   C     0.68196   0.79839   0.13236   0.00000  Uiso   1.00
C112   C     0.67339   0.78644   0.26255   0.00000  Uiso   1.00
C113   C     0.60795   0.78629   0.85214   0.00000  Uiso   1.00
C114   C     0.59741   0.84793   0.77634   0.00000  Uiso   1.00
C115   C     0.55016   0.85865   0.74372   0.00000  Uiso   1.00
H116   H     0.56448   0.63516   0.00841   0.00000  Uiso   1.00
H117   H     0.60313   0.52197   0.89357   0.00000  Uiso   1.00
H118   H     0.58247   0.66012   0.24969   0.00000  Uiso   1.00
H119   H     0.49793   0.70965   0.89372   0.00000  Uiso   1.00
H120   H     0.66161   0.41817   0.74788   0.00000  Uiso   1.00
H121   H     0.61803   0.70948   0.49877   0.00000  Uiso   1.00
H122   H     0.43976   0.81392   0.74815   0.00000  Uiso   1.00
H123   H     0.68476   0.80233   0.86652   0.00000  Uiso   1.00
H124   H     0.73001   0.69832   0.74389   0.00000  Uiso   1.00
H125   H     0.70935   0.83646   0.10002   0.00000  Uiso   1.00
H126   H     0.62481   0.88599   0.74405   0.00000  Uiso   1.00
H127   H     0.76459   0.56130   0.62641   0.00000  Uiso   1.00
H128   H     0.72101   0.85260   0.37730   0.00000  Uiso   1.00
H129   H     0.54274   0.95705   0.62667   0.00000  Uiso   1.00
O130   O     0.74071   0.41829   0.60907   0.00000  Uiso   1.00
O131   O     0.68352   0.80048   0.59421   0.00000  Uiso   1.00
O132   O     0.44964   0.93751   0.60940   0.00000  Uiso   1.00
N133   N     0.67963   0.46613   0.73610   0.00000  Uiso   1.00
N134   N     0.63889   0.73848   0.43814   0.00000  Uiso   1.00
N135   N     0.47222   0.83614   0.73639   0.00000  Uiso   1.00
N136   N     0.73504   0.54315   0.67073   0.00000  Uiso   1.00
N137   N     0.69430   0.81549   0.37277   0.00000  Uiso   1.00
N138   N     0.52763   0.91315   0.67103   0.00000  Uiso   1.00
C139   C     0.09203   0.17346   0.97589   0.00000  Uiso   1.00
C140   C     0.12971   0.13514   0.89382   0.00000  Uiso   1.00
C141   C     0.13053   0.06003   0.86123   0.00000  Uiso   1.00
C142   C     0.16804   0.03581   0.78533   0.00000  Uiso   1.00
C143   C     0.22117   0.96883   0.66429   0.00000  Uiso   1.00
C144   C     0.11849   0.21019   0.08731   0.00000  Uiso   1.00
C145   C     0.10986   0.19818   0.21741   0.00000  Uiso   1.00
C146   C     0.13793   0.23716   0.30438   0.00000  Uiso   1.00
C147   C     0.17361   0.28673   0.48374   0.00000  Uiso   1.00
C148   C     0.07256   0.23710   0.89389   0.00000  Uiso   1.00
C149   C     0.02531   0.24773   0.86139   0.00000  Uiso   1.00
C150   C     0.01470   0.30936   0.78554   0.00000  Uiso   1.00
C151   C     0.97907   0.40072   0.66460   0.00000  Uiso   1.00
C152   C     0.15720   0.26403   0.89903   0.00000  Uiso   1.00
C153   C     0.16511   0.18434   0.85207   0.00000  Uiso   1.00
C154   C     0.20263   0.16023   0.77619   0.00000  Uiso   1.00
C155   C     0.20350   0.08509   0.74349   0.00000  Uiso   1.00
C156   C     0.15388   0.25939   0.04556   0.00000  Uiso   1.00
C157   C     0.18196   0.29839   0.13236   0.00000  Uiso   1.00
C158   C     0.17339   0.28644   0.26255   0.00000  Uiso   1.00
C159   C     0.10795   0.28629   0.85214   0.00000  Uiso   1.00
C160   C     0.09741   0.34793   0.77634   0.00000  Uiso   1.00
C161   C     0.05016   0.35865   0.74372   0.00000  Uiso   1.00
H162   H     0.06448   0.13516   0.00841   0.00000  Uiso   1.00
H163   H     0.10313   0.02197   0.89357   0.00000  Uiso   1.00
H164   H     0.08247   0.16012   0.24969   0.00000  Uiso   1.00
H165   H     0.99793   0.20965   0.89372   0.00000  Uiso   1.00
H166   H     0.16161   0.91817   0.74788   0.00000  Uiso   1.00
H167   H     0.11803   0.20948   0.49877   0.00000  Uiso   1.00
H168   H     0.93976   0.31392   0.74815   0.00000  Uiso   1.00
H169   H     0.18476   0.30233   0.86652   0.00000  Uiso   1.00
H170   H     0.23001   0.19832   0.74389   0.00000  Uiso   1.00
H171   H     0.20935   0.33646   0.10002   0.00000  Uiso   1.00
H172   H     0.12481   0.38599   0.74405   0.00000  Uiso   1.00
H173   H     0.26459   0.06130   0.62641   0.00000  Uiso   1.00
H174   H     0.22101   0.35260   0.37730   0.00000  Uiso   1.00
H175   H     0.04274   0.45705   0.62667   0.00000  Uiso   1.00
O176   O     0.24071   0.91829   0.60907   0.00000  Uiso   1.00
O177   O     0.18352   0.30048   0.59421   0.00000  Uiso   1.00
O178   O     0.94964   0.43751   0.60940   0.00000  Uiso   1.00
N179   N     0.17963   0.96613   0.73610   0.00000  Uiso   1.00
N180   N     0.13889   0.23848   0.43814   0.00000  Uiso   1.00
N181   N     0.97222   0.33614   0.73639   0.00000  Uiso   1.00
N182   N     0.23504   0.04315   0.67073   0.00000  Uiso   1.00
N183   N     0.19430   0.31549   0.37277   0.00000  Uiso   1.00
N184   N     0.02763   0.41315   0.67103   0.00000  Uiso   1.00
C185   C     0.59203   0.32654   0.02411   0.00000  Uiso   1.00
C186   C     0.62971   0.36486   0.10618   0.00000  Uiso   1.00
C187   C     0.63053   0.43997   0.13877   0.00000  Uiso   1.00
C188   C     0.66804   0.46419   0.21467   0.00000  Uiso   1.00
C189   C     0.72117   0.53117   0.33571   0.00000  Uiso   1.00
C190   C     0.61849   0.28981   0.91269   0.00000  Uiso   1.00
C191   C     0.60986   0.30182   0.78259   0.00000  Uiso   1.00
C192   C     0.63793   0.26284   0.69562   0.00000  Uiso   1.00
C193   C     0.67361   0.21327   0.51626   0.00000  Uiso   1.00
C194   C     0.57256   0.26290   0.10611   0.00000  Uiso   1.00
C195   C     0.52531   0.25227   0.13861   0.00000  Uiso   1.00
C196   C     0.51470   0.19064   0.21446   0.00000  Uiso   1.00
C197   C     0.47907   0.09928   0.33540   0.00000  Uiso   1.00
C198   C     0.65720   0.23597   0.10097   0.00000  Uiso   1.00
C199   C     0.66511   0.31566   0.14793   0.00000  Uiso   1.00
C200   C     0.70263   0.33977   0.22381   0.00000  Uiso   1.00
C201   C     0.70350   0.41491   0.25651   0.00000  Uiso   1.00
C202   C     0.65388   0.24061   0.95444   0.00000  Uiso   1.00
C203   C     0.68196   0.20161   0.86764   0.00000  Uiso   1.00
C204   C     0.67339   0.21356   0.73745   0.00000  Uiso   1.00
C205   C     0.60795   0.21371   0.14786   0.00000  Uiso   1.00
C206   C     0.59741   0.15207   0.22366   0.00000  Uiso   1.00
C207   C     0.55016   0.14135   0.25628   0.00000  Uiso   1.00
H208   H     0.56448   0.36484   0.99159   0.00000  Uiso   1.00
H209   H     0.60313   0.47803   0.10643   0.00000  Uiso   1.00
H210   H     0.58247   0.33988   0.75031   0.00000  Uiso   1.00
H211   H     0.49793   0.29035   0.10628   0.00000  Uiso   1.00
H212   H     0.66161   0.58183   0.25212   0.00000  Uiso   1.00
H213   H     0.61803   0.29052   0.50123   0.00000  Uiso   1.00
H214   H     0.43976   0.18608   0.25185   0.00000  Uiso   1.00
H215   H     0.68476   0.19767   0.13348   0.00000  Uiso   1.00
H216   H     0.73001   0.30168   0.25611   0.00000  Uiso   1.00
H217   H     0.70935   0.16354   0.89998   0.00000  Uiso   1.00
H218   H     0.62481   0.11401   0.25595   0.00000  Uiso   1.00
H219   H     0.76459   0.43870   0.37359   0.00000  Uiso   1.00
H220   H     0.72101   0.14740   0.62270   0.00000  Uiso   1.00
H221   H     0.54274   0.04295   0.37333   0.00000  Uiso   1.00
O222   O     0.74071   0.58171   0.39093   0.00000  Uiso   1.00
O223   O     0.68352   0.19952   0.40579   0.00000  Uiso   1.00
O224   O     0.44964   0.06249   0.39060   0.00000  Uiso   1.00
N225   N     0.67963   0.53387   0.26390   0.00000  Uiso   1.00
N226   N     0.63889   0.26152   0.56186   0.00000  Uiso   1.00
N227   N     0.47222   0.16386   0.26361   0.00000  Uiso   1.00
N228   N     0.73504   0.45685   0.32927   0.00000  Uiso   1.00
N229   N     0.69430   0.18451   0.62723   0.00000  Uiso   1.00
N230   N     0.52763   0.08685   0.32897   0.00000  Uiso   1.00
C231   C     0.09203   0.82654   0.02411   0.00000  Uiso   1.00
C232   C     0.12971   0.86486   0.10618   0.00000  Uiso   1.00
C233   C     0.13053   0.93997   0.13877   0.00000  Uiso   1.00
C234   C     0.16804   0.96419   0.21467   0.00000  Uiso   1.00
C235   C     0.22117   0.03117   0.33571   0.00000  Uiso   1.00
C236   C     0.11849   0.78981   0.91269   0.00000  Uiso   1.00
C237   C     0.10986   0.80182   0.78259   0.00000  Uiso   1.00
C238   C     0.13793   0.76284   0.69562   0.00000  Uiso   1.00
C239   C     0.17361   0.71327   0.51626   0.00000  Uiso   1.00
C240   C     0.07256   0.76290   0.10611   0.00000  Uiso   1.00
C241   C     0.02531   0.75227   0.13861   0.00000  Uiso   1.00
C242   C     0.01470   0.69064   0.21446   0.00000  Uiso   1.00
C243   C     0.97907   0.59928   0.33540   0.00000  Uiso   1.00
C244   C     0.15720   0.73597   0.10097   0.00000  Uiso   1.00
C245   C     0.16511   0.81566   0.14793   0.00000  Uiso   1.00
C246   C     0.20263   0.83977   0.22381   0.00000  Uiso   1.00
C247   C     0.20350   0.91491   0.25651   0.00000  Uiso   1.00
C248   C     0.15388   0.74061   0.95444   0.00000  Uiso   1.00
C249   C     0.18196   0.70161   0.86764   0.00000  Uiso   1.00
C250   C     0.17339   0.71356   0.73745   0.00000  Uiso   1.00
C251   C     0.10795   0.71371   0.14786   0.00000  Uiso   1.00
C252   C     0.09741   0.65207   0.22366   0.00000  Uiso   1.00
C253   C     0.05016   0.64135   0.25628   0.00000  Uiso   1.00
H254   H     0.06448   0.86484   0.99159   0.00000  Uiso   1.00
H255   H     0.10313   0.97803   0.10643   0.00000  Uiso   1.00
H256   H     0.08247   0.83988   0.75031   0.00000  Uiso   1.00
H257   H     0.99793   0.79035   0.10628   0.00000  Uiso   1.00
H258   H     0.16161   0.08183   0.25212   0.00000  Uiso   1.00
H259   H     0.11803   0.79052   0.50123   0.00000  Uiso   1.00
H260   H     0.93976   0.68608   0.25185   0.00000  Uiso   1.00
H261   H     0.18476   0.69767   0.13348   0.00000  Uiso   1.00
H262   H     0.23001   0.80168   0.25611   0.00000  Uiso   1.00
H263   H     0.20935   0.66354   0.89998   0.00000  Uiso   1.00
H264   H     0.12481   0.61401   0.25595   0.00000  Uiso   1.00
H265   H     0.26459   0.93870   0.37359   0.00000  Uiso   1.00
H266   H     0.22101   0.64740   0.62270   0.00000  Uiso   1.00
H267   H     0.04274   0.54295   0.37333   0.00000  Uiso   1.00
O268   O     0.24071   0.08171   0.39093   0.00000  Uiso   1.00
O269   O     0.18352   0.69952   0.40579   0.00000  Uiso   1.00
O270   O     0.94964   0.56249   0.39060   0.00000  Uiso   1.00
N271   N     0.17963   0.03387   0.26390   0.00000  Uiso   1.00
N272   N     0.13889   0.76152   0.56186   0.00000  Uiso   1.00
N273   N     0.97222   0.66386   0.26361   0.00000  Uiso   1.00
N274   N     0.23504   0.95685   0.32927   0.00000  Uiso   1.00
N275   N     0.19430   0.68451   0.62723   0.00000  Uiso   1.00
N276   N     0.02763   0.58685   0.32897   0.00000  Uiso   1.00
C277   C     0.40797   0.67346   0.02411   0.00000  Uiso   1.00
C278   C     0.37029   0.63514   0.10618   0.00000  Uiso   1.00
C279   C     0.36947   0.56003   0.13877   0.00000  Uiso   1.00
C280   C     0.33196   0.53581   0.21467   0.00000  Uiso   1.00
C281   C     0.27883   0.46883   0.33571   0.00000  Uiso   1.00
C282   C     0.38151   0.71019   0.91269   0.00000  Uiso   1.00
C283   C     0.39014   0.69818   0.78259   0.00000  Uiso   1.00
C284   C     0.36207   0.73716   0.69562   0.00000  Uiso   1.00
C285   C     0.32639   0.78673   0.51626   0.00000  Uiso   1.00
C286   C     0.42744   0.73710   0.10611   0.00000  Uiso   1.00
C287   C     0.47469   0.74773   0.13861   0.00000  Uiso   1.00
C288   C     0.48530   0.80936   0.21446   0.00000  Uiso   1.00
C289   C     0.52093   0.90072   0.33540   0.00000  Uiso   1.00
C290   C     0.34280   0.76403   0.10097   0.00000  Uiso   1.00
C291   C     0.33489   0.68434   0.14793   0.00000  Uiso   1.00
C292   C     0.29737   0.66023   0.22381   0.00000  Uiso   1.00
C293   C     0.29650   0.58509   0.25651   0.00000  Uiso   1.00
C294   C     0.34612   0.75939   0.95444   0.00000  Uiso   1.00
C295   C     0.31804   0.79839   0.86764   0.00000  Uiso   1.00
C296   C     0.32661   0.78644   0.73745   0.00000  Uiso   1.00
C297   C     0.39205   0.78629   0.14786   0.00000  Uiso   1.00
C298   C     0.40259   0.84793   0.22366   0.00000  Uiso   1.00
C299   C     0.44984   0.85865   0.25628   0.00000  Uiso   1.00
H300   H     0.43552   0.63516   0.99159   0.00000  Uiso   1.00
H301   H     0.39687   0.52197   0.10643   0.00000  Uiso   1.00
H302   H     0.41753   0.66012   0.75031   0.00000  Uiso   1.00
H303   H     0.50207   0.70965   0.10628   0.00000  Uiso   1.00
H304   H     0.33839   0.41817   0.25212   0.00000  Uiso   1.00
H305   H     0.38197   0.70948   0.50123   0.00000  Uiso   1.00
H306   H     0.56024   0.81392   0.25185   0.00000  Uiso   1.00
H307   H     0.31524   0.80233   0.13348   0.00000  Uiso   1.00
H308   H     0.26999   0.69832   0.25611   0.00000  Uiso   1.00
H309   H     0.29065   0.83646   0.89998   0.00000  Uiso   1.00
H310   H     0.37519   0.88599   0.25595   0.00000  Uiso   1.00
H311   H     0.23541   0.56130   0.37359   0.00000  Uiso   1.00
H312   H     0.27899   0.85260   0.62270   0.00000  Uiso   1.00
H313   H     0.45726   0.95705   0.37333   0.00000  Uiso   1.00
O314   O     0.25929   0.41829   0.39093   0.00000  Uiso   1.00
O315   O     0.31648   0.80048   0.40579   0.00000  Uiso   1.00
O316   O     0.55036   0.93751   0.39060   0.00000  Uiso   1.00
N317   N     0.32037   0.46613   0.26390   0.00000  Uiso   1.00
N318   N     0.36111   0.73848   0.56186   0.00000  Uiso   1.00
N319   N     0.52778   0.83614   0.26361   0.00000  Uiso   1.00
N320   N     0.26496   0.54315   0.32927   0.00000  Uiso   1.00
N321   N     0.30570   0.81549   0.62723   0.00000  Uiso   1.00
N322   N     0.47237   0.91315   0.32897   0.00000  Uiso   1.00
C323   C     0.90797   0.17346   0.02411   0.00000  Uiso   1.00
C324   C     0.87029   0.13514   0.10618   0.00000  Uiso   1.00
C325   C     0.86947   0.06003   0.13877   0.00000  Uiso   1.00
C326   C     0.83196   0.03581   0.21467   0.00000  Uiso   1.00
C327   C     0.77883   0.96883   0.33571   0.00000  Uiso   1.00
C328   C     0.88151   0.21019   0.91269   0.00000  Uiso   1.00
C329   C     0.89014   0.19818   0.78259   0.00000  Uiso   1.00
C330   C     0.86207   0.23716   0.69562   0.00000  Uiso   1.00
C331   C     0.82639   0.28673   0.51626   0.00000  Uiso   1.00
C332   C     0.92744   0.23710   0.10611   0.00000  Uiso   1.00
C333   C     0.97469   0.24773   0.13861   0.00000  Uiso   1.00
C334   C     0.98530   0.30936   0.21446   0.00000  Uiso   1.00
C335   C     0.02093   0.40072   0.33540   0.00000  Uiso   1.00
C336   C     0.84280   0.26403   0.10097   0.00000  Uiso   1.00
C337   C     0.83489   0.18434   0.14793   0.00000  Uiso   1.00
C338   C     0.79737   0.16023   0.22381   0.00000  Uiso   1.00
C339   C     0.79650   0.08509   0.25651   0.00000  Uiso   1.00
C340   C     0.84612   0.25939   0.95444   0.00000  Uiso   1.00
C341   C     0.81804   0.29839   0.86764   0.00000  Uiso   1.00
C342   C     0.82661   0.28644   0.73745   0.00000  Uiso   1.00
C343   C     0.89205   0.28629   0.14786   0.00000  Uiso   1.00
C344   C     0.90259   0.34793   0.22366   0.00000  Uiso   1.00
C345   C     0.94984   0.35865   0.25628   0.00000  Uiso   1.00
H346   H     0.93552   0.13516   0.99159   0.00000  Uiso   1.00
H347   H     0.89687   0.02197   0.10643   0.00000  Uiso   1.00
H348   H     0.91753   0.16012   0.75031   0.00000  Uiso   1.00
H349   H     0.00207   0.20965   0.10628   0.00000  Uiso   1.00
H350   H     0.83839   0.91817   0.25212   0.00000  Uiso   1.00
H351   H     0.88197   0.20948   0.50123   0.00000  Uiso   1.00
H352   H     0.06024   0.31392   0.25185   0.00000  Uiso   1.00
H353   H     0.81524   0.30233   0.13348   0.00000  Uiso   1.00
H354   H     0.76999   0.19832   0.25611   0.00000  Uiso   1.00
H355   H     0.79065   0.33646   0.89998   0.00000  Uiso   1.00
H356   H     0.87519   0.38599   0.25595   0.00000  Uiso   1.00
H357   H     0.73541   0.06130   0.37359   0.00000  Uiso   1.00
H358   H     0.77899   0.35260   0.62270   0.00000  Uiso   1.00
H359   H     0.95726   0.45705   0.37333   0.00000  Uiso   1.00
O360   O     0.75929   0.91829   0.39093   0.00000  Uiso   1.00
O361   O     0.81648   0.30048   0.40579   0.00000  Uiso   1.00
O362   O     0.05036   0.43751   0.39060   0.00000  Uiso   1.00
N363   N     0.82037   0.96613   0.26390   0.00000  Uiso   1.00
N364   N     0.86111   0.23848   0.56186   0.00000  Uiso   1.00
N365   N     0.02778   0.33614   0.26361   0.00000  Uiso   1.00
N366   N     0.76496   0.04315   0.32927   0.00000  Uiso   1.00
N367   N     0.80570   0.31549   0.62723   0.00000  Uiso   1.00
N368   N     0.97237   0.41315   0.32897   0.00000  Uiso   1.00
