data_job_05717
_audit_creation_date              2018-12-19
_audit_creation_method            'Materials Studio'
_symmetry_space_group_name_H-M    'P1'
_symmetry_Int_Tables_number       1
_symmetry_cell_setting            triclinic
loop_
_symmetry_equiv_pos_as_xyz
  x,y,z
_cell_length_a                    29.2873
_cell_length_b                    12.3099
_cell_length_c                    23.6830
_cell_angle_alpha                 90.0000
_cell_angle_beta                  154.2116
_cell_angle_gamma                 90.0000
loop_
_atom_site_label
_atom_site_type_symbol
_atom_site_fract_x
_atom_site_fract_y
_atom_site_fract_z
_atom_site_U_iso_or_equiv
_atom_site_adp_type
_atom_site_occupancy
C1     C     0.25880   0.45897   0.64547   0.00000  Uiso   1.00
C2     C     0.21132   0.46366   0.53355   0.00000  Uiso   1.00
C3     C     0.16451   0.55390   0.45694   0.00000  Uiso   1.00
C4     C     0.12581   0.54167   0.35942   0.00000  Uiso   1.00
C5     C     0.05083   0.56399   0.18864   0.00000  Uiso   1.00
C6     C     0.20290   0.36637   0.61364   0.00000  Uiso   1.00
C7     C     0.14903   0.37480   0.60440   0.00000  Uiso   1.00
C8     C     0.10326   0.28066   0.57432   0.00000  Uiso   1.00
C9     C     0.01529   0.15192   0.52799   0.00000  Uiso   1.00
C10    C     0.37212   0.42202   0.76388   0.00000  Uiso   1.00
C11    C     0.46052   0.47723   0.88098   0.00000  Uiso   1.00
C12    C     0.55722   0.42993   0.97740   0.00000  Uiso   1.00
C13    C     0.73197   0.38760   0.16433   0.00000  Uiso   1.00
C14    C     0.27331   0.27677   0.60850   0.00000  Uiso   1.00
C15    C     0.21920   0.36470   0.51347   0.00000  Uiso   1.00
C16    C     0.18056   0.35232   0.41604   0.00000  Uiso   1.00
C17    C     0.13371   0.44253   0.33930   0.00000  Uiso   1.00
C18    C     0.21078   0.26741   0.59356   0.00000  Uiso   1.00
C19    C     0.16509   0.17323   0.56350   0.00000  Uiso   1.00
C20    C     0.11116   0.18152   0.55421   0.00000  Uiso   1.00
C21    C     0.38000   0.32306   0.74380   0.00000  Uiso   1.00
C22    C     0.47658   0.27566   0.84007   0.00000  Uiso   1.00
C23    C     0.56511   0.33079   0.95728   0.00000  Uiso   1.00
H24    H     0.25266   0.53601   0.66111   0.00000  Uiso   1.00
H25    H     0.15841   0.63047   0.47251   0.00000  Uiso   1.00
H26    H     0.14296   0.45139   0.61996   0.00000  Uiso   1.00
H27    H     0.45439   0.55381   0.89648   0.00000  Uiso   1.00
H28    H     0.05737   0.69154   0.25452   0.00000  Uiso   1.00
H29    H     0.02480   0.31395   0.56548   0.00000  Uiso   1.00
H30    H     0.68153   0.52991   0.14859   0.00000  Uiso   1.00
H31    H     0.27945   0.19972   0.59287   0.00000  Uiso   1.00
H32    H     0.18667   0.27573   0.40052   0.00000  Uiso   1.00
H33    H     0.17121   0.09666   0.54797   0.00000  Uiso   1.00
H34    H     0.48265   0.19908   0.82449   0.00000  Uiso   1.00
H35    H     0.08030   0.40362   0.19609   0.00000  Uiso   1.00
H36    H     0.04773   0.02603   0.50705   0.00000  Uiso   1.00
H37    H     0.70446   0.24199   0.09015   0.00000  Uiso   1.00
O38    O     0.00728   0.60364   0.09997   0.00000  Uiso   1.00
O39    O     0.96458   0.10825   0.50797   0.00000  Uiso   1.00
O40    O     0.82619   0.39159   0.27298   0.00000  Uiso   1.00
N41    N     0.07551   0.61335   0.26718   0.00000  Uiso   1.00
N42    N     0.04505   0.26033   0.55789   0.00000  Uiso   1.00
N43    N     0.65904   0.46222   0.10306   0.00000  Uiso   1.00
N44    N     0.08785   0.45843   0.23574   0.00000  Uiso   1.00
N45    N     0.05739   0.10541   0.52645   0.00000  Uiso   1.00
N46    N     0.67138   0.30730   0.07162   0.00000  Uiso   1.00
C47    C     0.74120   0.45897   0.85453   0.00000  Uiso   1.00
C48    C     0.78868   0.46366   0.96645   0.00000  Uiso   1.00
C49    C     0.83549   0.55390   0.04306   0.00000  Uiso   1.00
C50    C     0.87419   0.54167   0.14058   0.00000  Uiso   1.00
C51    C     0.94917   0.56399   0.31136   0.00000  Uiso   1.00
C52    C     0.79710   0.36637   0.88636   0.00000  Uiso   1.00
C53    C     0.85097   0.37480   0.89560   0.00000  Uiso   1.00
C54    C     0.89674   0.28066   0.92568   0.00000  Uiso   1.00
C55    C     0.98471   0.15192   0.97201   0.00000  Uiso   1.00
C56    C     0.62788   0.42202   0.73612   0.00000  Uiso   1.00
C57    C     0.53948   0.47723   0.61902   0.00000  Uiso   1.00
C58    C     0.44278   0.42993   0.52260   0.00000  Uiso   1.00
C59    C     0.26803   0.38760   0.33567   0.00000  Uiso   1.00
C60    C     0.72669   0.27677   0.89150   0.00000  Uiso   1.00
C61    C     0.78080   0.36470   0.98653   0.00000  Uiso   1.00
C62    C     0.81944   0.35232   0.08396   0.00000  Uiso   1.00
C63    C     0.86629   0.44253   0.16070   0.00000  Uiso   1.00
C64    C     0.78922   0.26741   0.90644   0.00000  Uiso   1.00
C65    C     0.83491   0.17323   0.93650   0.00000  Uiso   1.00
C66    C     0.88884   0.18152   0.94579   0.00000  Uiso   1.00
C67    C     0.62000   0.32306   0.75620   0.00000  Uiso   1.00
C68    C     0.52342   0.27566   0.65993   0.00000  Uiso   1.00
C69    C     0.43489   0.33079   0.54272   0.00000  Uiso   1.00
H70    H     0.74734   0.53601   0.83889   0.00000  Uiso   1.00
H71    H     0.84159   0.63047   0.02749   0.00000  Uiso   1.00
H72    H     0.85704   0.45139   0.88004   0.00000  Uiso   1.00
H73    H     0.54561   0.55381   0.60352   0.00000  Uiso   1.00
H74    H     0.94263   0.69154   0.24548   0.00000  Uiso   1.00
H75    H     0.97520   0.31395   0.93452   0.00000  Uiso   1.00
H76    H     0.31847   0.52991   0.35141   0.00000  Uiso   1.00
H77    H     0.72055   0.19972   0.90713   0.00000  Uiso   1.00
H78    H     0.81333   0.27573   0.09948   0.00000  Uiso   1.00
H79    H     0.82879   0.09666   0.95203   0.00000  Uiso   1.00
H80    H     0.51735   0.19908   0.67551   0.00000  Uiso   1.00
H81    H     0.91970   0.40362   0.30391   0.00000  Uiso   1.00
H82    H     0.95227   0.02603   0.99295   0.00000  Uiso   1.00
H83    H     0.29554   0.24199   0.40985   0.00000  Uiso   1.00
O84    O     0.99272   0.60364   0.40003   0.00000  Uiso   1.00
O85    O     0.03542   0.10825   0.99203   0.00000  Uiso   1.00
O86    O     0.17381   0.39159   0.22702   0.00000  Uiso   1.00
N87    N     0.92449   0.61335   0.23282   0.00000  Uiso   1.00
N88    N     0.95495   0.26033   0.94211   0.00000  Uiso   1.00
N89    N     0.34096   0.46222   0.39694   0.00000  Uiso   1.00
N90    N     0.91215   0.45843   0.26426   0.00000  Uiso   1.00
N91    N     0.94261   0.10541   0.97355   0.00000  Uiso   1.00
N92    N     0.32862   0.30730   0.42838   0.00000  Uiso   1.00
C93    C     0.74120   0.54103   0.35453   0.00000  Uiso   1.00
C94    C     0.78868   0.53634   0.46645   0.00000  Uiso   1.00
C95    C     0.83549   0.44610   0.54306   0.00000  Uiso   1.00
C96    C     0.87419   0.45833   0.64058   0.00000  Uiso   1.00
C97    C     0.94917   0.43601   0.81136   0.00000  Uiso   1.00
C98    C     0.79710   0.63363   0.38636   0.00000  Uiso   1.00
C99    C     0.85097   0.62520   0.39560   0.00000  Uiso   1.00
C100   C     0.89674   0.71934   0.42568   0.00000  Uiso   1.00
C101   C     0.98471   0.84808   0.47201   0.00000  Uiso   1.00
C102   C     0.62788   0.57798   0.23612   0.00000  Uiso   1.00
C103   C     0.53948   0.52277   0.11902   0.00000  Uiso   1.00
C104   C     0.44278   0.57007   0.02260   0.00000  Uiso   1.00
C105   C     0.26803   0.61240   0.83567   0.00000  Uiso   1.00
C106   C     0.72669   0.72323   0.39150   0.00000  Uiso   1.00
C107   C     0.78080   0.63530   0.48653   0.00000  Uiso   1.00
C108   C     0.81944   0.64768   0.58396   0.00000  Uiso   1.00
C109   C     0.86629   0.55747   0.66070   0.00000  Uiso   1.00
C110   C     0.78922   0.73259   0.40644   0.00000  Uiso   1.00
C111   C     0.83491   0.82677   0.43650   0.00000  Uiso   1.00
C112   C     0.88884   0.81848   0.44579   0.00000  Uiso   1.00
C113   C     0.62000   0.67694   0.25620   0.00000  Uiso   1.00
C114   C     0.52342   0.72434   0.15993   0.00000  Uiso   1.00
C115   C     0.43489   0.66921   0.04272   0.00000  Uiso   1.00
H116   H     0.74734   0.46399   0.33889   0.00000  Uiso   1.00
H117   H     0.84159   0.36953   0.52749   0.00000  Uiso   1.00
H118   H     0.85704   0.54861   0.38004   0.00000  Uiso   1.00
H119   H     0.54561   0.44619   0.10352   0.00000  Uiso   1.00
H120   H     0.94263   0.30846   0.74548   0.00000  Uiso   1.00
H121   H     0.97520   0.68605   0.43452   0.00000  Uiso   1.00
H122   H     0.31847   0.47009   0.85141   0.00000  Uiso   1.00
H123   H     0.72055   0.80028   0.40713   0.00000  Uiso   1.00
H124   H     0.81333   0.72427   0.59948   0.00000  Uiso   1.00
H125   H     0.82879   0.90334   0.45203   0.00000  Uiso   1.00
H126   H     0.51735   0.80092   0.17551   0.00000  Uiso   1.00
H127   H     0.91970   0.59638   0.80391   0.00000  Uiso   1.00
H128   H     0.95227   0.97397   0.49295   0.00000  Uiso   1.00
H129   H     0.29554   0.75801   0.90985   0.00000  Uiso   1.00
O130   O     0.99272   0.39636   0.90003   0.00000  Uiso   1.00
O131   O     0.03542   0.89175   0.49203   0.00000  Uiso   1.00
O132   O     0.17381   0.60841   0.72702   0.00000  Uiso   1.00
N133   N     0.92449   0.38665   0.73282   0.00000  Uiso   1.00
N134   N     0.95495   0.73967   0.44211   0.00000  Uiso   1.00
N135   N     0.34096   0.53778   0.89694   0.00000  Uiso   1.00
N136   N     0.91215   0.54157   0.76426   0.00000  Uiso   1.00
N137   N     0.94261   0.89459   0.47355   0.00000  Uiso   1.00
N138   N     0.32862   0.69270   0.92838   0.00000  Uiso   1.00
C139   C     0.25880   0.54103   0.14547   0.00000  Uiso   1.00
C140   C     0.21132   0.53634   0.03355   0.00000  Uiso   1.00
C141   C     0.16451   0.44610   0.95694   0.00000  Uiso   1.00
C142   C     0.12581   0.45833   0.85942   0.00000  Uiso   1.00
C143   C     0.05083   0.43601   0.68864   0.00000  Uiso   1.00
C144   C     0.20290   0.63363   0.11364   0.00000  Uiso   1.00
C145   C     0.14903   0.62520   0.10440   0.00000  Uiso   1.00
C146   C     0.10326   0.71934   0.07432   0.00000  Uiso   1.00
C147   C     0.01529   0.84808   0.02799   0.00000  Uiso   1.00
C148   C     0.37212   0.57798   0.26388   0.00000  Uiso   1.00
C149   C     0.46052   0.52277   0.38098   0.00000  Uiso   1.00
C150   C     0.55722   0.57007   0.47740   0.00000  Uiso   1.00
C151   C     0.73197   0.61240   0.66433   0.00000  Uiso   1.00
C152   C     0.27331   0.72323   0.10850   0.00000  Uiso   1.00
C153   C     0.21920   0.63530   0.01347   0.00000  Uiso   1.00
C154   C     0.18056   0.64768   0.91604   0.00000  Uiso   1.00
C155   C     0.13371   0.55747   0.83930   0.00000  Uiso   1.00
C156   C     0.21078   0.73259   0.09356   0.00000  Uiso   1.00
C157   C     0.16509   0.82677   0.06350   0.00000  Uiso   1.00
C158   C     0.11116   0.81848   0.05421   0.00000  Uiso   1.00
C159   C     0.38000   0.67694   0.24380   0.00000  Uiso   1.00
C160   C     0.47658   0.72434   0.34007   0.00000  Uiso   1.00
C161   C     0.56511   0.66921   0.45728   0.00000  Uiso   1.00
H162   H     0.25266   0.46399   0.16111   0.00000  Uiso   1.00
H163   H     0.15841   0.36953   0.97251   0.00000  Uiso   1.00
H164   H     0.14296   0.54861   0.11996   0.00000  Uiso   1.00
H165   H     0.45439   0.44619   0.39648   0.00000  Uiso   1.00
H166   H     0.05737   0.30846   0.75452   0.00000  Uiso   1.00
H167   H     0.02480   0.68605   0.06548   0.00000  Uiso   1.00
H168   H     0.68153   0.47009   0.64859   0.00000  Uiso   1.00
H169   H     0.27945   0.80028   0.09287   0.00000  Uiso   1.00
H170   H     0.18667   0.72427   0.90052   0.00000  Uiso   1.00
H171   H     0.17121   0.90334   0.04797   0.00000  Uiso   1.00
H172   H     0.48265   0.80092   0.32449   0.00000  Uiso   1.00
H173   H     0.08030   0.59638   0.69609   0.00000  Uiso   1.00
H174   H     0.04773   0.97397   0.00705   0.00000  Uiso   1.00
H175   H     0.70446   0.75801   0.59015   0.00000  Uiso   1.00
O176   O     0.00728   0.39636   0.59997   0.00000  Uiso   1.00
O177   O     0.96458   0.89175   0.00797   0.00000  Uiso   1.00
O178   O     0.82619   0.60841   0.77298   0.00000  Uiso   1.00
N179   N     0.07551   0.38665   0.76718   0.00000  Uiso   1.00
N180   N     0.04505   0.73967   0.05789   0.00000  Uiso   1.00
N181   N     0.65904   0.53778   0.60306   0.00000  Uiso   1.00
N182   N     0.08785   0.54157   0.73574   0.00000  Uiso   1.00
N183   N     0.05739   0.89459   0.02645   0.00000  Uiso   1.00
N184   N     0.67138   0.69270   0.57162   0.00000  Uiso   1.00
