data_job_06492
_audit_creation_date              2018-12-19
_audit_creation_method            'Materials Studio'
_symmetry_space_group_name_H-M    'P1'
_symmetry_Int_Tables_number       1
_symmetry_cell_setting            triclinic
loop_
_symmetry_equiv_pos_as_xyz
  x,y,z
_cell_length_a                    19.7343
_cell_length_b                    20.4744
_cell_length_c                    23.8493
_cell_angle_alpha                 112.6658
_cell_angle_beta                  66.0595
_cell_angle_gamma                 118.4039
loop_
_atom_site_label
_atom_site_type_symbol
_atom_site_fract_x
_atom_site_fract_y
_atom_site_fract_z
_atom_site_U_iso_or_equiv
_atom_site_adp_type
_atom_site_occupancy
C1     C     0.12933   0.30438   0.01826   0.00000  Uiso   1.00
C2     C     0.20375   0.34118   0.96921   0.00000  Uiso   1.00
C3     C     0.28214   0.35746   0.96511   0.00000  Uiso   1.00
C4     C     0.34183   0.39122   0.91686   0.00000  Uiso   1.00
C5     C     0.46014   0.44584   0.84720   0.00000  Uiso   1.00
C6     C     0.08585   0.35965   0.05074   0.00000  Uiso   1.00
C7     C     0.06511   0.39143   0.11520   0.00000  Uiso   1.00
C8     C     0.02554   0.44072   0.13558   0.00000  Uiso   1.00
C9     C     0.96078   0.52397   0.19250   0.00000  Uiso   1.00
C10    C     0.07549   0.23354   0.98109   0.00000  Uiso   1.00
C11    C     0.04602   0.15930   0.98700   0.00000  Uiso   1.00
C12    C     0.99772   0.10242   0.94875   0.00000  Uiso   1.00
C13    C     0.91687   0.98987   0.89754   0.00000  Uiso   1.00
C14    C     0.09592   0.33537   0.93984   0.00000  Uiso   1.00
C15    C     0.18560   0.35802   0.92662   0.00000  Uiso   1.00
C16    C     0.24518   0.39175   0.87836   0.00000  Uiso   1.00
C17    C     0.32365   0.40808   0.87419   0.00000  Uiso   1.00
C18    C     0.06771   0.37648   0.00815   0.00000  Uiso   1.00
C19    C     0.02816   0.42572   0.02844   0.00000  Uiso   1.00
C20    C     0.00737   0.45758   0.09291   0.00000  Uiso   1.00
C21    C     0.05735   0.25037   0.93850   0.00000  Uiso   1.00
C22    C     0.00907   0.19360   0.90024   0.00000  Uiso   1.00
C23    C     0.97954   0.11929   0.90609   0.00000  Uiso   1.00
H24    H     0.14345   0.29127   0.05142   0.00000  Uiso   1.00
H25    H     0.29616   0.34443   0.99809   0.00000  Uiso   1.00
H26    H     0.07915   0.37839   0.14815   0.00000  Uiso   1.00
H27    H     0.06008   0.14630   0.01996   0.00000  Uiso   1.00
H28    H     0.45746   0.41082   0.92019   0.00000  Uiso   1.00
H29    H     0.99988   0.48241   0.23660   0.00000  Uiso   1.00
H30    H     0.95964   0.99299   0.96631   0.00000  Uiso   1.00
H31    H     0.08180   0.34847   0.90668   0.00000  Uiso   1.00
H32    H     0.23113   0.40477   0.84540   0.00000  Uiso   1.00
H33    H     0.01412   0.43873   0.99547   0.00000  Uiso   1.00
H34    H     0.99505   0.20664   0.86728   0.00000  Uiso   1.00
H35    H     0.40468   0.45980   0.79627   0.00000  Uiso   1.00
H36    H     0.94709   0.53138   0.11268   0.00000  Uiso   1.00
H37    H     0.90686   0.04197   0.84239   0.00000  Uiso   1.00
O38    O     0.53042   0.47134   0.82055   0.00000  Uiso   1.00
O39    O     0.93007   0.56524   0.23567   0.00000  Uiso   1.00
O40    O     0.87729   0.92314   0.88105   0.00000  Uiso   1.00
N41    N     0.42454   0.41461   0.89943   0.00000  Uiso   1.00
N42    N     0.99674   0.48154   0.19525   0.00000  Uiso   1.00
N43    N     0.95911   0.02399   0.94256   0.00000  Uiso   1.00
N44    N     0.39614   0.44096   0.83275   0.00000  Uiso   1.00
N45    N     0.96834   0.50790   0.12857   0.00000  Uiso   1.00
N46    N     0.93071   0.05034   0.87588   0.00000  Uiso   1.00
C47    C     0.47061   0.78101   0.98054   0.00000  Uiso   1.00
C48    C     0.43587   0.78117   0.93398   0.00000  Uiso   1.00
C49    C     0.42652   0.84323   0.93205   0.00000  Uiso   1.00
C50    C     0.39353   0.83175   0.88589   0.00000  Uiso   1.00
C51    C     0.34301   0.84278   0.82012   0.00000  Uiso   1.00
C52    C     0.40684   0.71717   0.01325   0.00000  Uiso   1.00
C53    C     0.37310   0.72542   0.07797   0.00000  Uiso   1.00
C54    C     0.31569   0.66006   0.09854   0.00000  Uiso   1.00
C55    C     0.22015   0.57172   0.15583   0.00000  Uiso   1.00
C56    C     0.54036   0.75509   0.94055   0.00000  Uiso   1.00
C57    C     0.61888   0.79522   0.94415   0.00000  Uiso   1.00
C58    C     0.67387   0.76177   0.90352   0.00000  Uiso   1.00
C59    C     0.78564   0.73231   0.84794   0.00000  Uiso   1.00
C60    C     0.42864   0.65024   0.90199   0.00000  Uiso   1.00
C61    C     0.41307   0.71014   0.89132   0.00000  Uiso   1.00
C62    C     0.38008   0.69855   0.84515   0.00000  Uiso   1.00
C63    C     0.37070   0.76059   0.84315   0.00000  Uiso   1.00
C64    C     0.38404   0.64614   0.97059   0.00000  Uiso   1.00
C65    C     0.32666   0.58075   0.99107   0.00000  Uiso   1.00
C66    C     0.29285   0.58890   0.05580   0.00000  Uiso   1.00
C67    C     0.51756   0.68406   0.89789   0.00000  Uiso   1.00
C68    C     0.57244   0.65054   0.85725   0.00000  Uiso   1.00
C69    C     0.65103   0.69061   0.86078   0.00000  Uiso   1.00
H70    H     0.48836   0.83631   0.01375   0.00000  Uiso   1.00
H71    H     0.44417   0.89819   0.96508   0.00000  Uiso   1.00
H72    H     0.39076   0.78040   0.11097   0.00000  Uiso   1.00
H73    H     0.63650   0.85018   0.97717   0.00000  Uiso   1.00
H74    H     0.38509   0.93547   0.89232   0.00000  Uiso   1.00
H75    H     0.27251   0.68709   0.19994   0.00000  Uiso   1.00
H76    H     0.79069   0.83424   0.91780   0.00000  Uiso   1.00
H77    H     0.41089   0.59494   0.86877   0.00000  Uiso   1.00
H78    H     0.36245   0.64358   0.81214   0.00000  Uiso   1.00
H79    H     0.30904   0.52579   0.95804   0.00000  Uiso   1.00
H80    H     0.55478   0.59557   0.82424   0.00000  Uiso   1.00
H81    H     0.31876   0.72882   0.76819   0.00000  Uiso   1.00
H82    H     0.20618   0.48044   0.07581   0.00000  Uiso   1.00
H83    H     0.72436   0.62759   0.79367   0.00000  Uiso   1.00
O84    O     0.32143   0.86849   0.79563   0.00000  Uiso   1.00
O85    O     0.17374   0.54262   0.19922   0.00000  Uiso   1.00
O86    O     0.85358   0.73569   0.82906   0.00000  Uiso   1.00
N87    N     0.37614   0.88016   0.87087   0.00000  Uiso   1.00
N88    N     0.27087   0.64794   0.15848   0.00000  Uiso   1.00
N89    N     0.75533   0.78551   0.89471   0.00000  Uiso   1.00
N90    N     0.34045   0.76896   0.80407   0.00000  Uiso   1.00
N91    N     0.23518   0.53675   0.09168   0.00000  Uiso   1.00
N92    N     0.71964   0.67432   0.82792   0.00000  Uiso   1.00
C93    C     0.95087   0.60910   0.98104   0.00000  Uiso   1.00
C94    C     0.95853   0.53212   0.94476   0.00000  Uiso   1.00
C95    C     0.89537   0.46185   0.93837   0.00000  Uiso   1.00
C96    C     0.91487   0.39808   0.90331   0.00000  Uiso   1.00
C97    C     0.91463   0.27757   0.85120   0.00000  Uiso   1.00
C98    C     0.99821   0.64361   0.02948   0.00000  Uiso   1.00
C99    C     0.96841   0.66710   0.09431   0.00000  Uiso   1.00
C100   C     0.02133   0.69720   0.13057   0.00000  Uiso   1.00
C101   C     0.08271   0.74984   0.20999   0.00000  Uiso   1.00
C102   C     0.99656   0.65958   0.93402   0.00000  Uiso   1.00
C103   C     0.96538   0.69652   0.91860   0.00000  Uiso   1.00
C104   C     0.01691   0.74007   0.87450   0.00000  Uiso   1.00
C105   C     0.07573   0.81752   0.80570   0.00000  Uiso   1.00
C106   C     0.09782   0.62080   0.93015   0.00000  Uiso   1.00
C107   C     0.03835   0.53847   0.91712   0.00000  Uiso   1.00
C108   C     0.05796   0.47479   0.88206   0.00000  Uiso   1.00
C109   C     0.99483   0.40444   0.87561   0.00000  Uiso   1.00
C110   C     0.07803   0.64997   0.00183   0.00000  Uiso   1.00
C111   C     0.13100   0.68004   0.03800   0.00000  Uiso   1.00
C112   C     0.10129   0.70356   0.10288   0.00000  Uiso   1.00
C113   C     0.07638   0.66594   0.90637   0.00000  Uiso   1.00
C114   C     0.12797   0.70945   0.86229   0.00000  Uiso   1.00
C115   C     0.09688   0.74644   0.84680   0.00000  Uiso   1.00
H116   H     0.88872   0.60416   0.00257   0.00000  Uiso   1.00
H117   H     0.83360   0.45695   0.95977   0.00000  Uiso   1.00
H118   H     0.90664   0.66218   0.11569   0.00000  Uiso   1.00
H119   H     0.90361   0.69159   0.94000   0.00000  Uiso   1.00
H120   H     0.80769   0.29655   0.90016   0.00000  Uiso   1.00
H121   H     0.96171   0.72931   0.22892   0.00000  Uiso   1.00
H122   H     0.95532   0.79132   0.85845   0.00000  Uiso   1.00
H123   H     0.15997   0.62575   0.90862   0.00000  Uiso   1.00
H124   H     0.11973   0.47972   0.86067   0.00000  Uiso   1.00
H125   H     0.19277   0.68495   0.01659   0.00000  Uiso   1.00
H126   H     0.18974   0.71436   0.84090   0.00000  Uiso   1.00
H127   H     0.03993   0.31503   0.81972   0.00000  Uiso   1.00
H128   H     0.19394   0.74780   0.14849   0.00000  Uiso   1.00
H129   H     0.18755   0.80980   0.77801   0.00000  Uiso   1.00
O130   O     0.89245   0.20935   0.83011   0.00000  Uiso   1.00
O131   O     0.09451   0.77712   0.26143   0.00000  Uiso   1.00
O132   O     0.08612   0.85847   0.77538   0.00000  Uiso   1.00
N133   N     0.86787   0.32094   0.88780   0.00000  Uiso   1.00
N134   N     0.01186   0.72554   0.19517   0.00000  Uiso   1.00
N135   N     0.00589   0.78353   0.84882   0.00000  Uiso   1.00
N136   N     0.99283   0.33089   0.84452   0.00000  Uiso   1.00
N137   N     0.13682   0.73548   0.15189   0.00000  Uiso   1.00
N138   N     0.13086   0.79347   0.80554   0.00000  Uiso   1.00
C139   C     0.52480   0.63283   0.45276   0.00000  Uiso   1.00
C140   C     0.50816   0.64875   0.40319   0.00000  Uiso   1.00
C141   C     0.43303   0.63256   0.39973   0.00000  Uiso   1.00
C142   C     0.43049   0.65152   0.35084   0.00000  Uiso   1.00
C143   C     0.39399   0.67112   0.28056   0.00000  Uiso   1.00
C144   C     0.58023   0.70936   0.48355   0.00000  Uiso   1.00
C145   C     0.56568   0.74412   0.54766   0.00000  Uiso   1.00
C146   C     0.62381   0.81410   0.56641   0.00000  Uiso   1.00
C147   C     0.69922   0.92776   0.62089   0.00000  Uiso   1.00
C148   C     0.57448   0.58320   0.41625   0.00000  Uiso   1.00
C149   C     0.55511   0.51188   0.42379   0.00000  Uiso   1.00
C150   C     0.60842   0.47564   0.38590   0.00000  Uiso   1.00
C151   C     0.67490   0.39342   0.33590   0.00000  Uiso   1.00
C152   C     0.65391   0.69530   0.37208   0.00000  Uiso   1.00
C153   C     0.57829   0.68269   0.35937   0.00000  Uiso   1.00
C154   C     0.57587   0.70167   0.31047   0.00000  Uiso   1.00
C155   C     0.50074   0.68551   0.30694   0.00000  Uiso   1.00
C156   C     0.65035   0.74329   0.43973   0.00000  Uiso   1.00
C157   C     0.70852   0.81323   0.45839   0.00000  Uiso   1.00
C158   C     0.69407   0.84809   0.52251   0.00000  Uiso   1.00
C159   C     0.64461   0.61713   0.37243   0.00000  Uiso   1.00
C160   C     0.69795   0.58100   0.33452   0.00000  Uiso   1.00
C161   C     0.67867   0.50964   0.34200   0.00000  Uiso   1.00
H162   H     0.47021   0.60642   0.48688   0.00000  Uiso   1.00
H163   H     0.37877   0.60631   0.43366   0.00000  Uiso   1.00
H164   H     0.51141   0.71784   0.58156   0.00000  Uiso   1.00
H165   H     0.50084   0.48564   0.45771   0.00000  Uiso   1.00
H166   H     0.30832   0.62117   0.35534   0.00000  Uiso   1.00
H167   H     0.58802   0.85634   0.66720   0.00000  Uiso   1.00
H168   H     0.56573   0.36670   0.40604   0.00000  Uiso   1.00
H169   H     0.70851   0.72172   0.33796   0.00000  Uiso   1.00
H170   H     0.63015   0.72793   0.27656   0.00000  Uiso   1.00
H171   H     0.76278   0.83947   0.42447   0.00000  Uiso   1.00
H172   H     0.75222   0.60727   0.30062   0.00000  Uiso   1.00
H173   H     0.51235   0.71989   0.22784   0.00000  Uiso   1.00
H174   H     0.79204   0.95506   0.53970   0.00000  Uiso   1.00
H175   H     0.76976   0.46542   0.27854   0.00000  Uiso   1.00
O176   O     0.35449   0.67257   0.25390   0.00000  Uiso   1.00
O177   O     0.72144   0.98109   0.66305   0.00000  Uiso   1.00
O178   O     0.69220   0.33869   0.32042   0.00000  Uiso   1.00
N179   N     0.36710   0.64354   0.33375   0.00000  Uiso   1.00
N180   N     0.62858   0.86342   0.62532   0.00000  Uiso   1.00
N181   N     0.60776   0.40565   0.38117   0.00000  Uiso   1.00
N182   N     0.47688   0.69666   0.26514   0.00000  Uiso   1.00
N183   N     0.73837   0.91653   0.55671   0.00000  Uiso   1.00
N184   N     0.71754   0.45877   0.31256   0.00000  Uiso   1.00
C185   C     0.78404   0.24056   0.45738   0.00000  Uiso   1.00
C186   C     0.86010   0.22398   0.42040   0.00000  Uiso   1.00
C187   C     0.93639   0.27791   0.40270   0.00000  Uiso   1.00
C188   C     0.99810   0.25123   0.36907   0.00000  Uiso   1.00
C189   C     0.11835   0.23732   0.31402   0.00000  Uiso   1.00
C190   C     0.74848   0.20839   0.51555   0.00000  Uiso   1.00
C191   C     0.73092   0.24920   0.57783   0.00000  Uiso   1.00
C192   C     0.69867   0.20939   0.62430   0.00000  Uiso   1.00
C193   C     0.64558   0.17126   0.71695   0.00000  Uiso   1.00
C194   C     0.72570   0.19114   0.41685   0.00000  Uiso   1.00
C195   C     0.68895   0.21744   0.39616   0.00000  Uiso   1.00
C196   C     0.63750   0.16310   0.35953   0.00000  Uiso   1.00
C197   C     0.54904   0.09818   0.29894   0.00000  Uiso   1.00
C198   C     0.75799   0.09728   0.42915   0.00000  Uiso   1.00
C199   C     0.84594   0.14615   0.40507   0.00000  Uiso   1.00
C200   C     0.90756   0.11938   0.37146   0.00000  Uiso   1.00
C201   C     0.98393   0.17326   0.35370   0.00000  Uiso   1.00
C202   C     0.73433   0.13056   0.50021   0.00000  Uiso   1.00
C203   C     0.70209   0.09068   0.54659   0.00000  Uiso   1.00
C204   C     0.68449   0.13142   0.60893   0.00000  Uiso   1.00
C205   C     0.71155   0.11331   0.40151   0.00000  Uiso   1.00
C206   C     0.66013   0.05891   0.36491   0.00000  Uiso   1.00
C207   C     0.62332   0.08513   0.34417   0.00000  Uiso   1.00
H208   H     0.79506   0.30115   0.46932   0.00000  Uiso   1.00
H209   H     0.94731   0.33813   0.41458   0.00000  Uiso   1.00
H210   H     0.74187   0.30943   0.58969   0.00000  Uiso   1.00
H211   H     0.69992   0.27767   0.40803   0.00000  Uiso   1.00
H212   H     0.10988   0.34481   0.34714   0.00000  Uiso   1.00
H213   H     0.67666   0.28428   0.71636   0.00000  Uiso   1.00
H214   H     0.58820   0.21731   0.33332   0.00000  Uiso   1.00
H215   H     0.74697   0.03669   0.41721   0.00000  Uiso   1.00
H216   H     0.89659   0.05915   0.35960   0.00000  Uiso   1.00
H217   H     0.69114   0.03045   0.53471   0.00000  Uiso   1.00
H218   H     0.64920   0.99869   0.35306   0.00000  Uiso   1.00
H219   H     0.06871   0.11838   0.30252   0.00000  Uiso   1.00
H220   H     0.63549   0.05785   0.67175   0.00000  Uiso   1.00
H221   H     0.54703   0.99088   0.28869   0.00000  Uiso   1.00
O222   O     0.18859   0.25115   0.28789   0.00000  Uiso   1.00
O223   O     0.62021   0.17173   0.77230   0.00000  Uiso   1.00
O224   O     0.50416   0.08387   0.26975   0.00000  Uiso   1.00
N225   N     0.07966   0.28844   0.34453   0.00000  Uiso   1.00
N226   N     0.67463   0.23185   0.68974   0.00000  Uiso   1.00
N227   N     0.59191   0.16924   0.33163   0.00000  Uiso   1.00
N228   N     0.05750   0.16660   0.32052   0.00000  Uiso   1.00
N229   N     0.65248   0.11000   0.66573   0.00000  Uiso   1.00
N230   N     0.56976   0.04739   0.30762   0.00000  Uiso   1.00
C231   C     0.05495   0.06195   0.53231   0.00000  Uiso   1.00
C232   C     0.01898   0.00449   0.47833   0.00000  Uiso   1.00
C233   C     0.99129   0.92552   0.46658   0.00000  Uiso   1.00
C234   C     0.96051   0.88289   0.41484   0.00000  Uiso   1.00
C235   C     0.90506   0.78833   0.33690   0.00000  Uiso   1.00
C236   C     0.00465   0.11103   0.56840   0.00000  Uiso   1.00
C237   C     0.96492   0.12165   0.63238   0.00000  Uiso   1.00
C238   C     0.92209   0.16872   0.65646   0.00000  Uiso   1.00
C239   C     0.84444   0.23962   0.71837   0.00000  Uiso   1.00
C240   C     0.13751   0.11468   0.50155   0.00000  Uiso   1.00
C241   C     0.20949   0.12838   0.50934   0.00000  Uiso   1.00
C242   C     0.27852   0.17853   0.47714   0.00000  Uiso   1.00
C243   C     0.40717   0.25508   0.43525   0.00000  Uiso   1.00
C244   C     0.04954   0.12667   0.46130   0.00000  Uiso   1.00
C245   C     0.01604   0.03965   0.43976   0.00000  Uiso   1.00
C246   C     0.98530   0.99713   0.38801   0.00000  Uiso   1.00
C247   C     0.95756   0.91811   0.37619   0.00000  Uiso   1.00
C248   C     0.00171   0.14619   0.52983   0.00000  Uiso   1.00
C249   C     0.95893   0.19326   0.55382   0.00000  Uiso   1.00
C250   C     0.91914   0.20395   0.61782   0.00000  Uiso   1.00
C251   C     0.13457   0.14983   0.46297   0.00000  Uiso   1.00
C252   C     0.20350   0.19998   0.43076   0.00000  Uiso   1.00
C253   C     0.27558   0.21375   0.43850   0.00000  Uiso   1.00
H254   H     0.05724   0.03458   0.56235   0.00000  Uiso   1.00
H255   H     0.99357   0.89833   0.49645   0.00000  Uiso   1.00
H256   H     0.96721   0.09444   0.66222   0.00000  Uiso   1.00
H257   H     0.21175   0.10116   0.53919   0.00000  Uiso   1.00
H258   H     0.92165   0.76278   0.40639   0.00000  Uiso   1.00
H259   H     0.86610   0.17631   0.75594   0.00000  Uiso   1.00
H260   H     0.38175   0.19048   0.49651   0.00000  Uiso   1.00
H261   H     0.04725   0.15405   0.43127   0.00000  Uiso   1.00
H262   H     0.98303   0.02436   0.35817   0.00000  Uiso   1.00
H263   H     0.95667   0.22046   0.52395   0.00000  Uiso   1.00
H264   H     0.20120   0.22718   0.40092   0.00000  Uiso   1.00
H265   H     0.91309   0.86507   0.29416   0.00000  Uiso   1.00
H266   H     0.85754   0.27860   0.64372   0.00000  Uiso   1.00
H267   H     0.37319   0.29276   0.38428   0.00000  Uiso   1.00
O268   O     0.87528   0.72645   0.30457   0.00000  Uiso   1.00
O269   O     0.80241   0.26900   0.76317   0.00000  Uiso   1.00
O270   O     0.47894   0.28758   0.42280   0.00000  Uiso   1.00
N271   N     0.92846   0.80465   0.39000   0.00000  Uiso   1.00
N272   N     0.87652   0.19127   0.71681   0.00000  Uiso   1.00
N273   N     0.35861   0.20453   0.47427   0.00000  Uiso   1.00
N274   N     0.92386   0.85969   0.32961   0.00000  Uiso   1.00
N275   N     0.87191   0.24631   0.65642   0.00000  Uiso   1.00
N276   N     0.35400   0.25957   0.41388   0.00000  Uiso   1.00
C277   C     0.55848   0.58666   0.08443   0.00000  Uiso   1.00
C278   C     0.48506   0.53822   0.12691   0.00000  Uiso   1.00
C279   C     0.40997   0.54237   0.15059   0.00000  Uiso   1.00
C280   C     0.35066   0.49316   0.18860   0.00000  Uiso   1.00
C281   C     0.23431   0.42574   0.25243   0.00000  Uiso   1.00
C282   C     0.58578   0.53035   0.02541   0.00000  Uiso   1.00
C283   C     0.59539   0.52791   0.96376   0.00000  Uiso   1.00
C284   C     0.62088   0.47208   0.91633   0.00000  Uiso   1.00
C285   C     0.66096   0.39249   0.82259   0.00000  Uiso   1.00
C286   C     0.62393   0.62646   0.11835   0.00000  Uiso   1.00
C287   C     0.66562   0.70482   0.13483   0.00000  Uiso   1.00
C288   C     0.72324   0.72991   0.16564   0.00000  Uiso   1.00
C289   C     0.82255   0.79954   0.21620   0.00000  Uiso   1.00
C290   C     0.58668   0.49188   0.10980   0.00000  Uiso   1.00
C291   C     0.50038   0.48674   0.14069   0.00000  Uiso   1.00
C292   C     0.44117   0.43751   0.17867   0.00000  Uiso   1.00
C293   C     0.36600   0.44159   0.20241   0.00000  Uiso   1.00
C294   C     0.60110   0.47887   0.03919   0.00000  Uiso   1.00
C295   C     0.62659   0.42304   0.99184   0.00000  Uiso   1.00
C296   C     0.63622   0.42051   0.93014   0.00000  Uiso   1.00
C297   C     0.63925   0.57498   0.13214   0.00000  Uiso   1.00
C298   C     0.69682   0.59995   0.16291   0.00000  Uiso   1.00
C299   C     0.73859   0.67834   0.17944   0.00000  Uiso   1.00
H300   H     0.54656   0.62674   0.07369   0.00000  Uiso   1.00
H301   H     0.39813   0.58222   0.13991   0.00000  Uiso   1.00
H302   H     0.58354   0.56776   0.95311   0.00000  Uiso   1.00
H303   H     0.65375   0.74464   0.12416   0.00000  Uiso   1.00
H304   H     0.24033   0.51013   0.21939   0.00000  Uiso   1.00
H305   H     0.63128   0.47966   0.82551   0.00000  Uiso   1.00
H306   H     0.77935   0.85265   0.18619   0.00000  Uiso   1.00
H307   H     0.59861   0.45180   0.12053   0.00000  Uiso   1.00
H308   H     0.45304   0.39768   0.18933   0.00000  Uiso   1.00
H309   H     0.63844   0.38322   0.00252   0.00000  Uiso   1.00
H310   H     0.70866   0.56010   0.17357   0.00000  Uiso   1.00
H311   H     0.28489   0.36035   0.25949   0.00000  Uiso   1.00
H312   H     0.67585   0.32988   0.86561   0.00000  Uiso   1.00
H313   H     0.82391   0.70287   0.22630   0.00000  Uiso   1.00
O314   O     0.16590   0.40277   0.28383   0.00000  Uiso   1.00
O315   O     0.67883   0.36281   0.76707   0.00000  Uiso   1.00
O316   O     0.87309   0.85217   0.24029   0.00000  Uiso   1.00
N317   N     0.27080   0.48232   0.21939   0.00000  Uiso   1.00
N318   N     0.63630   0.45382   0.85114   0.00000  Uiso   1.00
N319   N     0.77475   0.80254   0.18834   0.00000  Uiso   1.00
N320   N     0.29477   0.40172   0.24097   0.00000  Uiso   1.00
N321   N     0.66028   0.37323   0.87272   0.00000  Uiso   1.00
N322   N     0.79873   0.72194   0.20992   0.00000  Uiso   1.00
C323   C     0.11620   0.93811   0.02845   0.00000  Uiso   1.00
C324   C     0.14535   0.98217   0.08771   0.00000  Uiso   1.00
C325   C     0.16780   0.95392   0.11888   0.00000  Uiso   1.00
C326   C     0.19275   0.00326   0.17225   0.00000  Uiso   1.00
C327   C     0.23769   0.06029   0.26099   0.00000  Uiso   1.00
C328   C     0.17188   0.98550   0.97957   0.00000  Uiso   1.00
C329   C     0.21661   0.96004   0.91982   0.00000  Uiso   1.00
C330   C     0.26387   0.01218   0.88217   0.00000  Uiso   1.00
C331   C     0.34995   0.07436   0.80301   0.00000  Uiso   1.00
C332   C     0.03439   0.94115   0.04505   0.00000  Uiso   1.00
C333   C     0.96352   0.87839   0.04033   0.00000  Uiso   1.00
C334   C     0.89503   0.89319   0.05779   0.00000  Uiso   1.00
C335   C     0.76762   0.88651   0.08029   0.00000  Uiso   1.00
C336   C     0.12058   0.07598   0.06782   0.00000  Uiso   1.00
C337   C     0.14773   0.05705   0.10909   0.00000  Uiso   1.00
C338   C     0.17265   0.10645   0.16243   0.00000  Uiso   1.00
C339   C     0.19513   0.07827   0.19368   0.00000  Uiso   1.00
C340   C     0.17426   0.06038   0.00095   0.00000  Uiso   1.00
C341   C     0.22146   0.11257   0.96338   0.00000  Uiso   1.00
C342   C     0.26626   0.08719   0.90359   0.00000  Uiso   1.00
C343   C     0.03676   0.01603   0.06643   0.00000  Uiso   1.00
C344   C     0.96837   0.03093   0.08389   0.00000  Uiso   1.00
C345   C     0.89741   0.96821   0.07921   0.00000  Uiso   1.00
H346   H     0.11435   0.87982   0.01180   0.00000  Uiso   1.00
H347   H     0.16596   0.89597   0.10231   0.00000  Uiso   1.00
H348   H     0.21475   0.90209   0.90329   0.00000  Uiso   1.00
H349   H     0.96170   0.82046   0.02378   0.00000  Uiso   1.00
H350   H     0.22425   0.94691   0.21207   0.00000  Uiso   1.00
H351   H     0.32712   0.95980   0.79241   0.00000  Uiso   1.00
H352   H     0.79351   0.78766   0.04650   0.00000  Uiso   1.00
H353   H     0.12243   0.13428   0.08446   0.00000  Uiso   1.00
H354   H     0.17448   0.16439   0.17897   0.00000  Uiso   1.00
H355   H     0.22328   0.17051   0.97994   0.00000  Uiso   1.00
H356   H     0.97023   0.08888   0.10044   0.00000  Uiso   1.00
H357   H     0.23117   0.16477   0.27429   0.00000  Uiso   1.00
H358   H     0.33404   0.17766   0.85463   0.00000  Uiso   1.00
H359   H     0.80043   0.00553   0.10872   0.00000  Uiso   1.00
O360   O     0.26183   0.07107   0.30402   0.00000  Uiso   1.00
O361   O     0.39677   0.08797   0.75344   0.00000  Uiso   1.00
O362   O     0.69669   0.86214   0.08680   0.00000  Uiso   1.00
N363   N     0.21872   0.99404   0.21376   0.00000  Uiso   1.00
N364   N     0.31491   0.00610   0.82140   0.00000  Uiso   1.00
N365   N     0.81603   0.84517   0.05894   0.00000  Uiso   1.00
N366   N     0.22245   0.11127   0.24723   0.00000  Uiso   1.00
N367   N     0.31863   0.12333   0.85488   0.00000  Uiso   1.00
N368   N     0.81975   0.96240   0.09241   0.00000  Uiso   1.00
C369   C     0.68257   0.09964   0.98225   0.00000  Uiso   1.00
C370   C     0.69370   0.18256   0.01696   0.00000  Uiso   1.00
C371   C     0.76644   0.24296   0.02046   0.00000  Uiso   1.00
C372   C     0.76393   0.31451   0.05449   0.00000  Uiso   1.00
C373   C     0.79226   0.44165   0.10388   0.00000  Uiso   1.00
C374   C     0.63597   0.07731   0.93569   0.00000  Uiso   1.00
C375   C     0.66017   0.04922   0.87086   0.00000  Uiso   1.00
C376   C     0.60904   0.03217   0.83648   0.00000  Uiso   1.00
C377   C     0.54772   0.99586   0.75971   0.00000  Uiso   1.00
C378   C     0.62634   0.05252   0.03124   0.00000  Uiso   1.00
C379   C     0.64244   0.00356   0.04674   0.00000  Uiso   1.00
C380   C     0.58321   0.96563   0.09280   0.00000  Uiso   1.00
C381   C     0.50694   0.89083   0.16438   0.00000  Uiso   1.00
C382   C     0.54874   0.11930   0.03646   0.00000  Uiso   1.00
C383   C     0.62101   0.19323   0.04641   0.00000  Uiso   1.00
C384   C     0.61838   0.26472   0.08044   0.00000  Uiso   1.00
C385   C     0.69111   0.32522   0.08399   0.00000  Uiso   1.00
C386   C     0.56328   0.08799   0.96514   0.00000  Uiso   1.00
C387   C     0.51210   0.07097   0.93085   0.00000  Uiso   1.00
C388   C     0.53622   0.04287   0.86598   0.00000  Uiso   1.00
C389   C     0.55365   0.06320   0.06069   0.00000  Uiso   1.00
C390   C     0.49438   0.02533   0.10673   0.00000  Uiso   1.00
C391   C     0.51039   0.97633   0.12230   0.00000  Uiso   1.00
H392   H     0.73916   0.09132   0.95932   0.00000  Uiso   1.00
H393   H     0.82268   0.23467   0.99766   0.00000  Uiso   1.00
H394   H     0.71642   0.04095   0.84809   0.00000  Uiso   1.00
H395   H     0.69870   0.99531   0.02395   0.00000  Uiso   1.00
H396   H     0.88323   0.39832   0.05313   0.00000  Uiso   1.00
H397   H     0.65915   0.98983   0.73776   0.00000  Uiso   1.00
H398   H     0.62178   0.89359   0.10858   0.00000  Uiso   1.00
H399   H     0.49215   0.12761   0.05939   0.00000  Uiso   1.00
H400   H     0.56212   0.27296   0.10322   0.00000  Uiso   1.00
H401   H     0.45586   0.07924   0.95365   0.00000  Uiso   1.00
H402   H     0.43814   0.03361   0.12950   0.00000  Uiso   1.00
H403   H     0.67174   0.42940   0.13880   0.00000  Uiso   1.00
H404   H     0.44767   0.02090   0.82343   0.00000  Uiso   1.00
H405   H     0.41030   0.92467   0.19426   0.00000  Uiso   1.00
O406   O     0.82797   0.50882   0.12298   0.00000  Uiso   1.00
O407   O     0.53399   0.97288   0.70923   0.00000  Uiso   1.00
O408   O     0.48496   0.84662   0.19574   0.00000  Uiso   1.00
N409   N     0.82385   0.38568   0.06729   0.00000  Uiso   1.00
N410   N     0.61436   0.00378   0.77243   0.00000  Uiso   1.00
N411   N     0.57942   0.91379   0.11911   0.00000  Uiso   1.00
N412   N     0.71005   0.40241   0.11339   0.00000  Uiso   1.00
N413   N     0.50056   0.02050   0.81854   0.00000  Uiso   1.00
N414   N     0.46562   0.93051   0.16521   0.00000  Uiso   1.00
C415   C     0.33680   0.04605   0.55699   0.00000  Uiso   1.00
C416   C     0.32592   0.98233   0.58184   0.00000  Uiso   1.00
C417   C     0.38500   0.97673   0.59507   0.00000  Uiso   1.00
C418   C     0.36306   0.91409   0.61741   0.00000  Uiso   1.00
C419   C     0.35808   0.82350   0.65463   0.00000  Uiso   1.00
C420   C     0.31106   0.00677   0.49607   0.00000  Uiso   1.00
C421   C     0.35764   0.02173   0.43720   0.00000  Uiso   1.00
C422   C     0.32317   0.97966   0.38735   0.00000  Uiso   1.00
C423   C     0.29510   0.92705   0.29142   0.00000  Uiso   1.00
C424   C     0.27471   0.07963   0.60412   0.00000  Uiso   1.00
C425   C     0.29073   0.15586   0.63608   0.00000  Uiso   1.00
C426   C     0.22567   0.17514   0.67719   0.00000  Uiso   1.00
C427   C     0.14116   0.23565   0.74902   0.00000  Uiso   1.00
C428   C     0.19277   0.94475   0.57313   0.00000  Uiso   1.00
C429   C     0.24769   0.92731   0.59060   0.00000  Uiso   1.00
C430   C     0.22565   0.86466   0.61293   0.00000  Uiso   1.00
C431   C     0.28469   0.85897   0.62620   0.00000  Uiso   1.00
C432   C     0.23283   0.95175   0.50484   0.00000  Uiso   1.00
C433   C     0.19828   0.90965   0.45506   0.00000  Uiso   1.00
C434   C     0.24480   0.92454   0.39613   0.00000  Uiso   1.00
C435   C     0.19648   0.02461   0.61289   0.00000  Uiso   1.00
C436   C     0.13138   0.04378   0.65394   0.00000  Uiso   1.00
C437   C     0.14729   0.12002   0.68597   0.00000  Uiso   1.00
H438   H     0.39770   0.08889   0.55016   0.00000  Uiso   1.00
H439   H     0.44554   0.01932   0.58828   0.00000  Uiso   1.00
H440   H     0.41817   0.06432   0.43044   0.00000  Uiso   1.00
H441   H     0.35128   0.19842   0.62929   0.00000  Uiso   1.00
H442   H     0.46408   0.91792   0.63438   0.00000  Uiso   1.00
H443   H     0.40637   0.01281   0.30156   0.00000  Uiso   1.00
H444   H     0.26531   0.29559   0.72088   0.00000  Uiso   1.00
H445   H     0.13186   0.90192   0.57995   0.00000  Uiso   1.00
H446   H     0.16510   0.82209   0.61971   0.00000  Uiso   1.00
H447   H     0.13774   0.86708   0.46186   0.00000  Uiso   1.00
H448   H     0.07085   0.00119   0.66071   0.00000  Uiso   1.00
H449   H     0.23647   0.75783   0.65988   0.00000  Uiso   1.00
H450   H     0.17876   0.85272   0.32707   0.00000  Uiso   1.00
H451   H     0.03770   0.13551   0.74639   0.00000  Uiso   1.00
O452   O     0.37695   0.78872   0.67272   0.00000  Uiso   1.00
O453   O     0.30123   0.91323   0.23609   0.00000  Uiso   1.00
O454   O     0.11617   0.28423   0.78622   0.00000  Uiso   1.00
N455   N     0.40595   0.89120   0.63494   0.00000  Uiso   1.00
N456   N     0.35199   0.97991   0.32377   0.00000  Uiso   1.00
N457   N     0.22011   0.24430   0.71579   0.00000  Uiso   1.00
N458   N     0.28347   0.80506   0.64866   0.00000  Uiso   1.00
N459   N     0.22952   0.89377   0.33750   0.00000  Uiso   1.00
N460   N     0.09764   0.15816   0.72951   0.00000  Uiso   1.00
C461   C     0.08818   0.50467   0.49693   0.00000  Uiso   1.00
C462   C     0.02968   0.52929   0.55785   0.00000  Uiso   1.00
C463   C     0.94844   0.48683   0.57774   0.00000  Uiso   1.00
C464   C     0.90520   0.51940   0.63489   0.00000  Uiso   1.00
C465   C     0.80878   0.54662   0.72400   0.00000  Uiso   1.00
C466   C     0.12646   0.56734   0.46152   0.00000  Uiso   1.00
C467   C     0.12660   0.55686   0.40041   0.00000  Uiso   1.00
C468   C     0.16484   0.62147   0.37647   0.00000  Uiso   1.00
C469   C     0.21871   0.70776   0.31602   0.00000  Uiso   1.00
C470   C     0.15477   0.50878   0.51673   0.00000  Uiso   1.00
C471   C     0.17872   0.44907   0.50204   0.00000  Uiso   1.00
C472   C     0.24081   0.46437   0.52458   0.00000  Uiso   1.00
C473   C     0.33864   0.45973   0.54985   0.00000  Uiso   1.00
C474   C     0.15586   0.63803   0.56306   0.00000  Uiso   1.00
C475   C     0.06645   0.60173   0.59376   0.00000  Uiso   1.00
C476   C     0.02333   0.63437   0.65090   0.00000  Uiso   1.00
C477   C     0.94203   0.59196   0.67088   0.00000  Uiso   1.00
C478   C     0.16322   0.63977   0.49743   0.00000  Uiso   1.00
C479   C     0.20148   0.70441   0.47358   0.00000  Uiso   1.00
C480   C     0.20167   0.69403   0.41246   0.00000  Uiso   1.00
C481   C     0.19153   0.58121   0.55265   0.00000  Uiso   1.00
C482   C     0.25360   0.59661   0.57521   0.00000  Uiso   1.00
C483   C     0.27764   0.53694   0.56056   0.00000  Uiso   1.00
H484   H     0.05956   0.44828   0.46896   0.00000  Uiso   1.00
H485   H     0.92001   0.43078   0.54992   0.00000  Uiso   1.00
H486   H     0.09815   0.50080   0.37263   0.00000  Uiso   1.00
H487   H     0.15026   0.39302   0.47425   0.00000  Uiso   1.00
H488   H     0.78150   0.44332   0.65552   0.00000  Uiso   1.00
H489   H     0.15714   0.59097   0.28167   0.00000  Uiso   1.00
H490   H     0.26703   0.36370   0.49595   0.00000  Uiso   1.00
H491   H     0.18449   0.69442   0.59102   0.00000  Uiso   1.00
H492   H     0.05179   0.69042   0.67869   0.00000  Uiso   1.00
H493   H     0.22993   0.76045   0.50138   0.00000  Uiso   1.00
H494   H     0.28204   0.65267   0.60300   0.00000  Uiso   1.00
H495   H     0.88846   0.65407   0.76002   0.00000  Uiso   1.00
H496   H     0.26410   0.80171   0.38617   0.00000  Uiso   1.00
H497   H     0.37399   0.57444   0.60045   0.00000  Uiso   1.00
O498   O     0.74543   0.54163   0.76323   0.00000  Uiso   1.00
O499   O     0.23826   0.73534   0.27275   0.00000  Uiso   1.00
O500   O     0.38243   0.43716   0.55388   0.00000  Uiso   1.00
N501   N     0.82489   0.49346   0.66809   0.00000  Uiso   1.00
N502   N     0.17607   0.63151   0.31856   0.00000  Uiso   1.00
N503   N     0.27883   0.41903   0.51888   0.00000  Uiso   1.00
N504   N     0.88244   0.60686   0.72432   0.00000  Uiso   1.00
N505   N     0.23363   0.74491   0.37480   0.00000  Uiso   1.00
N506   N     0.33638   0.53243   0.57512   0.00000  Uiso   1.00
C507   C     0.72308   0.65686   0.56209   0.00000  Uiso   1.00
C508   C     0.76058   0.72384   0.61176   0.00000  Uiso   1.00
C509   C     0.76775   0.79863   0.62463   0.00000  Uiso   1.00
C510   C     0.80391   0.85155   0.67186   0.00000  Uiso   1.00
C511   C     0.85792   0.95878   0.74392   0.00000  Uiso   1.00
C512   C     0.78705   0.62395   0.51910   0.00000  Uiso   1.00
C513   C     0.81647   0.61475   0.45406   0.00000  Uiso   1.00
C514   C     0.87490   0.58357   0.42329   0.00000  Uiso   1.00
C515   C     0.96996   0.53567   0.35149   0.00000  Uiso   1.00
C516   C     0.65687   0.59607   0.59718   0.00000  Uiso   1.00
C517   C     0.57684   0.56341   0.59779   0.00000  Uiso   1.00
C518   C     0.52566   0.50874   0.63275   0.00000  Uiso   1.00
C519   C     0.41861   0.41755   0.68219   0.00000  Uiso   1.00
C520   C     0.77452   0.61785   0.62306   0.00000  Uiso   1.00
C521   C     0.78853   0.70264   0.64487   0.00000  Uiso   1.00
C522   C     0.82467   0.75547   0.69209   0.00000  Uiso   1.00
C523   C     0.83189   0.83032   0.70504   0.00000  Uiso   1.00
C524   C     0.81499   0.60276   0.55221   0.00000  Uiso   1.00
C525   C     0.87339   0.57158   0.52152   0.00000  Uiso   1.00
C526   C     0.90289   0.56234   0.45646   0.00000  Uiso   1.00
C527   C     0.68481   0.57488   0.63030   0.00000  Uiso   1.00
C528   C     0.63375   0.52025   0.66525   0.00000  Uiso   1.00
C529   C     0.55366   0.48752   0.66592   0.00000  Uiso   1.00
H530   H     0.70133   0.67336   0.53630   0.00000  Uiso   1.00
H531   H     0.74613   0.81500   0.59899   0.00000  Uiso   1.00
H532   H     0.79483   0.63114   0.42845   0.00000  Uiso   1.00
H533   H     0.55524   0.57982   0.57216   0.00000  Uiso   1.00
H534   H     0.80815   0.96271   0.68308   0.00000  Uiso   1.00
H535   H     0.91081   0.57500   0.32348   0.00000  Uiso   1.00
H536   H     0.40558   0.46677   0.62652   0.00000  Uiso   1.00
H537   H     0.79628   0.60135   0.64884   0.00000  Uiso   1.00
H538   H     0.84629   0.73905   0.71771   0.00000  Uiso   1.00
H539   H     0.89499   0.55519   0.54716   0.00000  Uiso   1.00
H540   H     0.65540   0.50387   0.69088   0.00000  Uiso   1.00
H541   H     0.88944   0.90107   0.77944   0.00000  Uiso   1.00
H542   H     0.99211   0.51335   0.41984   0.00000  Uiso   1.00
H543   H     0.48688   0.40513   0.72288   0.00000  Uiso   1.00
O544   O     0.88000   0.02378   0.77452   0.00000  Uiso   1.00
O545   O     0.01469   0.51511   0.30274   0.00000  Uiso   1.00
O546   O     0.35184   0.37311   0.70032   0.00000  Uiso   1.00
N547   N     0.82040   0.92930   0.69632   0.00000  Uiso   1.00
N548   N     0.91640   0.56683   0.36011   0.00000  Uiso   1.00
N549   N     0.44405   0.46563   0.64342   0.00000  Uiso   1.00
N550   N     0.86415   0.89613   0.74817   0.00000  Uiso   1.00
N551   N     0.96014   0.53366   0.41196   0.00000  Uiso   1.00
N552   N     0.48780   0.43246   0.69527   0.00000  Uiso   1.00
