data_job_05014
_audit_creation_date              2018-12-19
_audit_creation_method            'Materials Studio'
_symmetry_space_group_name_H-M    'P1'
_symmetry_Int_Tables_number       1
_symmetry_cell_setting            triclinic
loop_
_symmetry_equiv_pos_as_xyz
  x,y,z
_cell_length_a                    36.7001
_cell_length_b                    21.2350
_cell_length_c                    10.3821
_cell_angle_alpha                 90.0000
_cell_angle_beta                  90.0000
_cell_angle_gamma                 90.0000
loop_
_atom_site_label
_atom_site_type_symbol
_atom_site_fract_x
_atom_site_fract_y
_atom_site_fract_z
_atom_site_U_iso_or_equiv
_atom_site_adp_type
_atom_site_occupancy
C1     C     0.08859   0.63791   0.17109   0.00000  Uiso   1.00
C2     C     0.07690   0.57337   0.12173   0.00000  Uiso   1.00
C3     C     0.06788   0.55889   0.99535   0.00000  Uiso   1.00
C4     C     0.05787   0.49710   0.96971   0.00000  Uiso   1.00
C5     C     0.03983   0.40382   0.87827   0.00000  Uiso   1.00
C6     C     0.06214   0.65455   0.27914   0.00000  Uiso   1.00
C7     C     0.04072   0.70833   0.28511   0.00000  Uiso   1.00
C8     C     0.01830   0.71487   0.39199   0.00000  Uiso   1.00
C9     C     0.97738   0.74765   0.54498   0.00000  Uiso   1.00
C10    C     0.12555   0.62826   0.23522   0.00000  Uiso   1.00
C11    C     0.15745   0.65995   0.20429   0.00000  Uiso   1.00
C12    C     0.18841   0.64438   0.27422   0.00000  Uiso   1.00
C13    C     0.24594   0.63635   0.35901   0.00000  Uiso   1.00
C14    C     0.08687   0.55391   0.35031   0.00000  Uiso   1.00
C15    C     0.07596   0.52775   0.21908   0.00000  Uiso   1.00
C16    C     0.06597   0.46595   0.19363   0.00000  Uiso   1.00
C17    C     0.05693   0.45139   0.06722   0.00000  Uiso   1.00
C18    C     0.06121   0.60892   0.37648   0.00000  Uiso   1.00
C19    C     0.03881   0.61539   0.48339   0.00000  Uiso   1.00
C20    C     0.01736   0.66916   0.48951   0.00000  Uiso   1.00
C21    C     0.12462   0.58264   0.33257   0.00000  Uiso   1.00
C22    C     0.15554   0.56701   0.40256   0.00000  Uiso   1.00
C23    C     0.18747   0.59867   0.37174   0.00000  Uiso   1.00
H24    H     0.08932   0.67344   0.09532   0.00000  Uiso   1.00
H25    H     0.06860   0.59422   0.92004   0.00000  Uiso   1.00
H26    H     0.04145   0.74363   0.20977   0.00000  Uiso   1.00
H27    H     0.15816   0.69526   0.12896   0.00000  Uiso   1.00
H28    H     0.04520   0.48627   0.76866   0.00000  Uiso   1.00
H29    H     0.98797   0.80132   0.37958   0.00000  Uiso   1.00
H30    H     0.23407   0.69933   0.20918   0.00000  Uiso   1.00
H31    H     0.08614   0.51839   0.42610   0.00000  Uiso   1.00
H32    H     0.06524   0.43066   0.26897   0.00000  Uiso   1.00
H33    H     0.03810   0.58007   0.55870   0.00000  Uiso   1.00
H34    H     0.15480   0.53170   0.47789   0.00000  Uiso   1.00
H35    H     0.04248   0.35352   0.05187   0.00000  Uiso   1.00
H36    H     0.98525   0.66858   0.66279   0.00000  Uiso   1.00
H37    H     0.23134   0.56658   0.49238   0.00000  Uiso   1.00
O38    O     0.03014   0.36498   0.80094   0.00000  Uiso   1.00
O39    O     0.95506   0.77833   0.60246   0.00000  Uiso   1.00
O40    O     0.27794   0.64451   0.37888   0.00000  Uiso   1.00
N41    N     0.04743   0.46706   0.85687   0.00000  Uiso   1.00
N42    N     0.99392   0.76162   0.42804   0.00000  Uiso   1.00
N43    N     0.22400   0.66627   0.26874   0.00000  Uiso   1.00
N44    N     0.04597   0.39563   0.00926   0.00000  Uiso   1.00
N45    N     0.99246   0.69019   0.58043   0.00000  Uiso   1.00
N46    N     0.22254   0.59484   0.42113   0.00000  Uiso   1.00
C47    C     0.56336   0.33286   0.89035   0.00000  Uiso   1.00
C48    C     0.56140   0.40026   0.94058   0.00000  Uiso   1.00
C49    C     0.55724   0.41778   0.06851   0.00000  Uiso   1.00
C50    C     0.55606   0.48186   0.09473   0.00000  Uiso   1.00
C51    C     0.55256   0.57968   0.18766   0.00000  Uiso   1.00
C52    C     0.53317   0.32696   0.79016   0.00000  Uiso   1.00
C53    C     0.50527   0.28283   0.79163   0.00000  Uiso   1.00
C54    C     0.48032   0.28520   0.69121   0.00000  Uiso   1.00
C55    C     0.43301   0.26918   0.55057   0.00000  Uiso   1.00
C56    C     0.59913   0.32802   0.81631   0.00000  Uiso   1.00
C57    C     0.62670   0.28477   0.83972   0.00000  Uiso   1.00
C58    C     0.65729   0.28802   0.76130   0.00000  Uiso   1.00
C59    C     0.71239   0.27365   0.66125   0.00000  Uiso   1.00
C60    C     0.56865   0.41552   0.70940   0.00000  Uiso   1.00
C61    C     0.56427   0.44516   0.84229   0.00000  Uiso   1.00
C62    C     0.56310   0.50923   0.86832   0.00000  Uiso   1.00
C63    C     0.55894   0.52684   0.99627   0.00000  Uiso   1.00
C64    C     0.53604   0.37185   0.69188   0.00000  Uiso   1.00
C65    C     0.51113   0.37428   0.59143   0.00000  Uiso   1.00
C66    C     0.48320   0.33018   0.59275   0.00000  Uiso   1.00
C67    C     0.60201   0.37291   0.71802   0.00000  Uiso   1.00
C68    C     0.63256   0.37622   0.63953   0.00000  Uiso   1.00
C69    C     0.66017   0.33300   0.66283   0.00000  Uiso   1.00
H70    H     0.56112   0.29791   0.96686   0.00000  Uiso   1.00
H71    H     0.55501   0.38302   0.14454   0.00000  Uiso   1.00
H72    H     0.50306   0.24809   0.86769   0.00000  Uiso   1.00
H73    H     0.62447   0.25003   0.91579   0.00000  Uiso   1.00
H74    H     0.54950   0.49718   0.29819   0.00000  Uiso   1.00
H75    H     0.43995   0.21266   0.71441   0.00000  Uiso   1.00
H76    H     0.69597   0.21676   0.81583   0.00000  Uiso   1.00
H77    H     0.57089   0.45047   0.63288   0.00000  Uiso   1.00
H78    H     0.56532   0.54396   0.79224   0.00000  Uiso   1.00
H79    H     0.51336   0.40903   0.51539   0.00000  Uiso   1.00
H80    H     0.63477   0.41097   0.56349   0.00000  Uiso   1.00
H81    H     0.55786   0.62780   0.01225   0.00000  Uiso   1.00
H82    H     0.44832   0.34328   0.42846   0.00000  Uiso   1.00
H83    H     0.70433   0.34738   0.52988   0.00000  Uiso   1.00
O84    O     0.54983   0.62123   0.26607   0.00000  Uiso   1.00
O85    O     0.40611   0.24795   0.50017   0.00000  Uiso   1.00
O86    O     0.74200   0.25333   0.63323   0.00000  Uiso   1.00
N87    N     0.55224   0.51509   0.20903   0.00000  Uiso   1.00
N88    N     0.44982   0.24909   0.66324   0.00000  Uiso   1.00
N89    N     0.68916   0.25291   0.75803   0.00000  Uiso   1.00
N90    N     0.55674   0.58538   0.05516   0.00000  Uiso   1.00
N91    N     0.45432   0.31938   0.50938   0.00000  Uiso   1.00
N92    N     0.69367   0.32320   0.60417   0.00000  Uiso   1.00
C93    C     0.91141   0.36209   0.17109   0.00000  Uiso   1.00
C94    C     0.92310   0.42663   0.12173   0.00000  Uiso   1.00
C95    C     0.93212   0.44111   0.99535   0.00000  Uiso   1.00
C96    C     0.94213   0.50290   0.96971   0.00000  Uiso   1.00
C97    C     0.96017   0.59618   0.87827   0.00000  Uiso   1.00
C98    C     0.93786   0.34545   0.27914   0.00000  Uiso   1.00
C99    C     0.95928   0.29167   0.28511   0.00000  Uiso   1.00
C100   C     0.98170   0.28513   0.39199   0.00000  Uiso   1.00
C101   C     0.02262   0.25235   0.54498   0.00000  Uiso   1.00
C102   C     0.87445   0.37174   0.23522   0.00000  Uiso   1.00
C103   C     0.84255   0.34005   0.20429   0.00000  Uiso   1.00
C104   C     0.81159   0.35562   0.27422   0.00000  Uiso   1.00
C105   C     0.75406   0.36365   0.35901   0.00000  Uiso   1.00
C106   C     0.91313   0.44609   0.35031   0.00000  Uiso   1.00
C107   C     0.92404   0.47225   0.21908   0.00000  Uiso   1.00
C108   C     0.93403   0.53405   0.19363   0.00000  Uiso   1.00
C109   C     0.94307   0.54861   0.06722   0.00000  Uiso   1.00
C110   C     0.93879   0.39108   0.37648   0.00000  Uiso   1.00
C111   C     0.96119   0.38461   0.48339   0.00000  Uiso   1.00
C112   C     0.98264   0.33084   0.48951   0.00000  Uiso   1.00
C113   C     0.87538   0.41736   0.33257   0.00000  Uiso   1.00
C114   C     0.84446   0.43299   0.40256   0.00000  Uiso   1.00
C115   C     0.81253   0.40133   0.37174   0.00000  Uiso   1.00
H116   H     0.91068   0.32656   0.09532   0.00000  Uiso   1.00
H117   H     0.93140   0.40578   0.92004   0.00000  Uiso   1.00
H118   H     0.95855   0.25637   0.20977   0.00000  Uiso   1.00
H119   H     0.84184   0.30474   0.12896   0.00000  Uiso   1.00
H120   H     0.95480   0.51373   0.76866   0.00000  Uiso   1.00
H121   H     0.01203   0.19868   0.37958   0.00000  Uiso   1.00
H122   H     0.76593   0.30067   0.20918   0.00000  Uiso   1.00
H123   H     0.91386   0.48161   0.42610   0.00000  Uiso   1.00
H124   H     0.93476   0.56934   0.26897   0.00000  Uiso   1.00
H125   H     0.96190   0.41993   0.55870   0.00000  Uiso   1.00
H126   H     0.84520   0.46830   0.47789   0.00000  Uiso   1.00
H127   H     0.95752   0.64648   0.05187   0.00000  Uiso   1.00
H128   H     0.01475   0.33142   0.66279   0.00000  Uiso   1.00
H129   H     0.76866   0.43342   0.49238   0.00000  Uiso   1.00
O130   O     0.96986   0.63502   0.80094   0.00000  Uiso   1.00
O131   O     0.04494   0.22167   0.60246   0.00000  Uiso   1.00
O132   O     0.72206   0.35549   0.37888   0.00000  Uiso   1.00
N133   N     0.95257   0.53294   0.85687   0.00000  Uiso   1.00
N134   N     0.00608   0.23838   0.42804   0.00000  Uiso   1.00
N135   N     0.77600   0.33373   0.26874   0.00000  Uiso   1.00
N136   N     0.95403   0.60437   0.00926   0.00000  Uiso   1.00
N137   N     0.00754   0.30981   0.58043   0.00000  Uiso   1.00
N138   N     0.77746   0.40516   0.42113   0.00000  Uiso   1.00
C139   C     0.43664   0.66714   0.89035   0.00000  Uiso   1.00
C140   C     0.43860   0.59974   0.94058   0.00000  Uiso   1.00
C141   C     0.44276   0.58222   0.06851   0.00000  Uiso   1.00
C142   C     0.44394   0.51814   0.09473   0.00000  Uiso   1.00
C143   C     0.44744   0.42032   0.18766   0.00000  Uiso   1.00
C144   C     0.46683   0.67304   0.79016   0.00000  Uiso   1.00
C145   C     0.49473   0.71717   0.79163   0.00000  Uiso   1.00
C146   C     0.51968   0.71480   0.69121   0.00000  Uiso   1.00
C147   C     0.56699   0.73082   0.55057   0.00000  Uiso   1.00
C148   C     0.40087   0.67198   0.81631   0.00000  Uiso   1.00
C149   C     0.37330   0.71523   0.83972   0.00000  Uiso   1.00
C150   C     0.34271   0.71198   0.76130   0.00000  Uiso   1.00
C151   C     0.28761   0.72635   0.66125   0.00000  Uiso   1.00
C152   C     0.43135   0.58448   0.70940   0.00000  Uiso   1.00
C153   C     0.43573   0.55484   0.84229   0.00000  Uiso   1.00
C154   C     0.43690   0.49077   0.86832   0.00000  Uiso   1.00
C155   C     0.44106   0.47316   0.99627   0.00000  Uiso   1.00
C156   C     0.46396   0.62815   0.69188   0.00000  Uiso   1.00
C157   C     0.48887   0.62572   0.59143   0.00000  Uiso   1.00
C158   C     0.51680   0.66982   0.59275   0.00000  Uiso   1.00
C159   C     0.39799   0.62709   0.71802   0.00000  Uiso   1.00
C160   C     0.36744   0.62378   0.63953   0.00000  Uiso   1.00
C161   C     0.33983   0.66700   0.66283   0.00000  Uiso   1.00
H162   H     0.43888   0.70209   0.96686   0.00000  Uiso   1.00
H163   H     0.44499   0.61698   0.14454   0.00000  Uiso   1.00
H164   H     0.49694   0.75191   0.86769   0.00000  Uiso   1.00
H165   H     0.37553   0.74997   0.91579   0.00000  Uiso   1.00
H166   H     0.45050   0.50282   0.29819   0.00000  Uiso   1.00
H167   H     0.56005   0.78734   0.71441   0.00000  Uiso   1.00
H168   H     0.30403   0.78324   0.81583   0.00000  Uiso   1.00
H169   H     0.42911   0.54953   0.63288   0.00000  Uiso   1.00
H170   H     0.43468   0.45604   0.79224   0.00000  Uiso   1.00
H171   H     0.48664   0.59097   0.51539   0.00000  Uiso   1.00
H172   H     0.36523   0.58903   0.56349   0.00000  Uiso   1.00
H173   H     0.44214   0.37220   0.01225   0.00000  Uiso   1.00
H174   H     0.55168   0.65672   0.42846   0.00000  Uiso   1.00
H175   H     0.29567   0.65262   0.52988   0.00000  Uiso   1.00
O176   O     0.45017   0.37877   0.26607   0.00000  Uiso   1.00
O177   O     0.59389   0.75205   0.50017   0.00000  Uiso   1.00
O178   O     0.25800   0.74667   0.63323   0.00000  Uiso   1.00
N179   N     0.44776   0.48491   0.20903   0.00000  Uiso   1.00
N180   N     0.55018   0.75091   0.66324   0.00000  Uiso   1.00
N181   N     0.31084   0.74709   0.75803   0.00000  Uiso   1.00
N182   N     0.44326   0.41462   0.05516   0.00000  Uiso   1.00
N183   N     0.54568   0.68062   0.50938   0.00000  Uiso   1.00
N184   N     0.30633   0.67680   0.60417   0.00000  Uiso   1.00
C185   C     0.08859   0.86209   0.67109   0.00000  Uiso   1.00
C186   C     0.07690   0.92663   0.62173   0.00000  Uiso   1.00
C187   C     0.06788   0.94111   0.49535   0.00000  Uiso   1.00
C188   C     0.05787   0.00290   0.46971   0.00000  Uiso   1.00
C189   C     0.03983   0.09618   0.37827   0.00000  Uiso   1.00
C190   C     0.06214   0.84545   0.77914   0.00000  Uiso   1.00
C191   C     0.04072   0.79167   0.78511   0.00000  Uiso   1.00
C192   C     0.01830   0.78513   0.89199   0.00000  Uiso   1.00
C193   C     0.97738   0.75235   0.04498   0.00000  Uiso   1.00
C194   C     0.12555   0.87174   0.73522   0.00000  Uiso   1.00
C195   C     0.15745   0.84005   0.70429   0.00000  Uiso   1.00
C196   C     0.18841   0.85562   0.77422   0.00000  Uiso   1.00
C197   C     0.24594   0.86365   0.85901   0.00000  Uiso   1.00
C198   C     0.08687   0.94609   0.85031   0.00000  Uiso   1.00
C199   C     0.07596   0.97225   0.71908   0.00000  Uiso   1.00
C200   C     0.06597   0.03405   0.69363   0.00000  Uiso   1.00
C201   C     0.05693   0.04861   0.56722   0.00000  Uiso   1.00
C202   C     0.06121   0.89108   0.87648   0.00000  Uiso   1.00
C203   C     0.03881   0.88461   0.98339   0.00000  Uiso   1.00
C204   C     0.01736   0.83084   0.98951   0.00000  Uiso   1.00
C205   C     0.12462   0.91736   0.83257   0.00000  Uiso   1.00
C206   C     0.15554   0.93299   0.90256   0.00000  Uiso   1.00
C207   C     0.18747   0.90133   0.87174   0.00000  Uiso   1.00
H208   H     0.08932   0.82656   0.59532   0.00000  Uiso   1.00
H209   H     0.06860   0.90578   0.42004   0.00000  Uiso   1.00
H210   H     0.04145   0.75637   0.70977   0.00000  Uiso   1.00
H211   H     0.15816   0.80474   0.62896   0.00000  Uiso   1.00
H212   H     0.04520   0.01373   0.26866   0.00000  Uiso   1.00
H213   H     0.98797   0.69868   0.87958   0.00000  Uiso   1.00
H214   H     0.23407   0.80067   0.70918   0.00000  Uiso   1.00
H215   H     0.08614   0.98161   0.92610   0.00000  Uiso   1.00
H216   H     0.06524   0.06934   0.76897   0.00000  Uiso   1.00
H217   H     0.03810   0.91993   0.05870   0.00000  Uiso   1.00
H218   H     0.15480   0.96830   0.97789   0.00000  Uiso   1.00
H219   H     0.04248   0.14648   0.55187   0.00000  Uiso   1.00
H220   H     0.98525   0.83142   0.16279   0.00000  Uiso   1.00
H221   H     0.23134   0.93342   0.99238   0.00000  Uiso   1.00
O222   O     0.03014   0.13502   0.30094   0.00000  Uiso   1.00
O223   O     0.95506   0.72167   0.10246   0.00000  Uiso   1.00
O224   O     0.27794   0.85549   0.87888   0.00000  Uiso   1.00
N225   N     0.04743   0.03294   0.35687   0.00000  Uiso   1.00
N226   N     0.99392   0.73838   0.92804   0.00000  Uiso   1.00
N227   N     0.22400   0.83373   0.76874   0.00000  Uiso   1.00
N228   N     0.04597   0.10437   0.50926   0.00000  Uiso   1.00
N229   N     0.99246   0.80981   0.08043   0.00000  Uiso   1.00
N230   N     0.22254   0.90516   0.92113   0.00000  Uiso   1.00
C231   C     0.56336   0.16714   0.39035   0.00000  Uiso   1.00
C232   C     0.56140   0.09974   0.44058   0.00000  Uiso   1.00
C233   C     0.55724   0.08222   0.56851   0.00000  Uiso   1.00
C234   C     0.55606   0.01814   0.59473   0.00000  Uiso   1.00
C235   C     0.55256   0.92032   0.68766   0.00000  Uiso   1.00
C236   C     0.53317   0.17304   0.29016   0.00000  Uiso   1.00
C237   C     0.50527   0.21717   0.29163   0.00000  Uiso   1.00
C238   C     0.48032   0.21480   0.19121   0.00000  Uiso   1.00
C239   C     0.43301   0.23082   0.05057   0.00000  Uiso   1.00
C240   C     0.59913   0.17198   0.31631   0.00000  Uiso   1.00
C241   C     0.62670   0.21523   0.33972   0.00000  Uiso   1.00
C242   C     0.65729   0.21198   0.26130   0.00000  Uiso   1.00
C243   C     0.71239   0.22635   0.16125   0.00000  Uiso   1.00
C244   C     0.56865   0.08448   0.20940   0.00000  Uiso   1.00
C245   C     0.56427   0.05484   0.34229   0.00000  Uiso   1.00
C246   C     0.56310   0.99077   0.36832   0.00000  Uiso   1.00
C247   C     0.55894   0.97316   0.49627   0.00000  Uiso   1.00
C248   C     0.53604   0.12815   0.19188   0.00000  Uiso   1.00
C249   C     0.51113   0.12572   0.09143   0.00000  Uiso   1.00
C250   C     0.48320   0.16982   0.09275   0.00000  Uiso   1.00
C251   C     0.60201   0.12709   0.21802   0.00000  Uiso   1.00
C252   C     0.63256   0.12378   0.13953   0.00000  Uiso   1.00
C253   C     0.66017   0.16700   0.16283   0.00000  Uiso   1.00
H254   H     0.56112   0.20209   0.46686   0.00000  Uiso   1.00
H255   H     0.55501   0.11698   0.64454   0.00000  Uiso   1.00
H256   H     0.50306   0.25191   0.36769   0.00000  Uiso   1.00
H257   H     0.62447   0.24997   0.41579   0.00000  Uiso   1.00
H258   H     0.54950   0.00282   0.79819   0.00000  Uiso   1.00
H259   H     0.43995   0.28734   0.21441   0.00000  Uiso   1.00
H260   H     0.69597   0.28324   0.31583   0.00000  Uiso   1.00
H261   H     0.57089   0.04953   0.13288   0.00000  Uiso   1.00
H262   H     0.56532   0.95604   0.29224   0.00000  Uiso   1.00
H263   H     0.51336   0.09097   0.01539   0.00000  Uiso   1.00
H264   H     0.63477   0.08903   0.06349   0.00000  Uiso   1.00
H265   H     0.55786   0.87220   0.51225   0.00000  Uiso   1.00
H266   H     0.44832   0.15672   0.92846   0.00000  Uiso   1.00
H267   H     0.70433   0.15262   0.02988   0.00000  Uiso   1.00
O268   O     0.54983   0.87877   0.76607   0.00000  Uiso   1.00
O269   O     0.40611   0.25205   0.00017   0.00000  Uiso   1.00
O270   O     0.74200   0.24667   0.13323   0.00000  Uiso   1.00
N271   N     0.55224   0.98491   0.70903   0.00000  Uiso   1.00
N272   N     0.44982   0.25091   0.16324   0.00000  Uiso   1.00
N273   N     0.68916   0.24709   0.25803   0.00000  Uiso   1.00
N274   N     0.55674   0.91462   0.55516   0.00000  Uiso   1.00
N275   N     0.45432   0.18062   0.00938   0.00000  Uiso   1.00
N276   N     0.69367   0.17680   0.10417   0.00000  Uiso   1.00
C277   C     0.91141   0.13791   0.67109   0.00000  Uiso   1.00
C278   C     0.92310   0.07337   0.62173   0.00000  Uiso   1.00
C279   C     0.93212   0.05889   0.49535   0.00000  Uiso   1.00
C280   C     0.94213   0.99710   0.46971   0.00000  Uiso   1.00
C281   C     0.96017   0.90382   0.37827   0.00000  Uiso   1.00
C282   C     0.93786   0.15455   0.77914   0.00000  Uiso   1.00
C283   C     0.95928   0.20833   0.78511   0.00000  Uiso   1.00
C284   C     0.98170   0.21487   0.89199   0.00000  Uiso   1.00
C285   C     0.02262   0.24765   0.04498   0.00000  Uiso   1.00
C286   C     0.87445   0.12826   0.73522   0.00000  Uiso   1.00
C287   C     0.84255   0.15995   0.70429   0.00000  Uiso   1.00
C288   C     0.81159   0.14438   0.77422   0.00000  Uiso   1.00
C289   C     0.75406   0.13635   0.85901   0.00000  Uiso   1.00
C290   C     0.91313   0.05391   0.85031   0.00000  Uiso   1.00
C291   C     0.92404   0.02775   0.71908   0.00000  Uiso   1.00
C292   C     0.93403   0.96595   0.69363   0.00000  Uiso   1.00
C293   C     0.94307   0.95139   0.56722   0.00000  Uiso   1.00
C294   C     0.93879   0.10892   0.87648   0.00000  Uiso   1.00
C295   C     0.96119   0.11539   0.98339   0.00000  Uiso   1.00
C296   C     0.98264   0.16916   0.98951   0.00000  Uiso   1.00
C297   C     0.87538   0.08264   0.83257   0.00000  Uiso   1.00
C298   C     0.84446   0.06701   0.90256   0.00000  Uiso   1.00
C299   C     0.81253   0.09867   0.87174   0.00000  Uiso   1.00
H300   H     0.91068   0.17344   0.59532   0.00000  Uiso   1.00
H301   H     0.93140   0.09422   0.42004   0.00000  Uiso   1.00
H302   H     0.95855   0.24363   0.70977   0.00000  Uiso   1.00
H303   H     0.84184   0.19526   0.62896   0.00000  Uiso   1.00
H304   H     0.95480   0.98627   0.26866   0.00000  Uiso   1.00
H305   H     0.01203   0.30132   0.87958   0.00000  Uiso   1.00
H306   H     0.76593   0.19933   0.70918   0.00000  Uiso   1.00
H307   H     0.91386   0.01839   0.92610   0.00000  Uiso   1.00
H308   H     0.93476   0.93066   0.76897   0.00000  Uiso   1.00
H309   H     0.96190   0.08007   0.05870   0.00000  Uiso   1.00
H310   H     0.84520   0.03170   0.97789   0.00000  Uiso   1.00
H311   H     0.95752   0.85352   0.55187   0.00000  Uiso   1.00
H312   H     0.01475   0.16858   0.16279   0.00000  Uiso   1.00
H313   H     0.76866   0.06658   0.99238   0.00000  Uiso   1.00
O314   O     0.96986   0.86498   0.30094   0.00000  Uiso   1.00
O315   O     0.04494   0.27833   0.10246   0.00000  Uiso   1.00
O316   O     0.72206   0.14451   0.87888   0.00000  Uiso   1.00
N317   N     0.95257   0.96706   0.35687   0.00000  Uiso   1.00
N318   N     0.00608   0.26162   0.92804   0.00000  Uiso   1.00
N319   N     0.77600   0.16627   0.76874   0.00000  Uiso   1.00
N320   N     0.95403   0.89563   0.50926   0.00000  Uiso   1.00
N321   N     0.00754   0.19019   0.08043   0.00000  Uiso   1.00
N322   N     0.77746   0.09484   0.92113   0.00000  Uiso   1.00
C323   C     0.43664   0.83286   0.39035   0.00000  Uiso   1.00
C324   C     0.43860   0.90026   0.44058   0.00000  Uiso   1.00
C325   C     0.44276   0.91778   0.56851   0.00000  Uiso   1.00
C326   C     0.44394   0.98186   0.59473   0.00000  Uiso   1.00
C327   C     0.44744   0.07968   0.68766   0.00000  Uiso   1.00
C328   C     0.46683   0.82696   0.29016   0.00000  Uiso   1.00
C329   C     0.49473   0.78283   0.29163   0.00000  Uiso   1.00
C330   C     0.51968   0.78520   0.19121   0.00000  Uiso   1.00
C331   C     0.56699   0.76918   0.05057   0.00000  Uiso   1.00
C332   C     0.40087   0.82802   0.31631   0.00000  Uiso   1.00
C333   C     0.37330   0.78477   0.33972   0.00000  Uiso   1.00
C334   C     0.34271   0.78802   0.26130   0.00000  Uiso   1.00
C335   C     0.28761   0.77365   0.16125   0.00000  Uiso   1.00
C336   C     0.43135   0.91552   0.20940   0.00000  Uiso   1.00
C337   C     0.43573   0.94516   0.34229   0.00000  Uiso   1.00
C338   C     0.43690   0.00923   0.36832   0.00000  Uiso   1.00
C339   C     0.44106   0.02684   0.49627   0.00000  Uiso   1.00
C340   C     0.46396   0.87185   0.19188   0.00000  Uiso   1.00
C341   C     0.48887   0.87428   0.09143   0.00000  Uiso   1.00
C342   C     0.51680   0.83018   0.09275   0.00000  Uiso   1.00
C343   C     0.39799   0.87291   0.21802   0.00000  Uiso   1.00
C344   C     0.36744   0.87622   0.13953   0.00000  Uiso   1.00
C345   C     0.33983   0.83300   0.16283   0.00000  Uiso   1.00
H346   H     0.43888   0.79791   0.46686   0.00000  Uiso   1.00
H347   H     0.44499   0.88302   0.64454   0.00000  Uiso   1.00
H348   H     0.49694   0.74809   0.36769   0.00000  Uiso   1.00
H349   H     0.37553   0.75003   0.41579   0.00000  Uiso   1.00
H350   H     0.45050   0.99718   0.79819   0.00000  Uiso   1.00
H351   H     0.56005   0.71266   0.21441   0.00000  Uiso   1.00
H352   H     0.30403   0.71676   0.31583   0.00000  Uiso   1.00
H353   H     0.42911   0.95047   0.13288   0.00000  Uiso   1.00
H354   H     0.43468   0.04396   0.29224   0.00000  Uiso   1.00
H355   H     0.48664   0.90903   0.01539   0.00000  Uiso   1.00
H356   H     0.36523   0.91097   0.06349   0.00000  Uiso   1.00
H357   H     0.44214   0.12780   0.51225   0.00000  Uiso   1.00
H358   H     0.55168   0.84328   0.92846   0.00000  Uiso   1.00
H359   H     0.29567   0.84738   0.02988   0.00000  Uiso   1.00
O360   O     0.45017   0.12123   0.76607   0.00000  Uiso   1.00
O361   O     0.59389   0.74795   0.00017   0.00000  Uiso   1.00
O362   O     0.25800   0.75333   0.13323   0.00000  Uiso   1.00
N363   N     0.44776   0.01509   0.70903   0.00000  Uiso   1.00
N364   N     0.55018   0.74909   0.16324   0.00000  Uiso   1.00
N365   N     0.31084   0.75291   0.25803   0.00000  Uiso   1.00
N366   N     0.44326   0.08538   0.55516   0.00000  Uiso   1.00
N367   N     0.54568   0.81938   0.00938   0.00000  Uiso   1.00
N368   N     0.30633   0.82320   0.10417   0.00000  Uiso   1.00
