data_job_04060
_audit_creation_date              2018-12-19
_audit_creation_method            'Materials Studio'
_symmetry_space_group_name_H-M    'P1'
_symmetry_Int_Tables_number       1
_symmetry_cell_setting            triclinic
loop_
_symmetry_equiv_pos_as_xyz
  x,y,z
_cell_length_a                    22.4264
_cell_length_b                    13.4983
_cell_length_c                    19.6937
_cell_angle_alpha                 90.0000
_cell_angle_beta                  90.0000
_cell_angle_gamma                 90.0000
loop_
_atom_site_label
_atom_site_type_symbol
_atom_site_fract_x
_atom_site_fract_y
_atom_site_fract_z
_atom_site_U_iso_or_equiv
_atom_site_adp_type
_atom_site_occupancy
C1     C     0.49268   0.73002   0.80155   0.00000  Uiso   1.00
C2     C     0.53693   0.64649   0.81488   0.00000  Uiso   1.00
C3     C     0.56857   0.59486   0.76573   0.00000  Uiso   1.00
C4     C     0.60687   0.52104   0.78826   0.00000  Uiso   1.00
C5     C     0.67459   0.39454   0.79842   0.00000  Uiso   1.00
C6     C     0.43428   0.69806   0.83464   0.00000  Uiso   1.00
C7     C     0.37962   0.68982   0.80210   0.00000  Uiso   1.00
C8     C     0.33150   0.65941   0.84127   0.00000  Uiso   1.00
C9     C     0.23986   0.61306   0.88212   0.00000  Uiso   1.00
C10    C     0.51486   0.81857   0.84246   0.00000  Uiso   1.00
C11    C     0.52792   0.91167   0.81651   0.00000  Uiso   1.00
C12    C     0.54763   0.98274   0.86227   0.00000  Uiso   1.00
C13    C     0.58109   0.12349   0.91526   0.00000  Uiso   1.00
C14    C     0.50443   0.69071   0.92897   0.00000  Uiso   1.00
C15    C     0.54332   0.62514   0.88409   0.00000  Uiso   1.00
C16    C     0.58158   0.55137   0.90670   0.00000  Uiso   1.00
C17    C     0.61327   0.49965   0.85759   0.00000  Uiso   1.00
C18    C     0.44067   0.67671   0.90384   0.00000  Uiso   1.00
C19    C     0.39262   0.64632   0.94307   0.00000  Uiso   1.00
C20    C     0.33790   0.63803   0.91060   0.00000  Uiso   1.00
C21    C     0.52125   0.79722   0.91167   0.00000  Uiso   1.00
C22    C     0.54093   0.86817   0.95748   0.00000  Uiso   1.00
C23    C     0.55403   0.96135   0.93160   0.00000  Uiso   1.00
H24    H     0.48770   0.74665   0.74767   0.00000  Uiso   1.00
H25    H     0.56361   0.61140   0.71217   0.00000  Uiso   1.00
H26    H     0.37469   0.70635   0.74855   0.00000  Uiso   1.00
H27    H     0.52298   0.92816   0.76295   0.00000  Uiso   1.00
H28    H     0.65057   0.45202   0.70334   0.00000  Uiso   1.00
H29    H     0.25221   0.65226   0.78003   0.00000  Uiso   1.00
H30    H     0.56491   0.11999   0.81040   0.00000  Uiso   1.00
H31    H     0.50940   0.67409   0.98285   0.00000  Uiso   1.00
H32    H     0.58651   0.53486   0.96026   0.00000  Uiso   1.00
H33    H     0.39758   0.62981   0.99663   0.00000  Uiso   1.00
H34    H     0.54587   0.85162   0.01103   0.00000  Uiso   1.00
H35    H     0.66915   0.38990   0.90469   0.00000  Uiso   1.00
H36    H     0.27079   0.59014   0.98138   0.00000  Uiso   1.00
H37    H     0.58349   0.05786   0.01176   0.00000  Uiso   1.00
O38    O     0.71018   0.33066   0.78491   0.00000  Uiso   1.00
O39    O     0.18754   0.59338   0.88553   0.00000  Uiso   1.00
O40    O     0.59779   0.20703   0.92538   0.00000  Uiso   1.00
N41    N     0.64437   0.45652   0.75383   0.00000  Uiso   1.00
N42    N     0.27193   0.64371   0.82553   0.00000  Uiso   1.00
N43    N     0.56426   0.08101   0.85393   0.00000  Uiso   1.00
N44    N     0.65437   0.42309   0.86217   0.00000  Uiso   1.00
N45    N     0.28193   0.61029   0.93387   0.00000  Uiso   1.00
N46    N     0.57426   0.04758   0.96228   0.00000  Uiso   1.00
C47    C     0.00732   0.76998   0.80155   0.00000  Uiso   1.00
C48    C     0.96307   0.85351   0.81488   0.00000  Uiso   1.00
C49    C     0.93143   0.90514   0.76573   0.00000  Uiso   1.00
C50    C     0.89313   0.97896   0.78826   0.00000  Uiso   1.00
C51    C     0.82541   0.10546   0.79842   0.00000  Uiso   1.00
C52    C     0.06572   0.80194   0.83464   0.00000  Uiso   1.00
C53    C     0.12038   0.81018   0.80210   0.00000  Uiso   1.00
C54    C     0.16850   0.84059   0.84127   0.00000  Uiso   1.00
C55    C     0.26014   0.88694   0.88212   0.00000  Uiso   1.00
C56    C     0.98514   0.68143   0.84246   0.00000  Uiso   1.00
C57    C     0.97208   0.58833   0.81651   0.00000  Uiso   1.00
C58    C     0.95237   0.51726   0.86227   0.00000  Uiso   1.00
C59    C     0.91891   0.37651   0.91526   0.00000  Uiso   1.00
C60    C     0.99557   0.80929   0.92897   0.00000  Uiso   1.00
C61    C     0.95668   0.87486   0.88409   0.00000  Uiso   1.00
C62    C     0.91842   0.94863   0.90670   0.00000  Uiso   1.00
C63    C     0.88673   0.00035   0.85759   0.00000  Uiso   1.00
C64    C     0.05933   0.82329   0.90384   0.00000  Uiso   1.00
C65    C     0.10738   0.85368   0.94307   0.00000  Uiso   1.00
C66    C     0.16210   0.86197   0.91060   0.00000  Uiso   1.00
C67    C     0.97875   0.70278   0.91167   0.00000  Uiso   1.00
C68    C     0.95907   0.63183   0.95748   0.00000  Uiso   1.00
C69    C     0.94597   0.53865   0.93160   0.00000  Uiso   1.00
H70    H     0.01230   0.75335   0.74767   0.00000  Uiso   1.00
H71    H     0.93639   0.88860   0.71217   0.00000  Uiso   1.00
H72    H     0.12531   0.79365   0.74855   0.00000  Uiso   1.00
H73    H     0.97702   0.57184   0.76295   0.00000  Uiso   1.00
H74    H     0.84943   0.04798   0.70334   0.00000  Uiso   1.00
H75    H     0.24779   0.84774   0.78003   0.00000  Uiso   1.00
H76    H     0.93509   0.38001   0.81040   0.00000  Uiso   1.00
H77    H     0.99060   0.82591   0.98285   0.00000  Uiso   1.00
H78    H     0.91349   0.96514   0.96026   0.00000  Uiso   1.00
H79    H     0.10242   0.87019   0.99663   0.00000  Uiso   1.00
H80    H     0.95413   0.64838   0.01103   0.00000  Uiso   1.00
H81    H     0.83085   0.11010   0.90469   0.00000  Uiso   1.00
H82    H     0.22921   0.90986   0.98138   0.00000  Uiso   1.00
H83    H     0.91651   0.44214   0.01176   0.00000  Uiso   1.00
O84    O     0.78982   0.16934   0.78491   0.00000  Uiso   1.00
O85    O     0.31246   0.90662   0.88553   0.00000  Uiso   1.00
O86    O     0.90221   0.29297   0.92538   0.00000  Uiso   1.00
N87    N     0.85563   0.04348   0.75383   0.00000  Uiso   1.00
N88    N     0.22807   0.85629   0.82553   0.00000  Uiso   1.00
N89    N     0.93574   0.41899   0.85393   0.00000  Uiso   1.00
N90    N     0.84563   0.07691   0.86217   0.00000  Uiso   1.00
N91    N     0.21807   0.88971   0.93387   0.00000  Uiso   1.00
N92    N     0.92574   0.45242   0.96228   0.00000  Uiso   1.00
C93    C     0.50732   0.23002   0.69845   0.00000  Uiso   1.00
C94    C     0.46307   0.14649   0.68512   0.00000  Uiso   1.00
C95    C     0.43143   0.09486   0.73427   0.00000  Uiso   1.00
C96    C     0.39313   0.02104   0.71174   0.00000  Uiso   1.00
C97    C     0.32541   0.89454   0.70158   0.00000  Uiso   1.00
C98    C     0.56572   0.19806   0.66536   0.00000  Uiso   1.00
C99    C     0.62038   0.18982   0.69790   0.00000  Uiso   1.00
C100   C     0.66850   0.15941   0.65873   0.00000  Uiso   1.00
C101   C     0.76014   0.11306   0.61788   0.00000  Uiso   1.00
C102   C     0.48514   0.31857   0.65754   0.00000  Uiso   1.00
C103   C     0.47208   0.41167   0.68349   0.00000  Uiso   1.00
C104   C     0.45237   0.48274   0.63773   0.00000  Uiso   1.00
C105   C     0.41891   0.62349   0.58474   0.00000  Uiso   1.00
C106   C     0.49557   0.19071   0.57103   0.00000  Uiso   1.00
C107   C     0.45668   0.12514   0.61591   0.00000  Uiso   1.00
C108   C     0.41842   0.05137   0.59330   0.00000  Uiso   1.00
C109   C     0.38673   0.99965   0.64241   0.00000  Uiso   1.00
C110   C     0.55933   0.17671   0.59616   0.00000  Uiso   1.00
C111   C     0.60738   0.14632   0.55693   0.00000  Uiso   1.00
C112   C     0.66210   0.13803   0.58940   0.00000  Uiso   1.00
C113   C     0.47875   0.29722   0.58833   0.00000  Uiso   1.00
C114   C     0.45907   0.36817   0.54252   0.00000  Uiso   1.00
C115   C     0.44597   0.46135   0.56840   0.00000  Uiso   1.00
H116   H     0.51230   0.24665   0.75233   0.00000  Uiso   1.00
H117   H     0.43639   0.11140   0.78783   0.00000  Uiso   1.00
H118   H     0.62531   0.20635   0.75145   0.00000  Uiso   1.00
H119   H     0.47702   0.42816   0.73705   0.00000  Uiso   1.00
H120   H     0.34943   0.95202   0.79666   0.00000  Uiso   1.00
H121   H     0.74779   0.15226   0.71997   0.00000  Uiso   1.00
H122   H     0.43509   0.61999   0.68960   0.00000  Uiso   1.00
H123   H     0.49060   0.17409   0.51715   0.00000  Uiso   1.00
H124   H     0.41349   0.03486   0.53974   0.00000  Uiso   1.00
H125   H     0.60242   0.12981   0.50337   0.00000  Uiso   1.00
H126   H     0.45413   0.35162   0.48897   0.00000  Uiso   1.00
H127   H     0.33085   0.88990   0.59531   0.00000  Uiso   1.00
H128   H     0.72921   0.09014   0.51862   0.00000  Uiso   1.00
H129   H     0.41651   0.55786   0.48824   0.00000  Uiso   1.00
O130   O     0.28982   0.83066   0.71509   0.00000  Uiso   1.00
O131   O     0.81246   0.09338   0.61447   0.00000  Uiso   1.00
O132   O     0.40221   0.70703   0.57462   0.00000  Uiso   1.00
N133   N     0.35563   0.95652   0.74617   0.00000  Uiso   1.00
N134   N     0.72807   0.14371   0.67447   0.00000  Uiso   1.00
N135   N     0.43574   0.58101   0.64607   0.00000  Uiso   1.00
N136   N     0.34563   0.92309   0.63783   0.00000  Uiso   1.00
N137   N     0.71807   0.11029   0.56613   0.00000  Uiso   1.00
N138   N     0.42574   0.54758   0.53772   0.00000  Uiso   1.00
C139   C     0.99268   0.26998   0.69845   0.00000  Uiso   1.00
C140   C     0.03693   0.35351   0.68512   0.00000  Uiso   1.00
C141   C     0.06857   0.40514   0.73427   0.00000  Uiso   1.00
C142   C     0.10687   0.47896   0.71174   0.00000  Uiso   1.00
C143   C     0.17459   0.60546   0.70158   0.00000  Uiso   1.00
C144   C     0.93428   0.30194   0.66536   0.00000  Uiso   1.00
C145   C     0.87962   0.31018   0.69790   0.00000  Uiso   1.00
C146   C     0.83150   0.34059   0.65873   0.00000  Uiso   1.00
C147   C     0.73986   0.38694   0.61788   0.00000  Uiso   1.00
C148   C     0.01486   0.18143   0.65754   0.00000  Uiso   1.00
C149   C     0.02792   0.08833   0.68349   0.00000  Uiso   1.00
C150   C     0.04763   0.01726   0.63773   0.00000  Uiso   1.00
C151   C     0.08109   0.87651   0.58474   0.00000  Uiso   1.00
C152   C     0.00443   0.30929   0.57103   0.00000  Uiso   1.00
C153   C     0.04332   0.37486   0.61591   0.00000  Uiso   1.00
C154   C     0.08158   0.44863   0.59330   0.00000  Uiso   1.00
C155   C     0.11327   0.50035   0.64241   0.00000  Uiso   1.00
C156   C     0.94067   0.32329   0.59616   0.00000  Uiso   1.00
C157   C     0.89262   0.35368   0.55693   0.00000  Uiso   1.00
C158   C     0.83790   0.36197   0.58940   0.00000  Uiso   1.00
C159   C     0.02125   0.20278   0.58833   0.00000  Uiso   1.00
C160   C     0.04093   0.13183   0.54252   0.00000  Uiso   1.00
C161   C     0.05403   0.03865   0.56840   0.00000  Uiso   1.00
H162   H     0.98770   0.25335   0.75233   0.00000  Uiso   1.00
H163   H     0.06361   0.38860   0.78783   0.00000  Uiso   1.00
H164   H     0.87469   0.29365   0.75145   0.00000  Uiso   1.00
H165   H     0.02298   0.07184   0.73705   0.00000  Uiso   1.00
H166   H     0.15057   0.54798   0.79666   0.00000  Uiso   1.00
H167   H     0.75221   0.34774   0.71997   0.00000  Uiso   1.00
H168   H     0.06491   0.88001   0.68960   0.00000  Uiso   1.00
H169   H     0.00940   0.32591   0.51715   0.00000  Uiso   1.00
H170   H     0.08651   0.46514   0.53974   0.00000  Uiso   1.00
H171   H     0.89758   0.37019   0.50337   0.00000  Uiso   1.00
H172   H     0.04587   0.14838   0.48897   0.00000  Uiso   1.00
H173   H     0.16915   0.61010   0.59531   0.00000  Uiso   1.00
H174   H     0.77079   0.40986   0.51862   0.00000  Uiso   1.00
H175   H     0.08349   0.94214   0.48824   0.00000  Uiso   1.00
O176   O     0.21018   0.66934   0.71509   0.00000  Uiso   1.00
O177   O     0.68754   0.40662   0.61447   0.00000  Uiso   1.00
O178   O     0.09779   0.79297   0.57462   0.00000  Uiso   1.00
N179   N     0.14437   0.54348   0.74617   0.00000  Uiso   1.00
N180   N     0.77193   0.35629   0.67447   0.00000  Uiso   1.00
N181   N     0.06426   0.91899   0.64607   0.00000  Uiso   1.00
N182   N     0.15437   0.57691   0.63783   0.00000  Uiso   1.00
N183   N     0.78193   0.38971   0.56613   0.00000  Uiso   1.00
N184   N     0.07426   0.95242   0.53772   0.00000  Uiso   1.00
C185   C     0.50732   0.26998   0.19845   0.00000  Uiso   1.00
C186   C     0.46307   0.35351   0.18512   0.00000  Uiso   1.00
C187   C     0.43143   0.40514   0.23427   0.00000  Uiso   1.00
C188   C     0.39313   0.47896   0.21174   0.00000  Uiso   1.00
C189   C     0.32541   0.60546   0.20158   0.00000  Uiso   1.00
C190   C     0.56572   0.30194   0.16536   0.00000  Uiso   1.00
C191   C     0.62038   0.31018   0.19790   0.00000  Uiso   1.00
C192   C     0.66850   0.34059   0.15873   0.00000  Uiso   1.00
C193   C     0.76014   0.38694   0.11788   0.00000  Uiso   1.00
C194   C     0.48514   0.18143   0.15754   0.00000  Uiso   1.00
C195   C     0.47208   0.08833   0.18349   0.00000  Uiso   1.00
C196   C     0.45237   0.01726   0.13773   0.00000  Uiso   1.00
C197   C     0.41891   0.87651   0.08474   0.00000  Uiso   1.00
C198   C     0.49557   0.30929   0.07103   0.00000  Uiso   1.00
C199   C     0.45668   0.37486   0.11591   0.00000  Uiso   1.00
C200   C     0.41842   0.44863   0.09330   0.00000  Uiso   1.00
C201   C     0.38673   0.50035   0.14241   0.00000  Uiso   1.00
C202   C     0.55933   0.32329   0.09616   0.00000  Uiso   1.00
C203   C     0.60738   0.35368   0.05693   0.00000  Uiso   1.00
C204   C     0.66210   0.36197   0.08940   0.00000  Uiso   1.00
C205   C     0.47875   0.20278   0.08833   0.00000  Uiso   1.00
C206   C     0.45907   0.13183   0.04252   0.00000  Uiso   1.00
C207   C     0.44597   0.03865   0.06840   0.00000  Uiso   1.00
H208   H     0.51230   0.25335   0.25233   0.00000  Uiso   1.00
H209   H     0.43639   0.38860   0.28783   0.00000  Uiso   1.00
H210   H     0.62531   0.29365   0.25145   0.00000  Uiso   1.00
H211   H     0.47702   0.07184   0.23705   0.00000  Uiso   1.00
H212   H     0.34943   0.54798   0.29666   0.00000  Uiso   1.00
H213   H     0.74779   0.34774   0.21997   0.00000  Uiso   1.00
H214   H     0.43509   0.88001   0.18960   0.00000  Uiso   1.00
H215   H     0.49060   0.32591   0.01715   0.00000  Uiso   1.00
H216   H     0.41349   0.46514   0.03974   0.00000  Uiso   1.00
H217   H     0.60242   0.37019   0.00337   0.00000  Uiso   1.00
H218   H     0.45413   0.14838   0.98897   0.00000  Uiso   1.00
H219   H     0.33085   0.61010   0.09531   0.00000  Uiso   1.00
H220   H     0.72921   0.40986   0.01862   0.00000  Uiso   1.00
H221   H     0.41651   0.94214   0.98824   0.00000  Uiso   1.00
O222   O     0.28982   0.66934   0.21509   0.00000  Uiso   1.00
O223   O     0.81246   0.40662   0.11447   0.00000  Uiso   1.00
O224   O     0.40221   0.79297   0.07462   0.00000  Uiso   1.00
N225   N     0.35563   0.54348   0.24617   0.00000  Uiso   1.00
N226   N     0.72807   0.35629   0.17447   0.00000  Uiso   1.00
N227   N     0.43574   0.91899   0.14607   0.00000  Uiso   1.00
N228   N     0.34563   0.57691   0.13783   0.00000  Uiso   1.00
N229   N     0.71807   0.38971   0.06613   0.00000  Uiso   1.00
N230   N     0.42574   0.95242   0.03772   0.00000  Uiso   1.00
C231   C     0.99268   0.23002   0.19845   0.00000  Uiso   1.00
C232   C     0.03693   0.14649   0.18512   0.00000  Uiso   1.00
C233   C     0.06857   0.09486   0.23427   0.00000  Uiso   1.00
C234   C     0.10687   0.02104   0.21174   0.00000  Uiso   1.00
C235   C     0.17459   0.89454   0.20158   0.00000  Uiso   1.00
C236   C     0.93428   0.19806   0.16536   0.00000  Uiso   1.00
C237   C     0.87962   0.18982   0.19790   0.00000  Uiso   1.00
C238   C     0.83150   0.15941   0.15873   0.00000  Uiso   1.00
C239   C     0.73986   0.11306   0.11788   0.00000  Uiso   1.00
C240   C     0.01486   0.31857   0.15754   0.00000  Uiso   1.00
C241   C     0.02792   0.41167   0.18349   0.00000  Uiso   1.00
C242   C     0.04763   0.48274   0.13773   0.00000  Uiso   1.00
C243   C     0.08109   0.62349   0.08474   0.00000  Uiso   1.00
C244   C     0.00443   0.19071   0.07103   0.00000  Uiso   1.00
C245   C     0.04332   0.12514   0.11591   0.00000  Uiso   1.00
C246   C     0.08158   0.05137   0.09330   0.00000  Uiso   1.00
C247   C     0.11327   0.99965   0.14241   0.00000  Uiso   1.00
C248   C     0.94067   0.17671   0.09616   0.00000  Uiso   1.00
C249   C     0.89262   0.14632   0.05693   0.00000  Uiso   1.00
C250   C     0.83790   0.13803   0.08940   0.00000  Uiso   1.00
C251   C     0.02125   0.29722   0.08833   0.00000  Uiso   1.00
C252   C     0.04093   0.36817   0.04252   0.00000  Uiso   1.00
C253   C     0.05403   0.46135   0.06840   0.00000  Uiso   1.00
H254   H     0.98770   0.24665   0.25233   0.00000  Uiso   1.00
H255   H     0.06361   0.11140   0.28783   0.00000  Uiso   1.00
H256   H     0.87469   0.20635   0.25145   0.00000  Uiso   1.00
H257   H     0.02298   0.42816   0.23705   0.00000  Uiso   1.00
H258   H     0.15057   0.95202   0.29666   0.00000  Uiso   1.00
H259   H     0.75221   0.15226   0.21997   0.00000  Uiso   1.00
H260   H     0.06491   0.61999   0.18960   0.00000  Uiso   1.00
H261   H     0.00940   0.17409   0.01715   0.00000  Uiso   1.00
H262   H     0.08651   0.03486   0.03974   0.00000  Uiso   1.00
H263   H     0.89758   0.12981   0.00337   0.00000  Uiso   1.00
H264   H     0.04587   0.35162   0.98897   0.00000  Uiso   1.00
H265   H     0.16915   0.88990   0.09531   0.00000  Uiso   1.00
H266   H     0.77079   0.09014   0.01862   0.00000  Uiso   1.00
H267   H     0.08349   0.55786   0.98824   0.00000  Uiso   1.00
O268   O     0.21018   0.83066   0.21509   0.00000  Uiso   1.00
O269   O     0.68754   0.09338   0.11447   0.00000  Uiso   1.00
O270   O     0.09779   0.70703   0.07462   0.00000  Uiso   1.00
N271   N     0.14437   0.95652   0.24617   0.00000  Uiso   1.00
N272   N     0.77193   0.14371   0.17447   0.00000  Uiso   1.00
N273   N     0.06426   0.58101   0.14607   0.00000  Uiso   1.00
N274   N     0.15437   0.92309   0.13783   0.00000  Uiso   1.00
N275   N     0.78193   0.11029   0.06613   0.00000  Uiso   1.00
N276   N     0.07426   0.54758   0.03772   0.00000  Uiso   1.00
C277   C     0.49268   0.76998   0.30155   0.00000  Uiso   1.00
C278   C     0.53693   0.85351   0.31488   0.00000  Uiso   1.00
C279   C     0.56857   0.90514   0.26573   0.00000  Uiso   1.00
C280   C     0.60687   0.97896   0.28826   0.00000  Uiso   1.00
C281   C     0.67459   0.10546   0.29842   0.00000  Uiso   1.00
C282   C     0.43428   0.80194   0.33464   0.00000  Uiso   1.00
C283   C     0.37962   0.81018   0.30210   0.00000  Uiso   1.00
C284   C     0.33150   0.84059   0.34127   0.00000  Uiso   1.00
C285   C     0.23986   0.88694   0.38212   0.00000  Uiso   1.00
C286   C     0.51486   0.68143   0.34246   0.00000  Uiso   1.00
C287   C     0.52792   0.58833   0.31651   0.00000  Uiso   1.00
C288   C     0.54763   0.51726   0.36227   0.00000  Uiso   1.00
C289   C     0.58109   0.37651   0.41526   0.00000  Uiso   1.00
C290   C     0.50443   0.80929   0.42897   0.00000  Uiso   1.00
C291   C     0.54332   0.87486   0.38409   0.00000  Uiso   1.00
C292   C     0.58158   0.94863   0.40670   0.00000  Uiso   1.00
C293   C     0.61327   0.00035   0.35759   0.00000  Uiso   1.00
C294   C     0.44067   0.82329   0.40384   0.00000  Uiso   1.00
C295   C     0.39262   0.85368   0.44307   0.00000  Uiso   1.00
C296   C     0.33790   0.86197   0.41060   0.00000  Uiso   1.00
C297   C     0.52125   0.70278   0.41167   0.00000  Uiso   1.00
C298   C     0.54093   0.63183   0.45748   0.00000  Uiso   1.00
C299   C     0.55403   0.53865   0.43160   0.00000  Uiso   1.00
H300   H     0.48770   0.75335   0.24767   0.00000  Uiso   1.00
H301   H     0.56361   0.88860   0.21217   0.00000  Uiso   1.00
H302   H     0.37469   0.79365   0.24855   0.00000  Uiso   1.00
H303   H     0.52298   0.57184   0.26295   0.00000  Uiso   1.00
H304   H     0.65057   0.04798   0.20334   0.00000  Uiso   1.00
H305   H     0.25221   0.84774   0.28003   0.00000  Uiso   1.00
H306   H     0.56491   0.38001   0.31040   0.00000  Uiso   1.00
H307   H     0.50940   0.82591   0.48285   0.00000  Uiso   1.00
H308   H     0.58651   0.96514   0.46026   0.00000  Uiso   1.00
H309   H     0.39758   0.87019   0.49663   0.00000  Uiso   1.00
H310   H     0.54587   0.64838   0.51103   0.00000  Uiso   1.00
H311   H     0.66915   0.11010   0.40469   0.00000  Uiso   1.00
H312   H     0.27079   0.90986   0.48138   0.00000  Uiso   1.00
H313   H     0.58349   0.44214   0.51176   0.00000  Uiso   1.00
O314   O     0.71018   0.16934   0.28491   0.00000  Uiso   1.00
O315   O     0.18754   0.90662   0.38553   0.00000  Uiso   1.00
O316   O     0.59779   0.29297   0.42538   0.00000  Uiso   1.00
N317   N     0.64437   0.04348   0.25383   0.00000  Uiso   1.00
N318   N     0.27193   0.85629   0.32553   0.00000  Uiso   1.00
N319   N     0.56426   0.41899   0.35393   0.00000  Uiso   1.00
N320   N     0.65437   0.07691   0.36217   0.00000  Uiso   1.00
N321   N     0.28193   0.88971   0.43387   0.00000  Uiso   1.00
N322   N     0.57426   0.45242   0.46228   0.00000  Uiso   1.00
C323   C     0.00732   0.73002   0.30155   0.00000  Uiso   1.00
C324   C     0.96307   0.64649   0.31488   0.00000  Uiso   1.00
C325   C     0.93143   0.59486   0.26573   0.00000  Uiso   1.00
C326   C     0.89313   0.52104   0.28826   0.00000  Uiso   1.00
C327   C     0.82541   0.39454   0.29842   0.00000  Uiso   1.00
C328   C     0.06572   0.69806   0.33464   0.00000  Uiso   1.00
C329   C     0.12038   0.68982   0.30210   0.00000  Uiso   1.00
C330   C     0.16850   0.65941   0.34127   0.00000  Uiso   1.00
C331   C     0.26014   0.61306   0.38212   0.00000  Uiso   1.00
C332   C     0.98514   0.81857   0.34246   0.00000  Uiso   1.00
C333   C     0.97208   0.91167   0.31651   0.00000  Uiso   1.00
C334   C     0.95237   0.98274   0.36227   0.00000  Uiso   1.00
C335   C     0.91891   0.12349   0.41526   0.00000  Uiso   1.00
C336   C     0.99557   0.69071   0.42897   0.00000  Uiso   1.00
C337   C     0.95668   0.62514   0.38409   0.00000  Uiso   1.00
C338   C     0.91842   0.55137   0.40670   0.00000  Uiso   1.00
C339   C     0.88673   0.49965   0.35759   0.00000  Uiso   1.00
C340   C     0.05933   0.67671   0.40384   0.00000  Uiso   1.00
C341   C     0.10738   0.64632   0.44307   0.00000  Uiso   1.00
C342   C     0.16210   0.63803   0.41060   0.00000  Uiso   1.00
C343   C     0.97875   0.79722   0.41167   0.00000  Uiso   1.00
C344   C     0.95907   0.86817   0.45748   0.00000  Uiso   1.00
C345   C     0.94597   0.96135   0.43160   0.00000  Uiso   1.00
H346   H     0.01230   0.74665   0.24767   0.00000  Uiso   1.00
H347   H     0.93639   0.61140   0.21217   0.00000  Uiso   1.00
H348   H     0.12531   0.70635   0.24855   0.00000  Uiso   1.00
H349   H     0.97702   0.92816   0.26295   0.00000  Uiso   1.00
H350   H     0.84943   0.45202   0.20334   0.00000  Uiso   1.00
H351   H     0.24779   0.65226   0.28003   0.00000  Uiso   1.00
H352   H     0.93509   0.11999   0.31040   0.00000  Uiso   1.00
H353   H     0.99060   0.67409   0.48285   0.00000  Uiso   1.00
H354   H     0.91349   0.53486   0.46026   0.00000  Uiso   1.00
H355   H     0.10242   0.62981   0.49663   0.00000  Uiso   1.00
H356   H     0.95413   0.85162   0.51103   0.00000  Uiso   1.00
H357   H     0.83085   0.38990   0.40469   0.00000  Uiso   1.00
H358   H     0.22921   0.59014   0.48138   0.00000  Uiso   1.00
H359   H     0.91651   0.05786   0.51176   0.00000  Uiso   1.00
O360   O     0.78982   0.33066   0.28491   0.00000  Uiso   1.00
O361   O     0.31246   0.59338   0.38553   0.00000  Uiso   1.00
O362   O     0.90221   0.20703   0.42538   0.00000  Uiso   1.00
N363   N     0.85563   0.45652   0.25383   0.00000  Uiso   1.00
N364   N     0.22807   0.64371   0.32553   0.00000  Uiso   1.00
N365   N     0.93574   0.08101   0.35393   0.00000  Uiso   1.00
N366   N     0.84563   0.42309   0.36217   0.00000  Uiso   1.00
N367   N     0.21807   0.61029   0.43387   0.00000  Uiso   1.00
N368   N     0.92574   0.04758   0.46228   0.00000  Uiso   1.00
