data_job_06614
_audit_creation_date              2018-12-19
_audit_creation_method            'Materials Studio'
_symmetry_space_group_name_H-M    'P1'
_symmetry_Int_Tables_number       1
_symmetry_cell_setting            triclinic
loop_
_symmetry_equiv_pos_as_xyz
  x,y,z
_cell_length_a                    20.4751
_cell_length_b                    20.6749
_cell_length_c                    25.3543
_cell_angle_alpha                 74.4426
_cell_angle_beta                  86.0978
_cell_angle_gamma                 116.1983
loop_
_atom_site_label
_atom_site_type_symbol
_atom_site_fract_x
_atom_site_fract_y
_atom_site_fract_z
_atom_site_U_iso_or_equiv
_atom_site_adp_type
_atom_site_occupancy
C1     C     0.84515   0.68909   0.44451   0.00000  Uiso   1.00
C2     C     0.84989   0.76741   0.43364   0.00000  Uiso   1.00
C3     C     0.79621   0.78155   0.45679   0.00000  Uiso   1.00
C4     C     0.81100   0.85718   0.44157   0.00000  Uiso   1.00
C5     C     0.80829   0.96976   0.43030   0.00000  Uiso   1.00
C6     C     0.85440   0.68003   0.38716   0.00000  Uiso   1.00
C7     C     0.80453   0.62070   0.37124   0.00000  Uiso   1.00
C8     C     0.82312   0.62276   0.31690   0.00000  Uiso   1.00
C9     C     0.82744   0.59965   0.23348   0.00000  Uiso   1.00
C10    C     0.91457   0.69464   0.46600   0.00000  Uiso   1.00
C11    C     0.91529   0.64758   0.51636   0.00000  Uiso   1.00
C12    C     0.98455   0.66193   0.52839   0.00000  Uiso   1.00
C13    C     0.08228   0.66151   0.56739   0.00000  Uiso   1.00
C14    C     0.96687   0.79824   0.37632   0.00000  Uiso   1.00
C15    C     0.91600   0.82669   0.39659   0.00000  Uiso   1.00
C16    C     0.93088   0.90232   0.38134   0.00000  Uiso   1.00
C17    C     0.87724   0.91657   0.40447   0.00000  Uiso   1.00
C18    C     0.92051   0.73931   0.35012   0.00000  Uiso   1.00
C19    C     0.93919   0.74146   0.29579   0.00000  Uiso   1.00
C20    C     0.88935   0.68215   0.27979   0.00000  Uiso   1.00
C21    C     0.98068   0.75393   0.42896   0.00000  Uiso   1.00
C22    C     0.04995   0.76835   0.44091   0.00000  Uiso   1.00
C23    C     0.05078   0.72133   0.49128   0.00000  Uiso   1.00
H24    H     0.79368   0.64293   0.47334   0.00000  Uiso   1.00
H25    H     0.74506   0.73565   0.48545   0.00000  Uiso   1.00
H26    H     0.75337   0.57482   0.39991   0.00000  Uiso   1.00
H27    H     0.86412   0.60171   0.54501   0.00000  Uiso   1.00
H28    H     0.72029   0.86460   0.48251   0.00000  Uiso   1.00
H29    H     0.73784   0.52546   0.30217   0.00000  Uiso   1.00
H30    H     0.97136   0.58215   0.60814   0.00000  Uiso   1.00
H31    H     0.01834   0.84440   0.34748   0.00000  Uiso   1.00
H32    H     0.98204   0.94818   0.35268   0.00000  Uiso   1.00
H33    H     0.99036   0.78735   0.26714   0.00000  Uiso   1.00
H34    H     0.10110   0.81423   0.41224   0.00000  Uiso   1.00
H35    H     0.91263   0.03709   0.37475   0.00000  Uiso   1.00
H36    H     0.93018   0.69795   0.19440   0.00000  Uiso   1.00
H37    H     0.16371   0.75464   0.50037   0.00000  Uiso   1.00
O38    O     0.78852   0.01548   0.43431   0.00000  Uiso   1.00
O39    O     0.81155   0.57053   0.19771   0.00000  Uiso   1.00
O40    O     0.11793   0.64491   0.59913   0.00000  Uiso   1.00
N41    N     0.77055   0.89095   0.45645   0.00000  Uiso   1.00
N42    N     0.78694   0.57388   0.28783   0.00000  Uiso   1.00
N43    N     0.00527   0.62687   0.57388   0.00000  Uiso   1.00
N44    N     0.87405   0.98377   0.39846   0.00000  Uiso   1.00
N45    N     0.89044   0.66670   0.22985   0.00000  Uiso   1.00
N46    N     0.10877   0.71969   0.51590   0.00000  Uiso   1.00
C47    C     0.93856   0.59612   0.77821   0.00000  Uiso   1.00
C48    C     0.86276   0.55603   0.81827   0.00000  Uiso   1.00
C49    C     0.79482   0.51222   0.80673   0.00000  Uiso   1.00
C50    C     0.73179   0.48037   0.84893   0.00000  Uiso   1.00
C51    C     0.61336   0.41639   0.90323   0.00000  Uiso   1.00
C52    C     0.97237   0.68033   0.77287   0.00000  Uiso   1.00
C53    C     0.99661   0.74102   0.72316   0.00000  Uiso   1.00
C54    C     0.02586   0.81382   0.72714   0.00000  Uiso   1.00
C55    C     0.07766   0.94282   0.71095   0.00000  Uiso   1.00
C56    C     0.98663   0.56664   0.80891   0.00000  Uiso   1.00
C57    C     0.02287   0.53176   0.78950   0.00000  Uiso   1.00
C58    C     0.06414   0.50885   0.82381   0.00000  Uiso   1.00
C59    C     0.13806   0.46133   0.86358   0.00000  Uiso   1.00
C60    C     0.94743   0.61748   0.87367   0.00000  Uiso   1.00
C61    C     0.86758   0.56763   0.87012   0.00000  Uiso   1.00
C62    C     0.80463   0.53585   0.91234   0.00000  Uiso   1.00
C63    C     0.73662   0.49199   0.90087   0.00000  Uiso   1.00
C64    C     0.97719   0.69193   0.82472   0.00000  Uiso   1.00
C65    C     0.00642   0.76465   0.82877   0.00000  Uiso   1.00
C66    C     0.03069   0.82544   0.77908   0.00000  Uiso   1.00
C67    C     0.99144   0.57824   0.86076   0.00000  Uiso   1.00
C68    C     0.03267   0.55538   0.89511   0.00000  Uiso   1.00
C69    C     0.06896   0.52047   0.87575   0.00000  Uiso   1.00
H70    H     0.93481   0.58709   0.73785   0.00000  Uiso   1.00
H71    H     0.79112   0.50326   0.76660   0.00000  Uiso   1.00
H72    H     0.99288   0.73203   0.68304   0.00000  Uiso   1.00
H73    H     0.01913   0.52279   0.74937   0.00000  Uiso   1.00
H74    H     0.63393   0.41545   0.82134   0.00000  Uiso   1.00
H75    H     0.05938   0.89783   0.64515   0.00000  Uiso   1.00
H76    H     0.11473   0.45661   0.78502   0.00000  Uiso   1.00
H77    H     0.95118   0.62651   0.91403   0.00000  Uiso   1.00
H78    H     0.80838   0.54483   0.95246   0.00000  Uiso   1.00
H79    H     0.01014   0.77361   0.86890   0.00000  Uiso   1.00
H80    H     0.03639   0.56437   0.93523   0.00000  Uiso   1.00
H81    H     0.64794   0.44920   0.97219   0.00000  Uiso   1.00
H82    H     0.07339   0.93158   0.79600   0.00000  Uiso   1.00
H83    H     0.12874   0.49036   0.93587   0.00000  Uiso   1.00
O84    O     0.54670   0.37791   0.91886   0.00000  Uiso   1.00
O85    O     0.10488   0.01077   0.68770   0.00000  Uiso   1.00
O86    O     0.17749   0.43190   0.87120   0.00000  Uiso   1.00
N87    N     0.65682   0.43459   0.85157   0.00000  Uiso   1.00
N88    N     0.05458   0.88559   0.68685   0.00000  Uiso   1.00
N89    N     0.10635   0.47310   0.81760   0.00000  Uiso   1.00
N90    N     0.66436   0.45275   0.93275   0.00000  Uiso   1.00
N91    N     0.06212   0.90375   0.76802   0.00000  Uiso   1.00
N92    N     0.11388   0.49126   0.89877   0.00000  Uiso   1.00
C93    C     0.44217   0.33269   0.80513   0.00000  Uiso   1.00
C94    C     0.50126   0.38347   0.75107   0.00000  Uiso   1.00
C95    C     0.56507   0.45134   0.74422   0.00000  Uiso   1.00
C96    C     0.61216   0.48937   0.69147   0.00000  Uiso   1.00
C97    C     0.70636   0.57263   0.61426   0.00000  Uiso   1.00
C98    C     0.36842   0.32447   0.79067   0.00000  Uiso   1.00
C99    C     0.32055   0.34273   0.81713   0.00000  Uiso   1.00
C100   C     0.25581   0.33109   0.79772   0.00000  Uiso   1.00
C101   C     0.14375   0.32269   0.78201   0.00000  Uiso   1.00
C102   C     0.43637   0.25372   0.81779   0.00000  Uiso   1.00
C103   C     0.44560   0.21247   0.86705   0.00000  Uiso   1.00
C104   C     0.43805   0.14126   0.87048   0.00000  Uiso   1.00
C105   C     0.43148   0.02302   0.89688   0.00000  Uiso   1.00
C106   C     0.41232   0.27955   0.72363   0.00000  Uiso   1.00
C107   C     0.48504   0.35460   0.70680   0.00000  Uiso   1.00
C108   C     0.53205   0.39255   0.65405   0.00000  Uiso   1.00
C109   C     0.59592   0.46046   0.64712   0.00000  Uiso   1.00
C110   C     0.35221   0.29561   0.74641   0.00000  Uiso   1.00
C111   C     0.28752   0.28394   0.72695   0.00000  Uiso   1.00
C112   C     0.23957   0.30217   0.75337   0.00000  Uiso   1.00
C113   C     0.42015   0.22486   0.77352   0.00000  Uiso   1.00
C114   C     0.41258   0.15369   0.77688   0.00000  Uiso   1.00
C115   C     0.42180   0.11235   0.82613   0.00000  Uiso   1.00
H116   H     0.45479   0.35516   0.83960   0.00000  Uiso   1.00
H117   H     0.57760   0.47366   0.77849   0.00000  Uiso   1.00
H118   H     0.33311   0.36505   0.85139   0.00000  Uiso   1.00
H119   H     0.45814   0.23483   0.90130   0.00000  Uiso   1.00
H120   H     0.70659   0.59232   0.69122   0.00000  Uiso   1.00
H121   H     0.19106   0.36330   0.84494   0.00000  Uiso   1.00
H122   H     0.45472   0.08869   0.95019   0.00000  Uiso   1.00
H123   H     0.39969   0.25708   0.68916   0.00000  Uiso   1.00
H124   H     0.51948   0.37020   0.61980   0.00000  Uiso   1.00
H125   H     0.27499   0.26160   0.69270   0.00000  Uiso   1.00
H126   H     0.40003   0.13137   0.74261   0.00000  Uiso   1.00
H127   H     0.65942   0.50835   0.56242   0.00000  Uiso   1.00
H128   H     0.14389   0.27933   0.71614   0.00000  Uiso   1.00
H129   H     0.40755   0.00472   0.82139   0.00000  Uiso   1.00
O130   O     0.76279   0.62653   0.58390   0.00000  Uiso   1.00
O131   O     0.08643   0.32605   0.78558   0.00000  Uiso   1.00
O132   O     0.43235   0.96578   0.92367   0.00000  Uiso   1.00
N133   N     0.67906   0.55703   0.67043   0.00000  Uiso   1.00
N134   N     0.19707   0.34292   0.81414   0.00000  Uiso   1.00
N135   N     0.44355   0.08617   0.91255   0.00000  Uiso   1.00
N136   N     0.65368   0.51184   0.60112   0.00000  Uiso   1.00
N137   N     0.17169   0.29773   0.74483   0.00000  Uiso   1.00
N138   N     0.41817   0.04099   0.84324   0.00000  Uiso   1.00
C139   C     0.39045   0.59954   0.35840   0.00000  Uiso   1.00
C140   C     0.42222   0.63777   0.29542   0.00000  Uiso   1.00
C141   C     0.39171   0.60915   0.25421   0.00000  Uiso   1.00
C142   C     0.42916   0.65273   0.19899   0.00000  Uiso   1.00
C143   C     0.46848   0.70151   0.10324   0.00000  Uiso   1.00
C144   C     0.37934   0.65781   0.37866   0.00000  Uiso   1.00
C145   C     0.31277   0.64605   0.40745   0.00000  Uiso   1.00
C146   C     0.31414   0.70650   0.42231   0.00000  Uiso   1.00
C147   C     0.28689   0.78638   0.45583   0.00000  Uiso   1.00
C148   C     0.45258   0.59095   0.38413   0.00000  Uiso   1.00
C149   C     0.44760   0.52297   0.41753   0.00000  Uiso   1.00
C150   C     0.51062   0.52713   0.43700   0.00000  Uiso   1.00
C151   C     0.59710   0.50320   0.47901   0.00000  Uiso   1.00
C152   C     0.51124   0.72782   0.33360   0.00000  Uiso   1.00
C153   C     0.48782   0.70744   0.28195   0.00000  Uiso   1.00
C154   C     0.52534   0.75107   0.22677   0.00000  Uiso   1.00
C155   C     0.49489   0.72253   0.18549   0.00000  Uiso   1.00
C156   C     0.44494   0.72748   0.36519   0.00000  Uiso   1.00
C157   C     0.44640   0.78797   0.38001   0.00000  Uiso   1.00
C158   C     0.37986   0.77630   0.40881   0.00000  Uiso   1.00
C159   C     0.51819   0.66063   0.37066   0.00000  Uiso   1.00
C160   C     0.58123   0.66489   0.39008   0.00000  Uiso   1.00
C161   C     0.57635   0.59693   0.42350   0.00000  Uiso   1.00
H162   H     0.33938   0.54530   0.36889   0.00000  Uiso   1.00
H163   H     0.34093   0.55523   0.26466   0.00000  Uiso   1.00
H164   H     0.26201   0.59212   0.41788   0.00000  Uiso   1.00
H165   H     0.39682   0.46907   0.42794   0.00000  Uiso   1.00
H166   H     0.37157   0.59699   0.14315   0.00000  Uiso   1.00
H167   H     0.20517   0.67476   0.46624   0.00000  Uiso   1.00
H168   H     0.48944   0.41527   0.48747   0.00000  Uiso   1.00
H169   H     0.56232   0.78206   0.32311   0.00000  Uiso   1.00
H170   H     0.57611   0.80499   0.21636   0.00000  Uiso   1.00
H171   H     0.49718   0.84187   0.36958   0.00000  Uiso   1.00
H172   H     0.63199   0.71882   0.37965   0.00000  Uiso   1.00
H173   H     0.56244   0.79970   0.10395   0.00000  Uiso   1.00
H174   H     0.39604   0.87747   0.42704   0.00000  Uiso   1.00
H175   H     0.68031   0.61798   0.44827   0.00000  Uiso   1.00
O176   O     0.47204   0.70917   0.05415   0.00000  Uiso   1.00
O177   O     0.25373   0.81119   0.47804   0.00000  Uiso   1.00
O178   O     0.62668   0.47075   0.50589   0.00000  Uiso   1.00
N179   N     0.41461   0.64154   0.14857   0.00000  Uiso   1.00
N180   N     0.25903   0.71425   0.45063   0.00000  Uiso   1.00
N181   N     0.52479   0.47166   0.47050   0.00000  Uiso   1.00
N182   N     0.51732   0.75062   0.12748   0.00000  Uiso   1.00
N183   N     0.36174   0.82333   0.42954   0.00000  Uiso   1.00
N184   N     0.62750   0.58074   0.44941   0.00000  Uiso   1.00
C185   C     0.31940   0.57227   0.03438   0.00000  Uiso   1.00
C186   C     0.24038   0.50702   0.04534   0.00000  Uiso   1.00
C187   C     0.18511   0.47812   0.09297   0.00000  Uiso   1.00
C188   C     0.11649   0.41833   0.09499   0.00000  Uiso   1.00
C189   C     0.99573   0.32156   0.11869   0.00000  Uiso   1.00
C190   C     0.33032   0.63188   0.97902   0.00000  Uiso   1.00
C191   C     0.35067   0.70797   0.97088   0.00000  Uiso   1.00
C192   C     0.35777   0.75329   0.91707   0.00000  Uiso   1.00
C193   C     0.37668   0.85039   0.83780   0.00000  Uiso   1.00
C194   C     0.37134   0.54037   0.02320   0.00000  Uiso   1.00
C195   C     0.42621   0.53952   0.05220   0.00000  Uiso   1.00
C196   C     0.46786   0.50780   0.03558   0.00000  Uiso   1.00
C197   C     0.55048   0.46281   0.02491   0.00000  Uiso   1.00
C198   C     0.29582   0.51748   0.95327   0.00000  Uiso   1.00
C199   C     0.22757   0.47726   0.00128   0.00000  Uiso   1.00
C200   C     0.15902   0.41749   0.00323   0.00000  Uiso   1.00
C201   C     0.10365   0.38851   0.05085   0.00000  Uiso   1.00
C202   C     0.31751   0.60212   0.93496   0.00000  Uiso   1.00
C203   C     0.32458   0.64734   0.88115   0.00000  Uiso   1.00
C204   C     0.34493   0.72347   0.87293   0.00000  Uiso   1.00
C205   C     0.35853   0.51060   0.97914   0.00000  Uiso   1.00
C206   C     0.40011   0.47889   0.96247   0.00000  Uiso   1.00
C207   C     0.45503   0.47799   0.99144   0.00000  Uiso   1.00
H208   H     0.32938   0.59545   0.06868   0.00000  Uiso   1.00
H209   H     0.19504   0.50117   0.12705   0.00000  Uiso   1.00
H210   H     0.36059   0.73099   0.00498   0.00000  Uiso   1.00
H211   H     0.43611   0.56256   0.08629   0.00000  Uiso   1.00
H212   H     0.04046   0.38355   0.17233   0.00000  Uiso   1.00
H213   H     0.38954   0.86812   0.91494   0.00000  Uiso   1.00
H214   H     0.54879   0.51296   0.08640   0.00000  Uiso   1.00
H215   H     0.28585   0.49430   0.91897   0.00000  Uiso   1.00
H216   H     0.14912   0.39447   0.96913   0.00000  Uiso   1.00
H217   H     0.31466   0.62429   0.84706   0.00000  Uiso   1.00
H218   H     0.39018   0.45586   0.92837   0.00000  Uiso   1.00
H219   H     0.00318   0.29695   0.04415   0.00000  Uiso   1.00
H220   H     0.35227   0.78153   0.78677   0.00000  Uiso   1.00
H221   H     0.51151   0.42637   0.95823   0.00000  Uiso   1.00
O222   O     0.93265   0.27642   0.14393   0.00000  Uiso   1.00
O223   O     0.39065   0.91217   0.80625   0.00000  Uiso   1.00
O224   O     0.59958   0.44620   0.03120   0.00000  Uiso   1.00
N225   N     0.05045   0.37686   0.13528   0.00000  Uiso   1.00
N226   N     0.37681   0.82990   0.89465   0.00000  Uiso   1.00
N227   N     0.52571   0.49788   0.05493   0.00000  Uiso   1.00
N228   N     0.03039   0.33026   0.06632   0.00000  Uiso   1.00
N229   N     0.35675   0.78331   0.82568   0.00000  Uiso   1.00
N230   N     0.50565   0.45128   0.98597   0.00000  Uiso   1.00
C231   C     0.82160   0.39263   0.31607   0.00000  Uiso   1.00
C232   C     0.86923   0.42186   0.35667   0.00000  Uiso   1.00
C233   C     0.93135   0.49317   0.34358   0.00000  Uiso   1.00
C234   C     0.96730   0.50902   0.38661   0.00000  Uiso   1.00
C235   C     0.04509   0.56257   0.44141   0.00000  Uiso   1.00
C236   C     0.74208   0.37005   0.34227   0.00000  Uiso   1.00
C237   C     0.69729   0.39780   0.31707   0.00000  Uiso   1.00
C238   C     0.62620   0.37002   0.34798   0.00000  Uiso   1.00
C239   C     0.50656   0.34309   0.38041   0.00000  Uiso   1.00
C240   C     0.82155   0.31838   0.31760   0.00000  Uiso   1.00
C241   C     0.84356   0.30266   0.27166   0.00000  Uiso   1.00
C242   C     0.83937   0.23137   0.28180   0.00000  Uiso   1.00
C243   C     0.84312   0.12421   0.27593   0.00000  Uiso   1.00
C244   C     0.77500   0.29396   0.41576   0.00000  Uiso   1.00
C245   C     0.84392   0.36827   0.41081   0.00000  Uiso   1.00
C246   C     0.87979   0.38401   0.45387   0.00000  Uiso   1.00
C247   C     0.94195   0.45533   0.44085   0.00000  Uiso   1.00
C248   C     0.71677   0.31646   0.39641   0.00000  Uiso   1.00
C249   C     0.64573   0.28863   0.42736   0.00000  Uiso   1.00
C250   C     0.60084   0.31633   0.40222   0.00000  Uiso   1.00
C251   C     0.79624   0.26478   0.37175   0.00000  Uiso   1.00
C252   C     0.79201   0.19350   0.38196   0.00000  Uiso   1.00
C253   C     0.81401   0.17768   0.33604   0.00000  Uiso   1.00
H254   H     0.84131   0.43436   0.27392   0.00000  Uiso   1.00
H255   H     0.95092   0.53464   0.30167   0.00000  Uiso   1.00
H256   H     0.71689   0.43926   0.27517   0.00000  Uiso   1.00
H257   H     0.86315   0.34415   0.22977   0.00000  Uiso   1.00
H258   H     0.06126   0.62219   0.35633   0.00000  Uiso   1.00
H259   H     0.56779   0.42107   0.30043   0.00000  Uiso   1.00
H260   H     0.87620   0.22051   0.20469   0.00000  Uiso   1.00
H261   H     0.75529   0.25224   0.45792   0.00000  Uiso   1.00
H262   H     0.86019   0.34252   0.49577   0.00000  Uiso   1.00
H263   H     0.62616   0.24715   0.46926   0.00000  Uiso   1.00
H264   H     0.77242   0.15204   0.42386   0.00000  Uiso   1.00
H265   H     0.98762   0.46627   0.51387   0.00000  Uiso   1.00
H266   H     0.49415   0.26515   0.45796   0.00000  Uiso   1.00
H267   H     0.80256   0.06458   0.36223   0.00000  Uiso   1.00
O268   O     0.09498   0.60692   0.45668   0.00000  Uiso   1.00
O269   O     0.44757   0.34305   0.38334   0.00000  Uiso   1.00
O270   O     0.85220   0.07992   0.25774   0.00000  Uiso   1.00
N271   N     0.02954   0.57310   0.38821   0.00000  Uiso   1.00
N272   N     0.56818   0.38507   0.33595   0.00000  Uiso   1.00
N273   N     0.85650   0.19755   0.24644   0.00000  Uiso   1.00
N274   N     0.98992   0.48920   0.47298   0.00000  Uiso   1.00
N275   N     0.52856   0.30117   0.42072   0.00000  Uiso   1.00
N276   N     0.81688   0.11365   0.33121   0.00000  Uiso   1.00
C277   C     0.14005   0.40667   0.51199   0.00000  Uiso   1.00
C278   C     0.10202   0.38618   0.46479   0.00000  Uiso   1.00
C279   C     0.12666   0.43076   0.40852   0.00000  Uiso   1.00
C280   C     0.08403   0.40191   0.37189   0.00000  Uiso   1.00
C281   C     0.03487   0.38085   0.29571   0.00000  Uiso   1.00
C282   C     0.15466   0.34085   0.54053   0.00000  Uiso   1.00
C283   C     0.22356   0.34733   0.54794   0.00000  Uiso   1.00
C284   C     0.22523   0.28033   0.57508   0.00000  Uiso   1.00
C285   C     0.25779   0.18891   0.61652   0.00000  Uiso   1.00
C286   C     0.08158   0.40354   0.55464   0.00000  Uiso   1.00
C287   C     0.08904   0.46273   0.57394   0.00000  Uiso   1.00
C288   C     0.02919   0.44849   0.61297   0.00000  Uiso   1.00
C289   C     0.94828   0.45441   0.67633   0.00000  Uiso   1.00
C290   C     0.02052   0.27615   0.54701   0.00000  Uiso   1.00
C291   C     0.03709   0.31528   0.48382   0.00000  Uiso   1.00
C292   C     0.99441   0.28636   0.44727   0.00000  Uiso   1.00
C293   C     0.01899   0.33089   0.39095   0.00000  Uiso   1.00
C294   C     0.08974   0.26996   0.55955   0.00000  Uiso   1.00
C295   C     0.09131   0.20293   0.58669   0.00000  Uiso   1.00
C296   C     0.16019   0.20931   0.59414   0.00000  Uiso   1.00
C297   C     0.01665   0.33265   0.57367   0.00000  Uiso   1.00
C298   C     0.95679   0.31832   0.61269   0.00000  Uiso   1.00
C299   C     0.96415   0.37747   0.63203   0.00000  Uiso   1.00
H300   H     0.19060   0.46186   0.49718   0.00000  Uiso   1.00
H301   H     0.17691   0.48562   0.39381   0.00000  Uiso   1.00
H302   H     0.27379   0.40220   0.53322   0.00000  Uiso   1.00
H303   H     0.13929   0.51758   0.55920   0.00000  Uiso   1.00
H304   H     0.13312   0.48068   0.28759   0.00000  Uiso   1.00
H305   H     0.33738   0.30480   0.58156   0.00000  Uiso   1.00
H306   H     0.05377   0.54809   0.63636   0.00000  Uiso   1.00
H307   H     0.96997   0.22096   0.56183   0.00000  Uiso   1.00
H308   H     0.94417   0.23149   0.46201   0.00000  Uiso   1.00
H309   H     0.04106   0.14808   0.60141   0.00000  Uiso   1.00
H310   H     0.90656   0.26345   0.62740   0.00000  Uiso   1.00
H311   H     0.94422   0.27442   0.34294   0.00000  Uiso   1.00
H312   H     0.14849   0.09854   0.63691   0.00000  Uiso   1.00
H313   H     0.86487   0.34183   0.69171   0.00000  Uiso   1.00
O314   O     0.02569   0.38882   0.24843   0.00000  Uiso   1.00
O315   O     0.29368   0.15807   0.63411   0.00000  Uiso   1.00
O316   O     0.92158   0.47726   0.70601   0.00000  Uiso   1.00
N317   N     0.09219   0.43070   0.31432   0.00000  Uiso   1.00
N318   N     0.28317   0.26626   0.58915   0.00000  Uiso   1.00
N319   N     0.01802   0.49371   0.64040   0.00000  Uiso   1.00
N320   N     0.99055   0.31971   0.34410   0.00000  Uiso   1.00
N321   N     0.18153   0.15527   0.61894   0.00000  Uiso   1.00
N322   N     0.91638   0.38272   0.67019   0.00000  Uiso   1.00
C323   C     0.00447   0.12974   0.09642   0.00000  Uiso   1.00
C324   C     0.07783   0.18997   0.10290   0.00000  Uiso   1.00
C325   C     0.08685   0.22166   0.14544   0.00000  Uiso   1.00
C326   C     0.15848   0.27591   0.14395   0.00000  Uiso   1.00
C327   C     0.26320   0.36610   0.16049   0.00000  Uiso   1.00
C328   C     0.01717   0.06298   0.09456   0.00000  Uiso   1.00
C329   C     0.97519   0.98790   0.13007   0.00000  Uiso   1.00
C330   C     0.99576   0.93524   0.12155   0.00000  Uiso   1.00
C331   C     0.00628   0.82826   0.12511   0.00000  Uiso   1.00
C332   C     0.99459   0.16367   0.03816   0.00000  Uiso   1.00
C333   C     0.93362   0.17323   0.02625   0.00000  Uiso   1.00
C334   C     0.93517   0.20534   0.97024   0.00000  Uiso   1.00
C335   C     0.91063   0.25470   0.88624   0.00000  Uiso   1.00
C336   C     0.11563   0.16973   0.01813   0.00000  Uiso   1.00
C337   C     0.13820   0.21169   0.06038   0.00000  Uiso   1.00
C338   C     0.20984   0.26591   0.05882   0.00000  Uiso   1.00
C339   C     0.21897   0.29768   0.10135   0.00000  Uiso   1.00
C340   C     0.07755   0.08470   0.05203   0.00000  Uiso   1.00
C341   C     0.09818   0.03214   0.04345   0.00000  Uiso   1.00
C342   C     0.05625   0.95700   0.07895   0.00000  Uiso   1.00
C343   C     0.05497   0.18539   0.99563   0.00000  Uiso   1.00
C344   C     0.05661   0.21748   0.93963   0.00000  Uiso   1.00
C345   C     0.99566   0.22709   0.92764   0.00000  Uiso   1.00
H346   H     0.95746   0.11283   0.12953   0.00000  Uiso   1.00
H347   H     0.04011   0.20483   0.17835   0.00000  Uiso   1.00
H348   H     0.92847   0.97110   0.16297   0.00000  Uiso   1.00
H349   H     0.88691   0.15642   0.05917   0.00000  Uiso   1.00
H350   H     0.15837   0.31640   0.21372   0.00000  Uiso   1.00
H351   H     0.92295   0.82356   0.18130   0.00000  Uiso   1.00
H352   H     0.83531   0.21432   0.96241   0.00000  Uiso   1.00
H353   H     0.16264   0.18664   0.98502   0.00000  Uiso   1.00
H354   H     0.25655   0.28271   0.02590   0.00000  Uiso   1.00
H355   H     0.14491   0.04897   0.01054   0.00000  Uiso   1.00
H356   H     0.10335   0.23428   0.90673   0.00000  Uiso   1.00
H357   H     0.33404   0.37960   0.09000   0.00000  Uiso   1.00
H358   H     0.09862   0.88676   0.05758   0.00000  Uiso   1.00
H359   H     0.01098   0.27752   0.83869   0.00000  Uiso   1.00
O360   O     0.30429   0.40984   0.18137   0.00000  Uiso   1.00
O361   O     0.99541   0.76326   0.13883   0.00000  Uiso   1.00
O362   O     0.88043   0.27593   0.85166   0.00000  Uiso   1.00
N363   N     0.18683   0.31810   0.17899   0.00000  Uiso   1.00
N364   N     0.96673   0.85733   0.14868   0.00000  Uiso   1.00
N365   N     0.88478   0.22264   0.94404   0.00000  Uiso   1.00
N366   N     0.28135   0.35211   0.11241   0.00000  Uiso   1.00
N367   N     0.06125   0.89134   0.08210   0.00000  Uiso   1.00
N368   N     0.97931   0.25665   0.87746   0.00000  Uiso   1.00
C369   C     0.69829   0.82398   0.03162   0.00000  Uiso   1.00
C370   C     0.69947   0.78992   0.09264   0.00000  Uiso   1.00
C371   C     0.66113   0.71293   0.12466   0.00000  Uiso   1.00
C372   C     0.66951   0.69331   0.17964   0.00000  Uiso   1.00
C373   C     0.66451   0.63198   0.27101   0.00000  Uiso   1.00
C374   C     0.77939   0.86854   0.99980   0.00000  Uiso   1.00
C375   C     0.80824   0.85765   0.95376   0.00000  Uiso   1.00
C376   C     0.88389   0.90423   0.93058   0.00000  Uiso   1.00
C377   C     0.00296   0.96499   0.87779   0.00000  Uiso   1.00
C378   C     0.67295   0.88344   0.03031   0.00000  Uiso   1.00
C379   C     0.61230   0.88510   0.00992   0.00000  Uiso   1.00
C380   C     0.59835   0.94424   0.01242   0.00000  Uiso   1.00
C381   C     0.55214   0.02814   0.00701   0.00000  Uiso   1.00
C382   C     0.78137   0.92605   0.07231   0.00000  Uiso   1.00
C383   C     0.74460   0.84536   0.11473   0.00000  Uiso   1.00
C384   C     0.75304   0.82586   0.16968   0.00000  Uiso   1.00
C385   C     0.71471   0.74885   0.20178   0.00000  Uiso   1.00
C386   C     0.82452   0.92398   0.02189   0.00000  Uiso   1.00
C387   C     0.90015   0.97058   0.99877   0.00000  Uiso   1.00
C388   C     0.92910   0.95977   0.95272   0.00000  Uiso   1.00
C389   C     0.71807   0.93888   0.05241   0.00000  Uiso   1.00
C390   C     0.70421   0.99803   0.05493   0.00000  Uiso   1.00
C391   C     0.64355   0.99978   0.03455   0.00000  Uiso   1.00
H392   H     0.66317   0.78082   0.01442   0.00000  Uiso   1.00
H393   H     0.62622   0.67004   0.10755   0.00000  Uiso   1.00
H394   H     0.77330   0.81475   0.93667   0.00000  Uiso   1.00
H395   H     0.57739   0.84219   0.99282   0.00000  Uiso   1.00
H396   H     0.60517   0.57167   0.22054   0.00000  Uiso   1.00
H397   H     0.91530   0.87681   0.86022   0.00000  Uiso   1.00
H398   H     0.50219   0.93468   0.97863   0.00000  Uiso   1.00
H399   H     0.81650   0.96922   0.08951   0.00000  Uiso   1.00
H400   H     0.78796   0.86877   0.18676   0.00000  Uiso   1.00
H401   H     0.93505   0.01348   0.01588   0.00000  Uiso   1.00
H402   H     0.73914   0.04092   0.07204   0.00000  Uiso   1.00
H403   H     0.73645   0.73297   0.28483   0.00000  Uiso   1.00
H404   H     0.04659   0.03811   0.92451   0.00000  Uiso   1.00
H405   H     0.63348   0.09597   0.04292   0.00000  Uiso   1.00
O406   O     0.64929   0.58284   0.31530   0.00000  Uiso   1.00
O407   O     0.05617   0.98318   0.84257   0.00000  Uiso   1.00
O408   O     0.51418   0.05910   0.99792   0.00000  Uiso   1.00
N409   N     0.63997   0.62342   0.22233   0.00000  Uiso   1.00
N410   N     0.92993   0.90870   0.88545   0.00000  Uiso   1.00
N411   N     0.54372   0.96281   0.99614   0.00000  Uiso   1.00
N412   N     0.71062   0.71021   0.25692   0.00000  Uiso   1.00
N413   N     0.00057   0.99549   0.92005   0.00000  Uiso   1.00
N414   N     0.61436   0.04960   0.03074   0.00000  Uiso   1.00
C415   C     0.67450   0.15649   0.63399   0.00000  Uiso   1.00
C416   C     0.66954   0.13649   0.69708   0.00000  Uiso   1.00
C417   C     0.72658   0.17128   0.72292   0.00000  Uiso   1.00
C418   C     0.71094   0.14476   0.78112   0.00000  Uiso   1.00
C419   C     0.71393   0.12268   0.87433   0.00000  Uiso   1.00
C420   C     0.65348   0.08244   0.62153   0.00000  Uiso   1.00
C421   C     0.69702   0.07179   0.58384   0.00000  Uiso   1.00
C422   C     0.66785   0.99977   0.57845   0.00000  Uiso   1.00
C423   C     0.64589   0.89380   0.55433   0.00000  Uiso   1.00
C424   C     0.61192   0.17587   0.62272   0.00000  Uiso   1.00
C425   C     0.62051   0.24376   0.58604   0.00000  Uiso   1.00
C426   C     0.55634   0.25039   0.58164   0.00000  Uiso   1.00
C427   C     0.46985   0.28947   0.55938   0.00000  Uiso   1.00
C428   C     0.54529   0.04753   0.69141   0.00000  Uiso   1.00
C429   C     0.59936   0.07731   0.72826   0.00000  Uiso   1.00
C430   C     0.58363   0.05073   0.78644   0.00000  Uiso   1.00
C431   C     0.64063   0.08547   0.81237   0.00000  Uiso   1.00
C432   C     0.58330   0.02326   0.65271   0.00000  Uiso   1.00
C433   C     0.55406   0.95124   0.64736   0.00000  Uiso   1.00
C434   C     0.59754   0.94048   0.60969   0.00000  Uiso   1.00
C435   C     0.54174   0.11668   0.65391   0.00000  Uiso   1.00
C436   C     0.47755   0.12321   0.64956   0.00000  Uiso   1.00
C437   C     0.48603   0.19110   0.61288   0.00000  Uiso   1.00
H438   H     0.72914   0.20257   0.60971   0.00000  Uiso   1.00
H439   H     0.78089   0.21708   0.69877   0.00000  Uiso   1.00
H440   H     0.75133   0.11761   0.55971   0.00000  Uiso   1.00
H441   H     0.67483   0.28955   0.56191   0.00000  Uiso   1.00
H442   H     0.80733   0.20704   0.81126   0.00000  Uiso   1.00
H443   H     0.74498   0.99732   0.51803   0.00000  Uiso   1.00
H444   H     0.58366   0.35988   0.52267   0.00000  Uiso   1.00
H445   H     0.49064   0.00145   0.71569   0.00000  Uiso   1.00
H446   H     0.52931   0.00493   0.81056   0.00000  Uiso   1.00
H447   H     0.49975   0.90546   0.67150   0.00000  Uiso   1.00
H448   H     0.42325   0.07740   0.67370   0.00000  Uiso   1.00
H449   H     0.60314   0.03485   0.90199   0.00000  Uiso   1.00
H450   H     0.54079   0.82512   0.60876   0.00000  Uiso   1.00
H451   H     0.37947   0.18769   0.61340   0.00000  Uiso   1.00
O452   O     0.73498   0.12684   0.91712   0.00000  Uiso   1.00
O453   O     0.65317   0.85170   0.53242   0.00000  Uiso   1.00
O454   O     0.44153   0.32738   0.53850   0.00000  Uiso   1.00
N455   N     0.75396   0.16605   0.81959   0.00000  Uiso   1.00
N456   N     0.69567   0.96997   0.54545   0.00000  Uiso   1.00
N457   N     0.54485   0.30893   0.54977   0.00000  Uiso   1.00
N458   N     0.64408   0.07340   0.86842   0.00000  Uiso   1.00
N459   N     0.58580   0.87731   0.59427   0.00000  Uiso   1.00
N460   N     0.43498   0.21627   0.59859   0.00000  Uiso   1.00
C461   C     0.60024   0.20096   0.08591   0.00000  Uiso   1.00
C462   C     0.64498   0.23645   0.02567   0.00000  Uiso   1.00
C463   C     0.61571   0.22917   0.97851   0.00000  Uiso   1.00
C464   C     0.66591   0.26600   0.92714   0.00000  Uiso   1.00
C465   C     0.72372   0.31460   0.83421   0.00000  Uiso   1.00
C466   C     0.63280   0.15306   0.11848   0.00000  Uiso   1.00
C467   C     0.59327   0.07568   0.14935   0.00000  Uiso   1.00
C468   C     0.63322   0.04232   0.17611   0.00000  Uiso   1.00
C469   C     0.67209   0.96148   0.22730   0.00000  Uiso   1.00
C470   C     0.61973   0.26704   0.10854   0.00000  Uiso   1.00
C471   C     0.56922   0.28548   0.13108   0.00000  Uiso   1.00
C472   C     0.59816   0.34806   0.14949   0.00000  Uiso   1.00
C473   C     0.61675   0.44418   0.18525   0.00000  Uiso   1.00
C474   C     0.74146   0.27930   0.07854   0.00000  Uiso   1.00
C475   C     0.72169   0.27900   0.02167   0.00000  Uiso   1.00
C476   C     0.77195   0.31585   0.97035   0.00000  Uiso   1.00
C477   C     0.74276   0.30863   0.92313   0.00000  Uiso   1.00
C478   C     0.70950   0.19561   0.11447   0.00000  Uiso   1.00
C479   C     0.74951   0.16236   0.14120   0.00000  Uiso   1.00
C480   C     0.71006   0.08494   0.17210   0.00000  Uiso   1.00
C481   C     0.69643   0.30959   0.10454   0.00000  Uiso   1.00
C482   C     0.72546   0.37216   0.12292   0.00000  Uiso   1.00
C483   C     0.67501   0.39069   0.14548   0.00000  Uiso   1.00
H484   H     0.54053   0.16782   0.08903   0.00000  Uiso   1.00
H485   H     0.55635   0.19623   0.98163   0.00000  Uiso   1.00
H486   H     0.53391   0.04277   0.15245   0.00000  Uiso   1.00
H487   H     0.50987   0.25253   0.13417   0.00000  Uiso   1.00
H488   H     0.60771   0.24647   0.86079   0.00000  Uiso   1.00
H489   H     0.56041   0.92289   0.22099   0.00000  Uiso   1.00
H490   H     0.50970   0.36522   0.18245   0.00000  Uiso   1.00
H491   H     0.80118   0.31243   0.07542   0.00000  Uiso   1.00
H492   H     0.83130   0.34877   0.96727   0.00000  Uiso   1.00
H493   H     0.80887   0.19531   0.13809   0.00000  Uiso   1.00
H494   H     0.78482   0.40507   0.11981   0.00000  Uiso   1.00
H495   H     0.83088   0.37027   0.84913   0.00000  Uiso   1.00
H496   H     0.78357   0.04669   0.20933   0.00000  Uiso   1.00
H497   H     0.73286   0.48902   0.17079   0.00000  Uiso   1.00
O498   O     0.73441   0.32965   0.78406   0.00000  Uiso   1.00
O499   O     0.67234   0.90513   0.25663   0.00000  Uiso   1.00
O500   O     0.60581   0.48546   0.20607   0.00000  Uiso   1.00
N501   N     0.65610   0.27063   0.87289   0.00000  Uiso   1.00
N502   N     0.61187   0.96810   0.20964   0.00000  Uiso   1.00
N503   N     0.56446   0.38163   0.17363   0.00000  Uiso   1.00
N504   N     0.77618   0.33725   0.86661   0.00000  Uiso   1.00
N505   N     0.73196   0.03472   0.20337   0.00000  Uiso   1.00
N506   N     0.68454   0.44825   0.16736   0.00000  Uiso   1.00
C507   C     0.09427   0.02891   0.54363   0.00000  Uiso   1.00
C508   C     0.01942   0.95592   0.56272   0.00000  Uiso   1.00
C509   C     0.96469   0.93308   0.60927   0.00000  Uiso   1.00
C510   C     0.90015   0.86440   0.61963   0.00000  Uiso   1.00
C511   C     0.78538   0.75776   0.65461   0.00000  Uiso   1.00
C512   C     0.15360   0.00358   0.54076   0.00000  Uiso   1.00
C513   C     0.21168   0.02083   0.56886   0.00000  Uiso   1.00
C514   C     0.26010   0.99228   0.56073   0.00000  Uiso   1.00
C515   C     0.35367   0.95969   0.56159   0.00000  Uiso   1.00
C516   C     0.09793   0.07147   0.48327   0.00000  Uiso   1.00
C517   C     0.10923   0.14581   0.46302   0.00000  Uiso   1.00
C518   C     0.11079   0.17442   0.40648   0.00000  Uiso   1.00
C519   C     0.11793   0.24724   0.31809   0.00000  Uiso   1.00
C520   C     0.07697   0.94754   0.47923   0.00000  Uiso   1.00
C521   C     0.01003   0.91172   0.52774   0.00000  Uiso   1.00
C522   C     0.94555   0.84305   0.53803   0.00000  Uiso   1.00
C523   C     0.89074   0.82012   0.58459   0.00000  Uiso   1.00
C524   C     0.14420   0.95938   0.50579   0.00000  Uiso   1.00
C525   C     0.19254   0.93080   0.49761   0.00000  Uiso   1.00
C526   C     0.25068   0.94800   0.52569   0.00000  Uiso   1.00
C527   C     0.08853   0.02727   0.44830   0.00000  Uiso   1.00
C528   C     0.09008   0.05577   0.39178   0.00000  Uiso   1.00
C529   C     0.10138   0.13014   0.37145   0.00000  Uiso   1.00
H530   H     0.10159   0.06332   0.57086   0.00000  Uiso   1.00
H531   H     0.97199   0.96730   0.63633   0.00000  Uiso   1.00
H532   H     0.21895   0.05505   0.59592   0.00000  Uiso   1.00
H533   H     0.11650   0.18000   0.49010   0.00000  Uiso   1.00
H534   H     0.82418   0.84134   0.69351   0.00000  Uiso   1.00
H535   H     0.34491   0.02637   0.60828   0.00000  Uiso   1.00
H536   H     0.12889   0.28986   0.38514   0.00000  Uiso   1.00
H537   H     0.06965   0.91312   0.45200   0.00000  Uiso   1.00
H538   H     0.93830   0.80886   0.51096   0.00000  Uiso   1.00
H539   H     0.18526   0.89660   0.47054   0.00000  Uiso   1.00
H540   H     0.08281   0.02155   0.36472   0.00000  Uiso   1.00
H541   H     0.79683   0.71274   0.59176   0.00000  Uiso   1.00
H542   H     0.31757   0.89777   0.50652   0.00000  Uiso   1.00
H543   H     0.10154   0.16126   0.28338   0.00000  Uiso   1.00
O544   O     0.72468   0.71114   0.68357   0.00000  Uiso   1.00
O545   O     0.40787   0.95392   0.57174   0.00000  Uiso   1.00
O546   O     0.12445   0.29960   0.27899   0.00000  Uiso   1.00
N547   N     0.83576   0.82539   0.66147   0.00000  Uiso   1.00
N548   N     0.32261   0.99837   0.58178   0.00000  Uiso   1.00
N549   N     0.12067   0.24472   0.37317   0.00000  Uiso   1.00
N550   N     0.82105   0.75619   0.60671   0.00000  Uiso   1.00
N551   N     0.30789   0.92917   0.52703   0.00000  Uiso   1.00
N552   N     0.10595   0.17552   0.31841   0.00000  Uiso   1.00
