data_job_06242
_audit_creation_date              2018-12-19
_audit_creation_method            'Materials Studio'
_symmetry_space_group_name_H-M    'P1'
_symmetry_Int_Tables_number       1
_symmetry_cell_setting            triclinic
loop_
_symmetry_equiv_pos_as_xyz
  x,y,z
_cell_length_a                    16.5540
_cell_length_b                    16.2750
_cell_length_c                    15.3863
_cell_angle_alpha                 85.5231
_cell_angle_beta                  85.7781
_cell_angle_gamma                 84.5594
loop_
_atom_site_label
_atom_site_type_symbol
_atom_site_fract_x
_atom_site_fract_y
_atom_site_fract_z
_atom_site_U_iso_or_equiv
_atom_site_adp_type
_atom_site_occupancy
C1     C     0.59615   0.17626   0.85922   0.00000  Uiso   1.00
C2     C     0.60019   0.11230   0.79133   0.00000  Uiso   1.00
C3     C     0.53462   0.08987   0.75014   0.00000  Uiso   1.00
C4     C     0.55094   0.03013   0.69002   0.00000  Uiso   1.00
C5     C     0.54517   0.93625   0.58741   0.00000  Uiso   1.00
C6     C     0.63326   0.13156   0.93967   0.00000  Uiso   1.00
C7     C     0.59550   0.12534   0.02319   0.00000  Uiso   1.00
C8     C     0.63967   0.08183   0.08795   0.00000  Uiso   1.00
C9     C     0.68527   0.01791   0.21565   0.00000  Uiso   1.00
C10    C     0.65479   0.23954   0.82370   0.00000  Uiso   1.00
C11    C     0.63513   0.32412   0.80973   0.00000  Uiso   1.00
C12    C     0.69743   0.37153   0.77687   0.00000  Uiso   1.00
C13    C     0.77644   0.47527   0.72450   0.00000  Uiso   1.00
C14    C     0.74176   0.11006   0.82570   0.00000  Uiso   1.00
C15    C     0.67928   0.07634   0.77313   0.00000  Uiso   1.00
C16    C     0.69571   0.01662   0.71305   0.00000  Uiso   1.00
C17    C     0.63017   0.99411   0.67178   0.00000  Uiso   1.00
C18    C     0.71235   0.09560   0.92147   0.00000  Uiso   1.00
C19    C     0.75659   0.05209   0.98611   0.00000  Uiso   1.00
C20    C     0.71890   0.04580   0.06971   0.00000  Uiso   1.00
C21    C     0.73387   0.20359   0.80549   0.00000  Uiso   1.00
C22    C     0.79622   0.25087   0.77265   0.00000  Uiso   1.00
C23    C     0.77666   0.33551   0.75863   0.00000  Uiso   1.00
H24    H     0.53458   0.20425   0.87340   0.00000  Uiso   1.00
H25    H     0.47342   0.11770   0.76425   0.00000  Uiso   1.00
H26    H     0.53430   0.15318   0.03726   0.00000  Uiso   1.00
H27    H     0.57392   0.35192   0.82383   0.00000  Uiso   1.00
H28    H     0.44048   0.00587   0.63523   0.00000  Uiso   1.00
H29    H     0.56885   0.08069   0.21091   0.00000  Uiso   1.00
H30    H     0.65240   0.49979   0.76084   0.00000  Uiso   1.00
H31    H     0.80333   0.08206   0.81153   0.00000  Uiso   1.00
H32    H     0.75692   0.98881   0.69898   0.00000  Uiso   1.00
H33    H     0.81779   0.02428   0.97200   0.00000  Uiso   1.00
H34    H     0.85741   0.22303   0.75857   0.00000  Uiso   1.00
H35    H     0.67058   0.90125   0.58226   0.00000  Uiso   1.00
H36    H     0.79895   0.97607   0.15794   0.00000  Uiso   1.00
H37    H     0.88250   0.39517   0.70787   0.00000  Uiso   1.00
O38    O     0.52015   0.89440   0.53585   0.00000  Uiso   1.00
O39    O     0.68856   0.99258   0.29111   0.00000  Uiso   1.00
O40    O     0.79818   0.54243   0.70063   0.00000  Uiso   1.00
N41    N     0.50101   0.99406   0.63820   0.00000  Uiso   1.00
N42    N     0.62102   0.06400   0.17642   0.00000  Uiso   1.00
N43    N     0.69914   0.45583   0.75567   0.00000  Uiso   1.00
N44    N     0.62482   0.93776   0.60969   0.00000  Uiso   1.00
N45    N     0.74483   0.00770   0.14791   0.00000  Uiso   1.00
N46    N     0.82295   0.39953   0.72716   0.00000  Uiso   1.00
C47    C     0.86215   0.59262   0.17268   0.00000  Uiso   1.00
C48    C     0.79997   0.59654   0.10376   0.00000  Uiso   1.00
C49    C     0.76357   0.52975   0.07816   0.00000  Uiso   1.00
C50    C     0.70826   0.54618   0.01407   0.00000  Uiso   1.00
C51    C     0.61452   0.54004   0.91267   0.00000  Uiso   1.00
C52    C     0.93661   0.63012   0.12750   0.00000  Uiso   1.00
C53    C     0.01509   0.59158   0.12187   0.00000  Uiso   1.00
C54    C     0.07480   0.63629   0.07776   0.00000  Uiso   1.00
C55    C     0.19319   0.68231   0.01328   0.00000  Uiso   1.00
C56    C     0.82692   0.65259   0.23996   0.00000  Uiso   1.00
C57    C     0.81319   0.63293   0.32889   0.00000  Uiso   1.00
C58    C     0.78057   0.69657   0.37948   0.00000  Uiso   1.00
C59    C     0.72866   0.77746   0.48961   0.00000  Uiso   1.00
C60    C     0.82866   0.74058   0.10438   0.00000  Uiso   1.00
C61    C     0.78179   0.67690   0.06666   0.00000  Uiso   1.00
C62    C     0.72652   0.69345   0.00260   0.00000  Uiso   1.00
C63    C     0.69004   0.62669   0.97691   0.00000  Uiso   1.00
C64    C     0.91842   0.71049   0.09040   0.00000  Uiso   1.00
C65    C     0.97803   0.75527   0.04630   0.00000  Uiso   1.00
C66    C     0.05658   0.71680   0.04060   0.00000  Uiso   1.00
C67    C     0.80873   0.73295   0.20286   0.00000  Uiso   1.00
C68    C     0.77613   0.79663   0.25333   0.00000  Uiso   1.00
C69    C     0.76235   0.77708   0.34232   0.00000  Uiso   1.00
H70    H     0.87632   0.53005   0.20156   0.00000  Uiso   1.00
H71    H     0.77767   0.46756   0.10688   0.00000  Uiso   1.00
H72    H     0.02914   0.52939   0.15059   0.00000  Uiso   1.00
H73    H     0.82727   0.57074   0.35758   0.00000  Uiso   1.00
H74    H     0.66030   0.43372   0.98553   0.00000  Uiso   1.00
H75    H     0.19056   0.56409   0.07772   0.00000  Uiso   1.00
H76    H     0.76488   0.65128   0.51420   0.00000  Uiso   1.00
H77    H     0.81450   0.80315   0.07550   0.00000  Uiso   1.00
H78    H     0.71245   0.75564   0.97390   0.00000  Uiso   1.00
H79    H     0.96393   0.81746   0.01761   0.00000  Uiso   1.00
H80    H     0.76207   0.85881   0.22460   0.00000  Uiso   1.00
H81    H     0.60737   0.66753   0.87760   0.00000  Uiso   1.00
H82    H     0.13763   0.79790   0.96979   0.00000  Uiso   1.00
H83    H     0.71195   0.88509   0.40627   0.00000  Uiso   1.00
O84    O     0.56785   0.51445   0.86698   0.00000  Uiso   1.00
O85    O     0.26352   0.68549   0.98795   0.00000  Uiso   1.00
O86    O     0.70504   0.79988   0.56059   0.00000  Uiso   1.00
N87    N     0.66184   0.49527   0.97408   0.00000  Uiso   1.00
N88    N     0.15759   0.61715   0.06026   0.00000  Uiso   1.00
N89    N     0.75964   0.69867   0.46834   0.00000  Uiso   1.00
N90    N     0.63336   0.62108   0.91600   0.00000  Uiso   1.00
N91    N     0.12911   0.74297   0.00218   0.00000  Uiso   1.00
N92    N     0.73116   0.82449   0.41026   0.00000  Uiso   1.00
C93    C     0.17615   0.86186   0.58141   0.00000  Uiso   1.00
C94    C     0.11356   0.79866   0.58323   0.00000  Uiso   1.00
C95    C     0.09160   0.76137   0.51145   0.00000  Uiso   1.00
C96    C     0.03315   0.70521   0.52672   0.00000  Uiso   1.00
C97    C     0.94128   0.60988   0.51675   0.00000  Uiso   1.00
C98    C     0.13197   0.93784   0.62148   0.00000  Uiso   1.00
C99    C     0.12550   0.01756   0.58187   0.00000  Uiso   1.00
C100   C     0.08255   0.07856   0.62936   0.00000  Uiso   1.00
C101   C     0.01932   0.19931   0.67881   0.00000  Uiso   1.00
C102   C     0.23854   0.82618   0.64557   0.00000  Uiso   1.00
C103   C     0.32168   0.81204   0.62622   0.00000  Uiso   1.00
C104   C     0.36846   0.77904   0.69399   0.00000  Uiso   1.00
C105   C     0.47068   0.72642   0.78083   0.00000  Uiso   1.00
C106   C     0.11139   0.82844   0.73617   0.00000  Uiso   1.00
C107   C     0.07839   0.78052   0.66729   0.00000  Uiso   1.00
C108   C     0.01995   0.72440   0.68267   0.00000  Uiso   1.00
C109   C     0.99791   0.68702   0.61093   0.00000  Uiso   1.00
C110   C     0.09680   0.91969   0.70554   0.00000  Uiso   1.00
C111   C     0.05386   0.98059   0.75310   0.00000  Uiso   1.00
C112   C     0.04732   0.06038   0.71357   0.00000  Uiso   1.00
C113   C     0.20337   0.80803   0.72963   0.00000  Uiso   1.00
C114   C     0.25003   0.77506   0.79744   0.00000  Uiso   1.00
C115   C     0.33322   0.76086   0.77820   0.00000  Uiso   1.00
H116   H     0.20353   0.87599   0.51596   0.00000  Uiso   1.00
H117   H     0.11883   0.77544   0.44640   0.00000  Uiso   1.00
H118   H     0.15273   0.03159   0.51682   0.00000  Uiso   1.00
H119   H     0.34887   0.82609   0.56116   0.00000  Uiso   1.00
H120   H     0.00938   0.65597   0.40635   0.00000  Uiso   1.00
H121   H     0.08090   0.19609   0.55484   0.00000  Uiso   1.00
H122   H     0.49450   0.76275   0.64834   0.00000  Uiso   1.00
H123   H     0.08401   0.81431   0.80162   0.00000  Uiso   1.00
H124   H     0.99274   0.71037   0.74773   0.00000  Uiso   1.00
H125   H     0.02665   0.96652   0.81815   0.00000  Uiso   1.00
H126   H     0.22279   0.76102   0.86249   0.00000  Uiso   1.00
H127   H     0.90705   0.60316   0.65092   0.00000  Uiso   1.00
H128   H     0.97856   0.14328   0.79941   0.00000  Uiso   1.00
H129   H     0.39216   0.70994   0.89291   0.00000  Uiso   1.00
O130   O     0.90032   0.56232   0.48803   0.00000  Uiso   1.00
O131   O     0.99416   0.27093   0.68285   0.00000  Uiso   1.00
O132   O     0.53679   0.70240   0.80551   0.00000  Uiso   1.00
N133   N     0.99784   0.65779   0.47131   0.00000  Uiso   1.00
N134   N     0.06469   0.16277   0.61013   0.00000  Uiso   1.00
N135   N     0.45137   0.75766   0.69755   0.00000  Uiso   1.00
N136   N     0.94277   0.62937   0.60291   0.00000  Uiso   1.00
N137   N     0.00962   0.13435   0.74173   0.00000  Uiso   1.00
N138   N     0.39631   0.72924   0.82915   0.00000  Uiso   1.00
C139   C     0.40385   0.82374   0.14078   0.00000  Uiso   1.00
C140   C     0.39981   0.88770   0.20867   0.00000  Uiso   1.00
C141   C     0.46538   0.91013   0.24986   0.00000  Uiso   1.00
C142   C     0.44906   0.96987   0.30998   0.00000  Uiso   1.00
C143   C     0.45483   0.06375   0.41259   0.00000  Uiso   1.00
C144   C     0.36674   0.86844   0.06033   0.00000  Uiso   1.00
C145   C     0.40450   0.87466   0.97681   0.00000  Uiso   1.00
C146   C     0.36033   0.91817   0.91205   0.00000  Uiso   1.00
C147   C     0.31473   0.98209   0.78435   0.00000  Uiso   1.00
C148   C     0.34521   0.76046   0.17630   0.00000  Uiso   1.00
C149   C     0.36487   0.67588   0.19027   0.00000  Uiso   1.00
C150   C     0.30257   0.62847   0.22313   0.00000  Uiso   1.00
C151   C     0.22356   0.52473   0.27550   0.00000  Uiso   1.00
C152   C     0.25824   0.88994   0.17430   0.00000  Uiso   1.00
C153   C     0.32072   0.92366   0.22687   0.00000  Uiso   1.00
C154   C     0.30429   0.98338   0.28695   0.00000  Uiso   1.00
C155   C     0.36983   0.00589   0.32822   0.00000  Uiso   1.00
C156   C     0.28765   0.90440   0.07853   0.00000  Uiso   1.00
C157   C     0.24341   0.94791   0.01389   0.00000  Uiso   1.00
C158   C     0.28110   0.95420   0.93029   0.00000  Uiso   1.00
C159   C     0.26613   0.79641   0.19451   0.00000  Uiso   1.00
C160   C     0.20378   0.74913   0.22735   0.00000  Uiso   1.00
C161   C     0.22334   0.66449   0.24137   0.00000  Uiso   1.00
H162   H     0.46542   0.79575   0.12660   0.00000  Uiso   1.00
H163   H     0.52658   0.88230   0.23575   0.00000  Uiso   1.00
H164   H     0.46570   0.84682   0.96274   0.00000  Uiso   1.00
H165   H     0.42608   0.64808   0.17617   0.00000  Uiso   1.00
H166   H     0.55952   0.99413   0.36477   0.00000  Uiso   1.00
H167   H     0.43115   0.91931   0.78909   0.00000  Uiso   1.00
H168   H     0.34760   0.50021   0.23916   0.00000  Uiso   1.00
H169   H     0.19667   0.91794   0.18847   0.00000  Uiso   1.00
H170   H     0.24308   0.01119   0.30102   0.00000  Uiso   1.00
H171   H     0.18221   0.97572   0.02800   0.00000  Uiso   1.00
H172   H     0.14259   0.77697   0.24143   0.00000  Uiso   1.00
H173   H     0.32942   0.09875   0.41774   0.00000  Uiso   1.00
H174   H     0.20105   0.02393   0.84206   0.00000  Uiso   1.00
H175   H     0.11750   0.60483   0.29213   0.00000  Uiso   1.00
O176   O     0.47986   0.10560   0.46415   0.00000  Uiso   1.00
O177   O     0.31144   0.00742   0.70889   0.00000  Uiso   1.00
O178   O     0.20182   0.45757   0.29937   0.00000  Uiso   1.00
N179   N     0.49899   0.00594   0.36180   0.00000  Uiso   1.00
N180   N     0.37898   0.93600   0.82358   0.00000  Uiso   1.00
N181   N     0.30086   0.54417   0.24433   0.00000  Uiso   1.00
N182   N     0.37518   0.06224   0.39031   0.00000  Uiso   1.00
N183   N     0.25517   0.99230   0.85209   0.00000  Uiso   1.00
N184   N     0.17705   0.60047   0.27284   0.00000  Uiso   1.00
C185   C     0.13785   0.40738   0.82732   0.00000  Uiso   1.00
C186   C     0.20003   0.40346   0.89624   0.00000  Uiso   1.00
C187   C     0.23643   0.47025   0.92184   0.00000  Uiso   1.00
C188   C     0.29174   0.45382   0.98593   0.00000  Uiso   1.00
C189   C     0.38548   0.45996   0.08733   0.00000  Uiso   1.00
C190   C     0.06339   0.36988   0.87250   0.00000  Uiso   1.00
C191   C     0.98491   0.40842   0.87813   0.00000  Uiso   1.00
C192   C     0.92520   0.36371   0.92223   0.00000  Uiso   1.00
C193   C     0.80681   0.31769   0.98672   0.00000  Uiso   1.00
C194   C     0.17308   0.34741   0.76004   0.00000  Uiso   1.00
C195   C     0.18681   0.36707   0.67111   0.00000  Uiso   1.00
C196   C     0.21943   0.30343   0.62052   0.00000  Uiso   1.00
C197   C     0.27134   0.22254   0.51039   0.00000  Uiso   1.00
C198   C     0.17134   0.25942   0.89562   0.00000  Uiso   1.00
C199   C     0.21821   0.32310   0.93333   0.00000  Uiso   1.00
C200   C     0.27348   0.30655   0.99740   0.00000  Uiso   1.00
C201   C     0.30996   0.37331   0.02309   0.00000  Uiso   1.00
C202   C     0.08158   0.28951   0.90960   0.00000  Uiso   1.00
C203   C     0.02197   0.24473   0.95370   0.00000  Uiso   1.00
C204   C     0.94342   0.28320   0.95940   0.00000  Uiso   1.00
C205   C     0.19127   0.26705   0.79713   0.00000  Uiso   1.00
C206   C     0.22387   0.20337   0.74667   0.00000  Uiso   1.00
C207   C     0.23765   0.22292   0.65768   0.00000  Uiso   1.00
H208   H     0.12368   0.46995   0.79844   0.00000  Uiso   1.00
H209   H     0.22233   0.53244   0.89312   0.00000  Uiso   1.00
H210   H     0.97086   0.47061   0.84941   0.00000  Uiso   1.00
H211   H     0.17273   0.42926   0.64242   0.00000  Uiso   1.00
H212   H     0.33970   0.56628   0.01447   0.00000  Uiso   1.00
H213   H     0.80944   0.43591   0.92228   0.00000  Uiso   1.00
H214   H     0.23512   0.34872   0.48580   0.00000  Uiso   1.00
H215   H     0.18550   0.19685   0.92450   0.00000  Uiso   1.00
H216   H     0.28755   0.24436   0.02610   0.00000  Uiso   1.00
H217   H     0.03607   0.18254   0.98239   0.00000  Uiso   1.00
H218   H     0.23793   0.14119   0.77540   0.00000  Uiso   1.00
H219   H     0.39263   0.33247   0.12240   0.00000  Uiso   1.00
H220   H     0.86237   0.20210   0.03021   0.00000  Uiso   1.00
H221   H     0.28805   0.11491   0.59373   0.00000  Uiso   1.00
O222   O     0.43216   0.48555   0.13302   0.00000  Uiso   1.00
O223   O     0.73648   0.31451   0.01205   0.00000  Uiso   1.00
O224   O     0.29496   0.20012   0.43941   0.00000  Uiso   1.00
N225   N     0.33817   0.50473   0.02592   0.00000  Uiso   1.00
N226   N     0.84241   0.38285   0.93974   0.00000  Uiso   1.00
N227   N     0.24036   0.30133   0.53166   0.00000  Uiso   1.00
N228   N     0.36665   0.37892   0.08400   0.00000  Uiso   1.00
N229   N     0.87089   0.25703   0.99782   0.00000  Uiso   1.00
N230   N     0.26884   0.17551   0.58974   0.00000  Uiso   1.00
C231   C     0.82385   0.13814   0.41859   0.00000  Uiso   1.00
C232   C     0.88644   0.20134   0.41677   0.00000  Uiso   1.00
C233   C     0.90840   0.23863   0.48855   0.00000  Uiso   1.00
C234   C     0.96685   0.29479   0.47328   0.00000  Uiso   1.00
C235   C     0.05872   0.39012   0.48325   0.00000  Uiso   1.00
C236   C     0.86803   0.06216   0.37852   0.00000  Uiso   1.00
C237   C     0.87450   0.98244   0.41813   0.00000  Uiso   1.00
C238   C     0.91745   0.92144   0.37064   0.00000  Uiso   1.00
C239   C     0.98068   0.80069   0.32119   0.00000  Uiso   1.00
C240   C     0.76146   0.17382   0.35443   0.00000  Uiso   1.00
C241   C     0.67832   0.18796   0.37378   0.00000  Uiso   1.00
C242   C     0.63154   0.22096   0.30601   0.00000  Uiso   1.00
C243   C     0.52932   0.27358   0.21917   0.00000  Uiso   1.00
C244   C     0.88861   0.17156   0.26383   0.00000  Uiso   1.00
C245   C     0.92161   0.21948   0.33271   0.00000  Uiso   1.00
C246   C     0.98005   0.27560   0.31733   0.00000  Uiso   1.00
C247   C     0.00209   0.31298   0.38907   0.00000  Uiso   1.00
C248   C     0.90320   0.08031   0.29446   0.00000  Uiso   1.00
C249   C     0.94615   0.01941   0.24690   0.00000  Uiso   1.00
C250   C     0.95268   0.93962   0.28643   0.00000  Uiso   1.00
C251   C     0.79664   0.19197   0.27037   0.00000  Uiso   1.00
C252   C     0.74997   0.22494   0.20256   0.00000  Uiso   1.00
C253   C     0.66678   0.23914   0.22180   0.00000  Uiso   1.00
H254   H     0.79647   0.12401   0.48404   0.00000  Uiso   1.00
H255   H     0.88117   0.22456   0.55360   0.00000  Uiso   1.00
H256   H     0.84727   0.96841   0.48318   0.00000  Uiso   1.00
H257   H     0.65113   0.17391   0.43884   0.00000  Uiso   1.00
H258   H     0.99062   0.34403   0.59365   0.00000  Uiso   1.00
H259   H     0.91910   0.80391   0.44516   0.00000  Uiso   1.00
H260   H     0.50550   0.23725   0.35166   0.00000  Uiso   1.00
H261   H     0.91599   0.18569   0.19838   0.00000  Uiso   1.00
H262   H     0.00726   0.28963   0.25227   0.00000  Uiso   1.00
H263   H     0.97335   0.03348   0.18185   0.00000  Uiso   1.00
H264   H     0.77721   0.23898   0.13751   0.00000  Uiso   1.00
H265   H     0.09295   0.39684   0.34908   0.00000  Uiso   1.00
H266   H     0.02144   0.85672   0.20059   0.00000  Uiso   1.00
H267   H     0.60784   0.29006   0.10709   0.00000  Uiso   1.00
O268   O     0.09968   0.43768   0.51197   0.00000  Uiso   1.00
O269   O     0.00585   0.72907   0.31715   0.00000  Uiso   1.00
O270   O     0.46322   0.29760   0.19449   0.00000  Uiso   1.00
N271   N     0.00216   0.34221   0.52869   0.00000  Uiso   1.00
N272   N     0.93531   0.83723   0.38987   0.00000  Uiso   1.00
N273   N     0.54863   0.24234   0.30245   0.00000  Uiso   1.00
N274   N     0.05723   0.37063   0.39709   0.00000  Uiso   1.00
N275   N     0.99038   0.86565   0.25827   0.00000  Uiso   1.00
N276   N     0.60370   0.27076   0.17085   0.00000  Uiso   1.00
