data_job_05066
_audit_creation_date              2018-12-19
_audit_creation_method            'Materials Studio'
_symmetry_space_group_name_H-M    'P1'
_symmetry_Int_Tables_number       1
_symmetry_cell_setting            triclinic
loop_
_symmetry_equiv_pos_as_xyz
  x,y,z
_cell_length_a                    12.4873
_cell_length_b                    31.5373
_cell_length_c                    9.4735
_cell_angle_alpha                 90.0000
_cell_angle_beta                  95.9113
_cell_angle_gamma                 90.0000
loop_
_atom_site_label
_atom_site_type_symbol
_atom_site_fract_x
_atom_site_fract_y
_atom_site_fract_z
_atom_site_U_iso_or_equiv
_atom_site_adp_type
_atom_site_occupancy
C1     C     0.86125   0.15981   0.24710   0.00000  Uiso   1.00
C2     C     0.85147   0.11287   0.28221   0.00000  Uiso   1.00
C3     C     0.87760   0.09457   0.41449   0.00000  Uiso   1.00
C4     C     0.86296   0.05108   0.42477   0.00000  Uiso   1.00
C5     C     0.85382   0.98188   0.49719   0.00000  Uiso   1.00
C6     C     0.93301   0.16212   0.12647   0.00000  Uiso   1.00
C7     C     0.02769   0.18523   0.12781   0.00000  Uiso   1.00
C8     C     0.08167   0.18321   0.00698   0.00000  Uiso   1.00
C9     C     0.19908   0.19049   0.83758   0.00000  Uiso   1.00
C10    C     0.74960   0.17382   0.18394   0.00000  Uiso   1.00
C11    C     0.69006   0.20677   0.23357   0.00000  Uiso   1.00
C12    C     0.58963   0.21460   0.16110   0.00000  Uiso   1.00
C13    C     0.42226   0.24005   0.08092   0.00000  Uiso   1.00
C14    C     0.78877   0.11512   0.03012   0.00000  Uiso   1.00
C15    C     0.81211   0.08860   0.16435   0.00000  Uiso   1.00
C16    C     0.79741   0.04512   0.17443   0.00000  Uiso   1.00
C17    C     0.82351   0.02676   0.30671   0.00000  Uiso   1.00
C18    C     0.89365   0.13785   0.00862   0.00000  Uiso   1.00
C19    C     0.94750   0.13579   0.88775   0.00000  Uiso   1.00
C20    C     0.04223   0.15889   0.88891   0.00000  Uiso   1.00
C21    C     0.71022   0.14954   0.06608   0.00000  Uiso   1.00
C22    C     0.60987   0.15733   0.99351   0.00000  Uiso   1.00
C23    C     0.55019   0.19029   0.04303   0.00000  Uiso   1.00
H24    H     0.89190   0.17871   0.33885   0.00000  Uiso   1.00
H25    H     0.90808   0.11336   0.50567   0.00000  Uiso   1.00
H26    H     0.05813   0.20401   0.21903   0.00000  Uiso   1.00
H27    H     0.72055   0.22555   0.32477   0.00000  Uiso   1.00
H28    H     0.90869   0.03021   0.63863   0.00000  Uiso   1.00
H29    H     0.22506   0.22137   0.03421   0.00000  Uiso   1.00
H30    H     0.51322   0.26678   0.25720   0.00000  Uiso   1.00
H31    H     0.75812   0.09622   0.93836   0.00000  Uiso   1.00
H32    H     0.76694   0.02635   0.08321   0.00000  Uiso   1.00
H33    H     0.91700   0.11700   0.79656   0.00000  Uiso   1.00
H34    H     0.57943   0.13854   0.90231   0.00000  Uiso   1.00
H35    H     0.79414   0.95958   0.29575   0.00000  Uiso   1.00
H36    H     0.11052   0.15075   0.69132   0.00000  Uiso   1.00
H37    H     0.39868   0.19615   0.91431   0.00000  Uiso   1.00
O38    O     0.85967   0.95042   0.56969   0.00000  Uiso   1.00
O39    O     0.27473   0.20122   0.77670   0.00000  Uiso   1.00
O40    O     0.34081   0.26079   0.06926   0.00000  Uiso   1.00
N41    N     0.88049   0.02318   0.53806   0.00000  Uiso   1.00
N42    N     0.17630   0.20189   0.97297   0.00000  Uiso   1.00
N43    N     0.51080   0.24436   0.18142   0.00000  Uiso   1.00
N44    N     0.81886   0.98517   0.35356   0.00000  Uiso   1.00
N45    N     0.11466   0.16389   0.78847   0.00000  Uiso   1.00
N46    N     0.44916   0.20636   0.99692   0.00000  Uiso   1.00
C47    C     0.93346   0.82464   0.13128   0.00000  Uiso   1.00
C48    C     0.94898   0.87128   0.09605   0.00000  Uiso   1.00
C49    C     0.92670   0.88970   0.96325   0.00000  Uiso   1.00
C50    C     0.94637   0.93286   0.95294   0.00000  Uiso   1.00
C51    C     0.96427   0.00166   0.88027   0.00000  Uiso   1.00
C52    C     0.85973   0.82390   0.24996   0.00000  Uiso   1.00
C53    C     0.76241   0.80248   0.24655   0.00000  Uiso   1.00
C54    C     0.70697   0.80575   0.36582   0.00000  Uiso   1.00
C55    C     0.58634   0.80096   0.53212   0.00000  Uiso   1.00
C56    C     0.04275   0.80883   0.19713   0.00000  Uiso   1.00
C57    C     0.09931   0.77473   0.14933   0.00000  Uiso   1.00
C58    C     0.19795   0.76531   0.22414   0.00000  Uiso   1.00
C59    C     0.36149   0.73712   0.30841   0.00000  Uiso   1.00
C60    C     0.00804   0.86853   0.34915   0.00000  Uiso   1.00
C61    C     0.98949   0.89512   0.21440   0.00000  Uiso   1.00
C62    C     0.00921   0.93826   0.20430   0.00000  Uiso   1.00
C63    C     0.98696   0.95675   0.07149   0.00000  Uiso   1.00
C64    C     0.90024   0.84774   0.36830   0.00000  Uiso   1.00
C65    C     0.84493   0.85104   0.48760   0.00000  Uiso   1.00
C66    C     0.74755   0.82963   0.48437   0.00000  Uiso   1.00
C67    C     0.08327   0.83267   0.31547   0.00000  Uiso   1.00
C68    C     0.18183   0.82330   0.39037   0.00000  Uiso   1.00
C69    C     0.23853   0.78919   0.34269   0.00000  Uiso   1.00
H70    H     0.90191   0.80608   0.03915   0.00000  Uiso   1.00
H71    H     0.89533   0.87124   0.87169   0.00000  Uiso   1.00
H72    H     0.73109   0.78403   0.15496   0.00000  Uiso   1.00
H73    H     0.06794   0.75629   0.05774   0.00000  Uiso   1.00
H74    H     0.90587   0.95400   0.73823   0.00000  Uiso   1.00
H75    H     0.55957   0.77010   0.33554   0.00000  Uiso   1.00
H76    H     0.26987   0.71161   0.13054   0.00000  Uiso   1.00
H77    H     0.03958   0.88709   0.44129   0.00000  Uiso   1.00
H78    H     0.04056   0.95670   0.29590   0.00000  Uiso   1.00
H79    H     0.87631   0.86949   0.57917   0.00000  Uiso   1.00
H80    H     0.21316   0.84175   0.48195   0.00000  Uiso   1.00
H81    H     0.02374   0.02336   0.08253   0.00000  Uiso   1.00
H82    H     0.67743   0.83946   0.67985   0.00000  Uiso   1.00
H83    H     0.38774   0.78097   0.47485   0.00000  Uiso   1.00
O84    O     0.96293   0.03302   0.80749   0.00000  Uiso   1.00
O85    O     0.50860   0.79173   0.59114   0.00000  Uiso   1.00
O86    O     0.44051   0.71499   0.32219   0.00000  Uiso   1.00
N87    N     0.93350   0.96077   0.83921   0.00000  Uiso   1.00
N88    N     0.60971   0.78884   0.39765   0.00000  Uiso   1.00
N89    N     0.27378   0.73415   0.20602   0.00000  Uiso   1.00
N90    N     0.99692   0.99810   0.02448   0.00000  Uiso   1.00
N91    N     0.67314   0.82616   0.58292   0.00000  Uiso   1.00
N92    N     0.33720   0.77147   0.39128   0.00000  Uiso   1.00
C93    C     0.13875   0.65981   0.75290   0.00000  Uiso   1.00
C94    C     0.14853   0.61287   0.71779   0.00000  Uiso   1.00
C95    C     0.12240   0.59457   0.58551   0.00000  Uiso   1.00
C96    C     0.13704   0.55108   0.57523   0.00000  Uiso   1.00
C97    C     0.14618   0.48188   0.50281   0.00000  Uiso   1.00
C98    C     0.06699   0.66212   0.87353   0.00000  Uiso   1.00
C99    C     0.97231   0.68523   0.87219   0.00000  Uiso   1.00
C100   C     0.91833   0.68321   0.99302   0.00000  Uiso   1.00
C101   C     0.80092   0.69049   0.16242   0.00000  Uiso   1.00
C102   C     0.25040   0.67382   0.81606   0.00000  Uiso   1.00
C103   C     0.30994   0.70677   0.76643   0.00000  Uiso   1.00
C104   C     0.41037   0.71460   0.83890   0.00000  Uiso   1.00
C105   C     0.57774   0.74005   0.91908   0.00000  Uiso   1.00
C106   C     0.21123   0.61512   0.96988   0.00000  Uiso   1.00
C107   C     0.18789   0.58860   0.83565   0.00000  Uiso   1.00
C108   C     0.20259   0.54512   0.82557   0.00000  Uiso   1.00
C109   C     0.17649   0.52676   0.69329   0.00000  Uiso   1.00
C110   C     0.10635   0.63785   0.99138   0.00000  Uiso   1.00
C111   C     0.05250   0.63579   0.11225   0.00000  Uiso   1.00
C112   C     0.95777   0.65889   0.11109   0.00000  Uiso   1.00
C113   C     0.28978   0.64954   0.93392   0.00000  Uiso   1.00
C114   C     0.39013   0.65733   0.00649   0.00000  Uiso   1.00
C115   C     0.44981   0.69029   0.95697   0.00000  Uiso   1.00
H116   H     0.10810   0.67871   0.66115   0.00000  Uiso   1.00
H117   H     0.09192   0.61336   0.49433   0.00000  Uiso   1.00
H118   H     0.94187   0.70401   0.78097   0.00000  Uiso   1.00
H119   H     0.27945   0.72555   0.67523   0.00000  Uiso   1.00
H120   H     0.09131   0.53021   0.36137   0.00000  Uiso   1.00
H121   H     0.77494   0.72137   0.96579   0.00000  Uiso   1.00
H122   H     0.48678   0.76678   0.74280   0.00000  Uiso   1.00
H123   H     0.24188   0.59622   0.06164   0.00000  Uiso   1.00
H124   H     0.23306   0.52635   0.91679   0.00000  Uiso   1.00
H125   H     0.08300   0.61700   0.20344   0.00000  Uiso   1.00
H126   H     0.42057   0.63854   0.09769   0.00000  Uiso   1.00
H127   H     0.20586   0.45958   0.70425   0.00000  Uiso   1.00
H128   H     0.88948   0.65075   0.30868   0.00000  Uiso   1.00
H129   H     0.60132   0.69615   0.08569   0.00000  Uiso   1.00
O130   O     0.14033   0.45042   0.43031   0.00000  Uiso   1.00
O131   O     0.72527   0.70122   0.22330   0.00000  Uiso   1.00
O132   O     0.65919   0.76079   0.93074   0.00000  Uiso   1.00
N133   N     0.11951   0.52318   0.46194   0.00000  Uiso   1.00
N134   N     0.82370   0.70189   0.02703   0.00000  Uiso   1.00
N135   N     0.48920   0.74436   0.81858   0.00000  Uiso   1.00
N136   N     0.18114   0.48517   0.64644   0.00000  Uiso   1.00
N137   N     0.88534   0.66389   0.21153   0.00000  Uiso   1.00
N138   N     0.55084   0.70636   0.00308   0.00000  Uiso   1.00
C139   C     0.06654   0.32464   0.86872   0.00000  Uiso   1.00
C140   C     0.05102   0.37128   0.90395   0.00000  Uiso   1.00
C141   C     0.07330   0.38970   0.03675   0.00000  Uiso   1.00
C142   C     0.05363   0.43286   0.04706   0.00000  Uiso   1.00
C143   C     0.03573   0.50166   0.11973   0.00000  Uiso   1.00
C144   C     0.14027   0.32390   0.75004   0.00000  Uiso   1.00
C145   C     0.23759   0.30248   0.75345   0.00000  Uiso   1.00
C146   C     0.29303   0.30575   0.63418   0.00000  Uiso   1.00
C147   C     0.41366   0.30096   0.46788   0.00000  Uiso   1.00
C148   C     0.95725   0.30883   0.80287   0.00000  Uiso   1.00
C149   C     0.90069   0.27473   0.85067   0.00000  Uiso   1.00
C150   C     0.80205   0.26531   0.77586   0.00000  Uiso   1.00
C151   C     0.63851   0.23712   0.69159   0.00000  Uiso   1.00
C152   C     0.99196   0.36853   0.65085   0.00000  Uiso   1.00
C153   C     0.01051   0.39512   0.78560   0.00000  Uiso   1.00
C154   C     0.99079   0.43826   0.79570   0.00000  Uiso   1.00
C155   C     0.01304   0.45675   0.92851   0.00000  Uiso   1.00
C156   C     0.09976   0.34774   0.63170   0.00000  Uiso   1.00
C157   C     0.15507   0.35104   0.51240   0.00000  Uiso   1.00
C158   C     0.25245   0.32963   0.51563   0.00000  Uiso   1.00
C159   C     0.91673   0.33267   0.68453   0.00000  Uiso   1.00
C160   C     0.81817   0.32330   0.60963   0.00000  Uiso   1.00
C161   C     0.76147   0.28919   0.65731   0.00000  Uiso   1.00
H162   H     0.09809   0.30608   0.96085   0.00000  Uiso   1.00
H163   H     0.10467   0.37124   0.12831   0.00000  Uiso   1.00
H164   H     0.26891   0.28403   0.84504   0.00000  Uiso   1.00
H165   H     0.93206   0.25629   0.94226   0.00000  Uiso   1.00
H166   H     0.09413   0.45400   0.26177   0.00000  Uiso   1.00
H167   H     0.44043   0.27010   0.66446   0.00000  Uiso   1.00
H168   H     0.73013   0.21161   0.86946   0.00000  Uiso   1.00
H169   H     0.96042   0.38709   0.55871   0.00000  Uiso   1.00
H170   H     0.95944   0.45670   0.70410   0.00000  Uiso   1.00
H171   H     0.12369   0.36949   0.42083   0.00000  Uiso   1.00
H172   H     0.78684   0.34175   0.51805   0.00000  Uiso   1.00
H173   H     0.97626   0.52336   0.91747   0.00000  Uiso   1.00
H174   H     0.32257   0.33946   0.32015   0.00000  Uiso   1.00
H175   H     0.61226   0.28097   0.52515   0.00000  Uiso   1.00
O176   O     0.03707   0.53302   0.19251   0.00000  Uiso   1.00
O177   O     0.49140   0.29173   0.40886   0.00000  Uiso   1.00
O178   O     0.55949   0.21499   0.67781   0.00000  Uiso   1.00
N179   N     0.06650   0.46077   0.16079   0.00000  Uiso   1.00
N180   N     0.39029   0.28884   0.60235   0.00000  Uiso   1.00
N181   N     0.72622   0.23415   0.79398   0.00000  Uiso   1.00
N182   N     0.00308   0.49810   0.97552   0.00000  Uiso   1.00
N183   N     0.32686   0.32616   0.41708   0.00000  Uiso   1.00
N184   N     0.66280   0.27147   0.60872   0.00000  Uiso   1.00
