data_job_00265
_audit_creation_date              2018-12-19
_audit_creation_method            'Materials Studio'
_symmetry_space_group_name_H-M    'P1'
_symmetry_Int_Tables_number       1
_symmetry_cell_setting            triclinic
loop_
_symmetry_equiv_pos_as_xyz
  x,y,z
_cell_length_a                    20.2167
_cell_length_b                    20.2167
_cell_length_c                    12.3141
_cell_angle_alpha                 90.0000
_cell_angle_beta                  90.0000
_cell_angle_gamma                 90.0000
loop_
_atom_site_label
_atom_site_type_symbol
_atom_site_fract_x
_atom_site_fract_y
_atom_site_fract_z
_atom_site_U_iso_or_equiv
_atom_site_adp_type
_atom_site_occupancy
C1     C     0.11100   0.96377   0.74490   0.00000  Uiso   1.00
C2     C     0.10109   0.98269   0.62613   0.00000  Uiso   1.00
C3     C     0.08363   0.04491   0.58815   0.00000  Uiso   1.00
C4     C     0.07698   0.05215   0.47656   0.00000  Uiso   1.00
C5     C     0.05996   0.08960   0.30294   0.00000  Uiso   1.00
C6     C     0.06428   0.90599   0.76627   0.00000  Uiso   1.00
C7     C     0.01589   0.90373   0.84612   0.00000  Uiso   1.00
C8     C     0.97827   0.84641   0.85251   0.00000  Uiso   1.00
C9     C     0.90416   0.76477   0.89651   0.00000  Uiso   1.00
C10    C     0.18081   0.93560   0.75278   0.00000  Uiso   1.00
C11    C     0.23038   0.95823   0.82132   0.00000  Uiso   1.00
C12    C     0.29086   0.92583   0.81637   0.00000  Uiso   1.00
C13    C     0.39766   0.89016   0.83942   0.00000  Uiso   1.00
C14    C     0.13024   0.86597   0.61427   0.00000  Uiso   1.00
C15    C     0.11153   0.92957   0.55518   0.00000  Uiso   1.00
C16    C     0.10491   0.93672   0.44362   0.00000  Uiso   1.00
C17    C     0.08745   0.99894   0.40548   0.00000  Uiso   1.00
C18    C     0.07473   0.85288   0.69532   0.00000  Uiso   1.00
C19    C     0.03718   0.79554   0.70159   0.00000  Uiso   1.00
C20    C     0.98874   0.79319   0.78143   0.00000  Uiso   1.00
C21    C     0.19126   0.88249   0.68183   0.00000  Uiso   1.00
C22    C     0.25167   0.85004   0.67678   0.00000  Uiso   1.00
C23    C     0.30133   0.87261   0.74529   0.00000  Uiso   1.00
H24    H     0.10286   0.00512   0.80014   0.00000  Uiso   1.00
H25    H     0.07554   0.08601   0.64309   0.00000  Uiso   1.00
H26    H     0.00782   0.94485   0.90102   0.00000  Uiso   1.00
H27    H     0.22228   0.99934   0.87621   0.00000  Uiso   1.00
H28    H     0.04983   0.15225   0.43767   0.00000  Uiso   1.00
H29    H     0.90706   0.85460   0.98157   0.00000  Uiso   1.00
H30    H     0.35928   0.96950   0.92926   0.00000  Uiso   1.00
H31    H     0.13838   0.82462   0.55903   0.00000  Uiso   1.00
H32    H     0.11300   0.89560   0.38873   0.00000  Uiso   1.00
H33    H     0.04528   0.75444   0.64668   0.00000  Uiso   1.00
H34    H     0.25974   0.80893   0.62186   0.00000  Uiso   1.00
H35    H     0.08024   0.99771   0.23123   0.00000  Uiso   1.00
H36    H     0.93747   0.70006   0.77514   0.00000  Uiso   1.00
H37    H     0.38969   0.81496   0.72282   0.00000  Uiso   1.00
O38    O     0.04768   0.12493   0.22678   0.00000  Uiso   1.00
O39    O     0.86038   0.73442   0.94037   0.00000  Uiso   1.00
O40    O     0.45369   0.88517   0.87173   0.00000  Uiso   1.00
N41    N     0.06048   0.10614   0.41246   0.00000  Uiso   1.00
N42    N     0.92699   0.82786   0.92096   0.00000  Uiso   1.00
N43    N     0.34978   0.93527   0.87207   0.00000  Uiso   1.00
N44    N     0.07684   0.02299   0.30137   0.00000  Uiso   1.00
N45    N     0.94335   0.74470   0.80987   0.00000  Uiso   1.00
N46    N     0.36614   0.85212   0.76099   0.00000  Uiso   1.00
C47    C     0.61100   0.46377   0.24490   0.00000  Uiso   1.00
C48    C     0.60109   0.48269   0.12613   0.00000  Uiso   1.00
C49    C     0.58363   0.54491   0.08815   0.00000  Uiso   1.00
C50    C     0.57698   0.55215   0.97656   0.00000  Uiso   1.00
C51    C     0.55996   0.58960   0.80294   0.00000  Uiso   1.00
C52    C     0.56428   0.40599   0.26627   0.00000  Uiso   1.00
C53    C     0.51589   0.40373   0.34612   0.00000  Uiso   1.00
C54    C     0.47827   0.34641   0.35251   0.00000  Uiso   1.00
C55    C     0.40416   0.26477   0.39651   0.00000  Uiso   1.00
C56    C     0.68081   0.43560   0.25278   0.00000  Uiso   1.00
C57    C     0.73038   0.45823   0.32132   0.00000  Uiso   1.00
C58    C     0.79086   0.42583   0.31637   0.00000  Uiso   1.00
C59    C     0.89766   0.39016   0.33942   0.00000  Uiso   1.00
C60    C     0.63024   0.36597   0.11427   0.00000  Uiso   1.00
C61    C     0.61153   0.42957   0.05518   0.00000  Uiso   1.00
C62    C     0.60491   0.43672   0.94362   0.00000  Uiso   1.00
C63    C     0.58745   0.49894   0.90548   0.00000  Uiso   1.00
C64    C     0.57473   0.35288   0.19532   0.00000  Uiso   1.00
C65    C     0.53718   0.29554   0.20159   0.00000  Uiso   1.00
C66    C     0.48874   0.29319   0.28143   0.00000  Uiso   1.00
C67    C     0.69126   0.38249   0.18183   0.00000  Uiso   1.00
C68    C     0.75167   0.35004   0.17678   0.00000  Uiso   1.00
C69    C     0.80133   0.37261   0.24529   0.00000  Uiso   1.00
H70    H     0.60286   0.50512   0.30014   0.00000  Uiso   1.00
H71    H     0.57554   0.58601   0.14309   0.00000  Uiso   1.00
H72    H     0.50782   0.44485   0.40102   0.00000  Uiso   1.00
H73    H     0.72228   0.49934   0.37621   0.00000  Uiso   1.00
H74    H     0.54983   0.65225   0.93767   0.00000  Uiso   1.00
H75    H     0.40706   0.35460   0.48157   0.00000  Uiso   1.00
H76    H     0.85928   0.46950   0.42926   0.00000  Uiso   1.00
H77    H     0.63838   0.32462   0.05903   0.00000  Uiso   1.00
H78    H     0.61300   0.39560   0.88873   0.00000  Uiso   1.00
H79    H     0.54528   0.25444   0.14668   0.00000  Uiso   1.00
H80    H     0.75974   0.30893   0.12186   0.00000  Uiso   1.00
H81    H     0.58024   0.49771   0.73123   0.00000  Uiso   1.00
H82    H     0.43747   0.20006   0.27514   0.00000  Uiso   1.00
H83    H     0.88969   0.31496   0.22282   0.00000  Uiso   1.00
O84    O     0.54768   0.62493   0.72678   0.00000  Uiso   1.00
O85    O     0.36038   0.23442   0.44037   0.00000  Uiso   1.00
O86    O     0.95369   0.38517   0.37173   0.00000  Uiso   1.00
N87    N     0.56048   0.60614   0.91246   0.00000  Uiso   1.00
N88    N     0.42699   0.32786   0.42096   0.00000  Uiso   1.00
N89    N     0.84978   0.43527   0.37207   0.00000  Uiso   1.00
N90    N     0.57684   0.52299   0.80137   0.00000  Uiso   1.00
N91    N     0.44335   0.24470   0.30987   0.00000  Uiso   1.00
N92    N     0.86614   0.35212   0.26099   0.00000  Uiso   1.00
C93    C     0.38900   0.53623   0.24490   0.00000  Uiso   1.00
C94    C     0.39891   0.51731   0.12613   0.00000  Uiso   1.00
C95    C     0.41637   0.45509   0.08815   0.00000  Uiso   1.00
C96    C     0.42302   0.44785   0.97656   0.00000  Uiso   1.00
C97    C     0.44004   0.41040   0.80294   0.00000  Uiso   1.00
C98    C     0.43572   0.59401   0.26627   0.00000  Uiso   1.00
C99    C     0.48411   0.59627   0.34612   0.00000  Uiso   1.00
C100   C     0.52173   0.65359   0.35251   0.00000  Uiso   1.00
C101   C     0.59584   0.73523   0.39651   0.00000  Uiso   1.00
C102   C     0.31919   0.56440   0.25278   0.00000  Uiso   1.00
C103   C     0.26962   0.54177   0.32132   0.00000  Uiso   1.00
C104   C     0.20914   0.57417   0.31637   0.00000  Uiso   1.00
C105   C     0.10234   0.60984   0.33942   0.00000  Uiso   1.00
C106   C     0.36976   0.63403   0.11427   0.00000  Uiso   1.00
C107   C     0.38847   0.57043   0.05518   0.00000  Uiso   1.00
C108   C     0.39509   0.56328   0.94362   0.00000  Uiso   1.00
C109   C     0.41255   0.50106   0.90548   0.00000  Uiso   1.00
C110   C     0.42527   0.64712   0.19532   0.00000  Uiso   1.00
C111   C     0.46282   0.70446   0.20159   0.00000  Uiso   1.00
C112   C     0.51126   0.70681   0.28143   0.00000  Uiso   1.00
C113   C     0.30874   0.61751   0.18183   0.00000  Uiso   1.00
C114   C     0.24833   0.64996   0.17678   0.00000  Uiso   1.00
C115   C     0.19867   0.62739   0.24529   0.00000  Uiso   1.00
H116   H     0.39714   0.49488   0.30014   0.00000  Uiso   1.00
H117   H     0.42446   0.41399   0.14309   0.00000  Uiso   1.00
H118   H     0.49218   0.55515   0.40102   0.00000  Uiso   1.00
H119   H     0.27772   0.50066   0.37621   0.00000  Uiso   1.00
H120   H     0.45017   0.34775   0.93767   0.00000  Uiso   1.00
H121   H     0.59294   0.64540   0.48157   0.00000  Uiso   1.00
H122   H     0.14072   0.53050   0.42926   0.00000  Uiso   1.00
H123   H     0.36162   0.67538   0.05903   0.00000  Uiso   1.00
H124   H     0.38700   0.60440   0.88873   0.00000  Uiso   1.00
H125   H     0.45472   0.74556   0.14668   0.00000  Uiso   1.00
H126   H     0.24026   0.69107   0.12186   0.00000  Uiso   1.00
H127   H     0.41976   0.50229   0.73123   0.00000  Uiso   1.00
H128   H     0.56253   0.79994   0.27514   0.00000  Uiso   1.00
H129   H     0.11031   0.68504   0.22282   0.00000  Uiso   1.00
O130   O     0.45232   0.37507   0.72678   0.00000  Uiso   1.00
O131   O     0.63962   0.76558   0.44037   0.00000  Uiso   1.00
O132   O     0.04631   0.61483   0.37173   0.00000  Uiso   1.00
N133   N     0.43952   0.39386   0.91246   0.00000  Uiso   1.00
N134   N     0.57301   0.67214   0.42096   0.00000  Uiso   1.00
N135   N     0.15022   0.56473   0.37207   0.00000  Uiso   1.00
N136   N     0.42316   0.47701   0.80137   0.00000  Uiso   1.00
N137   N     0.55665   0.75530   0.30987   0.00000  Uiso   1.00
N138   N     0.13386   0.64788   0.26099   0.00000  Uiso   1.00
C139   C     0.88900   0.03623   0.74490   0.00000  Uiso   1.00
C140   C     0.89891   0.01731   0.62613   0.00000  Uiso   1.00
C141   C     0.91637   0.95509   0.58815   0.00000  Uiso   1.00
C142   C     0.92302   0.94785   0.47656   0.00000  Uiso   1.00
C143   C     0.94004   0.91040   0.30294   0.00000  Uiso   1.00
C144   C     0.93572   0.09401   0.76627   0.00000  Uiso   1.00
C145   C     0.98411   0.09627   0.84612   0.00000  Uiso   1.00
C146   C     0.02173   0.15359   0.85251   0.00000  Uiso   1.00
C147   C     0.09584   0.23523   0.89651   0.00000  Uiso   1.00
C148   C     0.81919   0.06440   0.75278   0.00000  Uiso   1.00
C149   C     0.76962   0.04177   0.82132   0.00000  Uiso   1.00
C150   C     0.70914   0.07417   0.81637   0.00000  Uiso   1.00
C151   C     0.60234   0.10984   0.83942   0.00000  Uiso   1.00
C152   C     0.86976   0.13403   0.61427   0.00000  Uiso   1.00
C153   C     0.88847   0.07043   0.55518   0.00000  Uiso   1.00
C154   C     0.89509   0.06328   0.44362   0.00000  Uiso   1.00
C155   C     0.91255   0.00106   0.40548   0.00000  Uiso   1.00
C156   C     0.92527   0.14712   0.69532   0.00000  Uiso   1.00
C157   C     0.96282   0.20446   0.70159   0.00000  Uiso   1.00
C158   C     0.01126   0.20681   0.78143   0.00000  Uiso   1.00
C159   C     0.80874   0.11751   0.68183   0.00000  Uiso   1.00
C160   C     0.74833   0.14996   0.67678   0.00000  Uiso   1.00
C161   C     0.69867   0.12739   0.74529   0.00000  Uiso   1.00
H162   H     0.89714   0.99488   0.80014   0.00000  Uiso   1.00
H163   H     0.92446   0.91399   0.64309   0.00000  Uiso   1.00
H164   H     0.99218   0.05515   0.90102   0.00000  Uiso   1.00
H165   H     0.77772   0.00066   0.87621   0.00000  Uiso   1.00
H166   H     0.95017   0.84775   0.43767   0.00000  Uiso   1.00
H167   H     0.09294   0.14540   0.98157   0.00000  Uiso   1.00
H168   H     0.64072   0.03050   0.92926   0.00000  Uiso   1.00
H169   H     0.86162   0.17538   0.55903   0.00000  Uiso   1.00
H170   H     0.88700   0.10440   0.38873   0.00000  Uiso   1.00
H171   H     0.95472   0.24556   0.64668   0.00000  Uiso   1.00
H172   H     0.74026   0.19107   0.62186   0.00000  Uiso   1.00
H173   H     0.91976   0.00229   0.23123   0.00000  Uiso   1.00
H174   H     0.06253   0.29994   0.77514   0.00000  Uiso   1.00
H175   H     0.61031   0.18504   0.72282   0.00000  Uiso   1.00
O176   O     0.95232   0.87507   0.22678   0.00000  Uiso   1.00
O177   O     0.13962   0.26558   0.94037   0.00000  Uiso   1.00
O178   O     0.54631   0.11483   0.87173   0.00000  Uiso   1.00
N179   N     0.93952   0.89386   0.41246   0.00000  Uiso   1.00
N180   N     0.07301   0.17214   0.92096   0.00000  Uiso   1.00
N181   N     0.65022   0.06473   0.87207   0.00000  Uiso   1.00
N182   N     0.92316   0.97701   0.30137   0.00000  Uiso   1.00
N183   N     0.05665   0.25530   0.80987   0.00000  Uiso   1.00
N184   N     0.63386   0.14788   0.76099   0.00000  Uiso   1.00
C185   C     0.03623   0.61100   0.99490   0.00000  Uiso   1.00
C186   C     0.01731   0.60109   0.87613   0.00000  Uiso   1.00
C187   C     0.95509   0.58363   0.83815   0.00000  Uiso   1.00
C188   C     0.94785   0.57698   0.72656   0.00000  Uiso   1.00
C189   C     0.91040   0.55996   0.55294   0.00000  Uiso   1.00
C190   C     0.09401   0.56428   0.01627   0.00000  Uiso   1.00
C191   C     0.09627   0.51589   0.09612   0.00000  Uiso   1.00
C192   C     0.15359   0.47827   0.10251   0.00000  Uiso   1.00
C193   C     0.23523   0.40416   0.14651   0.00000  Uiso   1.00
C194   C     0.06440   0.68081   0.00278   0.00000  Uiso   1.00
C195   C     0.04177   0.73038   0.07132   0.00000  Uiso   1.00
C196   C     0.07417   0.79086   0.06637   0.00000  Uiso   1.00
C197   C     0.10984   0.89766   0.08942   0.00000  Uiso   1.00
C198   C     0.13403   0.63024   0.86427   0.00000  Uiso   1.00
C199   C     0.07043   0.61153   0.80518   0.00000  Uiso   1.00
C200   C     0.06328   0.60491   0.69362   0.00000  Uiso   1.00
C201   C     0.00106   0.58745   0.65548   0.00000  Uiso   1.00
C202   C     0.14712   0.57473   0.94532   0.00000  Uiso   1.00
C203   C     0.20446   0.53718   0.95159   0.00000  Uiso   1.00
C204   C     0.20681   0.48874   0.03143   0.00000  Uiso   1.00
C205   C     0.11751   0.69126   0.93183   0.00000  Uiso   1.00
C206   C     0.14996   0.75167   0.92678   0.00000  Uiso   1.00
C207   C     0.12739   0.80133   0.99529   0.00000  Uiso   1.00
H208   H     0.99488   0.60286   0.05014   0.00000  Uiso   1.00
H209   H     0.91399   0.57554   0.89309   0.00000  Uiso   1.00
H210   H     0.05515   0.50782   0.15102   0.00000  Uiso   1.00
H211   H     0.00066   0.72228   0.12621   0.00000  Uiso   1.00
H212   H     0.84775   0.54983   0.68767   0.00000  Uiso   1.00
H213   H     0.14540   0.40706   0.23157   0.00000  Uiso   1.00
H214   H     0.03050   0.85928   0.17926   0.00000  Uiso   1.00
H215   H     0.17538   0.63838   0.80903   0.00000  Uiso   1.00
H216   H     0.10440   0.61300   0.63873   0.00000  Uiso   1.00
H217   H     0.24556   0.54528   0.89668   0.00000  Uiso   1.00
H218   H     0.19107   0.75974   0.87186   0.00000  Uiso   1.00
H219   H     0.00229   0.58024   0.48123   0.00000  Uiso   1.00
H220   H     0.29994   0.43747   0.02514   0.00000  Uiso   1.00
H221   H     0.18504   0.88969   0.97282   0.00000  Uiso   1.00
O222   O     0.87507   0.54768   0.47678   0.00000  Uiso   1.00
O223   O     0.26558   0.36038   0.19037   0.00000  Uiso   1.00
O224   O     0.11483   0.95369   0.12173   0.00000  Uiso   1.00
N225   N     0.89386   0.56048   0.66246   0.00000  Uiso   1.00
N226   N     0.17214   0.42699   0.17096   0.00000  Uiso   1.00
N227   N     0.06473   0.84978   0.12207   0.00000  Uiso   1.00
N228   N     0.97701   0.57684   0.55137   0.00000  Uiso   1.00
N229   N     0.25530   0.44335   0.05987   0.00000  Uiso   1.00
N230   N     0.14788   0.86614   0.01099   0.00000  Uiso   1.00
C231   C     0.53623   0.11100   0.49490   0.00000  Uiso   1.00
C232   C     0.51731   0.10109   0.37613   0.00000  Uiso   1.00
C233   C     0.45509   0.08363   0.33815   0.00000  Uiso   1.00
C234   C     0.44785   0.07698   0.22656   0.00000  Uiso   1.00
C235   C     0.41040   0.05996   0.05294   0.00000  Uiso   1.00
C236   C     0.59401   0.06428   0.51627   0.00000  Uiso   1.00
C237   C     0.59627   0.01589   0.59612   0.00000  Uiso   1.00
C238   C     0.65359   0.97827   0.60251   0.00000  Uiso   1.00
C239   C     0.73523   0.90416   0.64651   0.00000  Uiso   1.00
C240   C     0.56440   0.18081   0.50278   0.00000  Uiso   1.00
C241   C     0.54177   0.23038   0.57132   0.00000  Uiso   1.00
C242   C     0.57417   0.29086   0.56637   0.00000  Uiso   1.00
C243   C     0.60984   0.39766   0.58942   0.00000  Uiso   1.00
C244   C     0.63403   0.13024   0.36427   0.00000  Uiso   1.00
C245   C     0.57043   0.11153   0.30518   0.00000  Uiso   1.00
C246   C     0.56328   0.10491   0.19362   0.00000  Uiso   1.00
C247   C     0.50106   0.08745   0.15548   0.00000  Uiso   1.00
C248   C     0.64712   0.07473   0.44532   0.00000  Uiso   1.00
C249   C     0.70446   0.03718   0.45159   0.00000  Uiso   1.00
C250   C     0.70681   0.98874   0.53143   0.00000  Uiso   1.00
C251   C     0.61751   0.19126   0.43183   0.00000  Uiso   1.00
C252   C     0.64996   0.25167   0.42678   0.00000  Uiso   1.00
C253   C     0.62739   0.30133   0.49529   0.00000  Uiso   1.00
H254   H     0.49488   0.10286   0.55014   0.00000  Uiso   1.00
H255   H     0.41399   0.07554   0.39309   0.00000  Uiso   1.00
H256   H     0.55515   0.00782   0.65102   0.00000  Uiso   1.00
H257   H     0.50066   0.22228   0.62621   0.00000  Uiso   1.00
H258   H     0.34775   0.04983   0.18767   0.00000  Uiso   1.00
H259   H     0.64540   0.90706   0.73157   0.00000  Uiso   1.00
H260   H     0.53050   0.35928   0.67926   0.00000  Uiso   1.00
H261   H     0.67538   0.13838   0.30903   0.00000  Uiso   1.00
H262   H     0.60440   0.11300   0.13873   0.00000  Uiso   1.00
H263   H     0.74556   0.04528   0.39668   0.00000  Uiso   1.00
H264   H     0.69107   0.25974   0.37186   0.00000  Uiso   1.00
H265   H     0.50229   0.08024   0.98123   0.00000  Uiso   1.00
H266   H     0.79994   0.93747   0.52514   0.00000  Uiso   1.00
H267   H     0.68504   0.38969   0.47282   0.00000  Uiso   1.00
O268   O     0.37507   0.04768   0.97678   0.00000  Uiso   1.00
O269   O     0.76558   0.86038   0.69037   0.00000  Uiso   1.00
O270   O     0.61483   0.45369   0.62173   0.00000  Uiso   1.00
N271   N     0.39386   0.06048   0.16246   0.00000  Uiso   1.00
N272   N     0.67214   0.92699   0.67096   0.00000  Uiso   1.00
N273   N     0.56473   0.34978   0.62207   0.00000  Uiso   1.00
N274   N     0.47701   0.07684   0.05137   0.00000  Uiso   1.00
N275   N     0.75530   0.94335   0.55987   0.00000  Uiso   1.00
N276   N     0.64788   0.36614   0.51099   0.00000  Uiso   1.00
C277   C     0.46377   0.88900   0.49490   0.00000  Uiso   1.00
C278   C     0.48269   0.89891   0.37613   0.00000  Uiso   1.00
C279   C     0.54491   0.91637   0.33815   0.00000  Uiso   1.00
C280   C     0.55215   0.92302   0.22656   0.00000  Uiso   1.00
C281   C     0.58960   0.94004   0.05294   0.00000  Uiso   1.00
C282   C     0.40599   0.93572   0.51627   0.00000  Uiso   1.00
C283   C     0.40373   0.98411   0.59612   0.00000  Uiso   1.00
C284   C     0.34641   0.02173   0.60251   0.00000  Uiso   1.00
C285   C     0.26477   0.09584   0.64651   0.00000  Uiso   1.00
C286   C     0.43560   0.81919   0.50278   0.00000  Uiso   1.00
C287   C     0.45823   0.76962   0.57132   0.00000  Uiso   1.00
C288   C     0.42583   0.70914   0.56637   0.00000  Uiso   1.00
C289   C     0.39016   0.60234   0.58942   0.00000  Uiso   1.00
C290   C     0.36597   0.86976   0.36427   0.00000  Uiso   1.00
C291   C     0.42957   0.88847   0.30518   0.00000  Uiso   1.00
C292   C     0.43672   0.89509   0.19362   0.00000  Uiso   1.00
C293   C     0.49894   0.91255   0.15548   0.00000  Uiso   1.00
C294   C     0.35288   0.92527   0.44532   0.00000  Uiso   1.00
C295   C     0.29554   0.96282   0.45159   0.00000  Uiso   1.00
C296   C     0.29319   0.01126   0.53143   0.00000  Uiso   1.00
C297   C     0.38249   0.80874   0.43183   0.00000  Uiso   1.00
C298   C     0.35004   0.74833   0.42678   0.00000  Uiso   1.00
C299   C     0.37261   0.69867   0.49529   0.00000  Uiso   1.00
H300   H     0.50512   0.89714   0.55014   0.00000  Uiso   1.00
H301   H     0.58601   0.92446   0.39309   0.00000  Uiso   1.00
H302   H     0.44485   0.99218   0.65102   0.00000  Uiso   1.00
H303   H     0.49934   0.77772   0.62621   0.00000  Uiso   1.00
H304   H     0.65225   0.95017   0.18767   0.00000  Uiso   1.00
H305   H     0.35460   0.09294   0.73157   0.00000  Uiso   1.00
H306   H     0.46950   0.64072   0.67926   0.00000  Uiso   1.00
H307   H     0.32462   0.86162   0.30903   0.00000  Uiso   1.00
H308   H     0.39560   0.88700   0.13873   0.00000  Uiso   1.00
H309   H     0.25444   0.95472   0.39668   0.00000  Uiso   1.00
H310   H     0.30893   0.74026   0.37186   0.00000  Uiso   1.00
H311   H     0.49771   0.91976   0.98123   0.00000  Uiso   1.00
H312   H     0.20006   0.06253   0.52514   0.00000  Uiso   1.00
H313   H     0.31496   0.61031   0.47282   0.00000  Uiso   1.00
O314   O     0.62493   0.95232   0.97678   0.00000  Uiso   1.00
O315   O     0.23442   0.13962   0.69037   0.00000  Uiso   1.00
O316   O     0.38517   0.54631   0.62173   0.00000  Uiso   1.00
N317   N     0.60614   0.93952   0.16246   0.00000  Uiso   1.00
N318   N     0.32786   0.07301   0.67096   0.00000  Uiso   1.00
N319   N     0.43527   0.65022   0.62207   0.00000  Uiso   1.00
N320   N     0.52299   0.92316   0.05137   0.00000  Uiso   1.00
N321   N     0.24470   0.05665   0.55987   0.00000  Uiso   1.00
N322   N     0.35212   0.63386   0.51099   0.00000  Uiso   1.00
C323   C     0.96377   0.38900   0.99490   0.00000  Uiso   1.00
C324   C     0.98269   0.39891   0.87613   0.00000  Uiso   1.00
C325   C     0.04491   0.41637   0.83815   0.00000  Uiso   1.00
C326   C     0.05215   0.42302   0.72656   0.00000  Uiso   1.00
C327   C     0.08960   0.44004   0.55294   0.00000  Uiso   1.00
C328   C     0.90599   0.43572   0.01627   0.00000  Uiso   1.00
C329   C     0.90373   0.48411   0.09612   0.00000  Uiso   1.00
C330   C     0.84641   0.52173   0.10251   0.00000  Uiso   1.00
C331   C     0.76477   0.59584   0.14651   0.00000  Uiso   1.00
C332   C     0.93560   0.31919   0.00278   0.00000  Uiso   1.00
C333   C     0.95823   0.26962   0.07132   0.00000  Uiso   1.00
C334   C     0.92583   0.20914   0.06637   0.00000  Uiso   1.00
C335   C     0.89016   0.10234   0.08942   0.00000  Uiso   1.00
C336   C     0.86597   0.36976   0.86427   0.00000  Uiso   1.00
C337   C     0.92957   0.38847   0.80518   0.00000  Uiso   1.00
C338   C     0.93672   0.39509   0.69362   0.00000  Uiso   1.00
C339   C     0.99894   0.41255   0.65548   0.00000  Uiso   1.00
C340   C     0.85288   0.42527   0.94532   0.00000  Uiso   1.00
C341   C     0.79554   0.46282   0.95159   0.00000  Uiso   1.00
C342   C     0.79319   0.51126   0.03143   0.00000  Uiso   1.00
C343   C     0.88249   0.30874   0.93183   0.00000  Uiso   1.00
C344   C     0.85004   0.24833   0.92678   0.00000  Uiso   1.00
C345   C     0.87261   0.19867   0.99529   0.00000  Uiso   1.00
H346   H     0.00512   0.39714   0.05014   0.00000  Uiso   1.00
H347   H     0.08601   0.42446   0.89309   0.00000  Uiso   1.00
H348   H     0.94485   0.49218   0.15102   0.00000  Uiso   1.00
H349   H     0.99934   0.27772   0.12621   0.00000  Uiso   1.00
H350   H     0.15225   0.45017   0.68767   0.00000  Uiso   1.00
H351   H     0.85460   0.59294   0.23157   0.00000  Uiso   1.00
H352   H     0.96950   0.14072   0.17926   0.00000  Uiso   1.00
H353   H     0.82462   0.36162   0.80903   0.00000  Uiso   1.00
H354   H     0.89560   0.38700   0.63873   0.00000  Uiso   1.00
H355   H     0.75444   0.45472   0.89668   0.00000  Uiso   1.00
H356   H     0.80893   0.24026   0.87186   0.00000  Uiso   1.00
H357   H     0.99771   0.41976   0.48123   0.00000  Uiso   1.00
H358   H     0.70006   0.56253   0.02514   0.00000  Uiso   1.00
H359   H     0.81496   0.11031   0.97282   0.00000  Uiso   1.00
O360   O     0.12493   0.45232   0.47678   0.00000  Uiso   1.00
O361   O     0.73442   0.63962   0.19037   0.00000  Uiso   1.00
O362   O     0.88517   0.04631   0.12173   0.00000  Uiso   1.00
N363   N     0.10614   0.43952   0.66246   0.00000  Uiso   1.00
N364   N     0.82786   0.57301   0.17096   0.00000  Uiso   1.00
N365   N     0.93527   0.15022   0.12207   0.00000  Uiso   1.00
N366   N     0.02299   0.42316   0.55137   0.00000  Uiso   1.00
N367   N     0.74470   0.55665   0.05987   0.00000  Uiso   1.00
N368   N     0.85212   0.13386   0.01099   0.00000  Uiso   1.00
