data_job_02821
_audit_creation_date              2018-12-19
_audit_creation_method            'Materials Studio'
_symmetry_space_group_name_H-M    'P1'
_symmetry_Int_Tables_number       1
_symmetry_cell_setting            triclinic
loop_
_symmetry_equiv_pos_as_xyz
  x,y,z
_cell_length_a                    9.4466
_cell_length_b                    26.0243
_cell_length_c                    10.3170
_cell_angle_alpha                 90.0000
_cell_angle_beta                  84.6736
_cell_angle_gamma                 90.0000
loop_
_atom_site_label
_atom_site_type_symbol
_atom_site_fract_x
_atom_site_fract_y
_atom_site_fract_z
_atom_site_U_iso_or_equiv
_atom_site_adp_type
_atom_site_occupancy
C1     C     0.14744   0.13130   0.82342   0.00000  Uiso   1.00
C2     C     0.20234   0.08007   0.87016   0.00000  Uiso   1.00
C3     C     0.14066   0.05132   0.97374   0.00000  Uiso   1.00
C4     C     0.20712   0.00551   0.00106   0.00000  Uiso   1.00
C5     C     0.27360   0.92848   0.08488   0.00000  Uiso   1.00
C6     C     0.27007   0.16922   0.82718   0.00000  Uiso   1.00
C7     C     0.26530   0.21543   0.89461   0.00000  Uiso   1.00
C8     C     0.38877   0.24466   0.88572   0.00000  Uiso   1.00
C9     C     0.56035   0.30604   0.90274   0.00000  Uiso   1.00
C10    C     0.12597   0.12390   0.67995   0.00000  Uiso   1.00
C11    C     0.00006   0.13202   0.62357   0.00000  Uiso   1.00
C12    C     0.00221   0.12312   0.49071   0.00000  Uiso   1.00
C13    C     0.95006   0.11414   0.27912   0.00000  Uiso   1.00
C14    C     0.37516   0.10107   0.68772   0.00000  Uiso   1.00
C15    C     0.32604   0.06366   0.79645   0.00000  Uiso   1.00
C16    C     0.39261   0.01788   0.82360   0.00000  Uiso   1.00
C17    C     0.33103   0.98906   0.92721   0.00000  Uiso   1.00
C18    C     0.39375   0.15280   0.75347   0.00000  Uiso   1.00
C19    C     0.51725   0.18198   0.74447   0.00000  Uiso   1.00
C20    C     0.51268   0.22821   0.81188   0.00000  Uiso   1.00
C21    C     0.24965   0.10748   0.60623   0.00000  Uiso   1.00
C22    C     0.25201   0.09857   0.47343   0.00000  Uiso   1.00
C23    C     0.12612   0.10667   0.41686   0.00000  Uiso   1.00
H24    H     0.05115   0.14409   0.88081   0.00000  Uiso   1.00
H25    H     0.04494   0.06405   0.03077   0.00000  Uiso   1.00
H26    H     0.16957   0.22812   0.95164   0.00000  Uiso   1.00
H27    H     0.90436   0.14473   0.68064   0.00000  Uiso   1.00
H28    H     0.09264   0.96807   0.16456   0.00000  Uiso   1.00
H29    H     0.35540   0.31405   0.99766   0.00000  Uiso   1.00
H30    H     0.79617   0.13819   0.42621   0.00000  Uiso   1.00
H31    H     0.47146   0.08829   0.63033   0.00000  Uiso   1.00
H32    H     0.48832   0.00518   0.76654   0.00000  Uiso   1.00
H33    H     0.61295   0.16926   0.68741   0.00000  Uiso   1.00
H34    H     0.34774   0.08586   0.41642   0.00000  Uiso   1.00
H35    H     0.45251   0.92030   0.95010   0.00000  Uiso   1.00
H36    H     0.71527   0.26627   0.78321   0.00000  Uiso   1.00
H37    H     0.15603   0.09041   0.21176   0.00000  Uiso   1.00
O38    O     0.27611   0.89053   0.15149   0.00000  Uiso   1.00
O39    O     0.62083   0.34444   0.93251   0.00000  Uiso   1.00
O40    O     0.88712   0.11371   0.18278   0.00000  Uiso   1.00
N41    N     0.17501   0.96823   0.09537   0.00000  Uiso   1.00
N42    N     0.42068   0.29169   0.93936   0.00000  Uiso   1.00
N43    N     0.89785   0.12729   0.40509   0.00000  Uiso   1.00
N44    N     0.36865   0.94252   0.97998   0.00000  Uiso   1.00
N45    N     0.61432   0.26598   0.82396   0.00000  Uiso   1.00
N46    N     0.09149   0.10158   0.28969   0.00000  Uiso   1.00
C47    C     0.85256   0.63130   0.67658   0.00000  Uiso   1.00
C48    C     0.79766   0.58007   0.62984   0.00000  Uiso   1.00
C49    C     0.85934   0.55132   0.52626   0.00000  Uiso   1.00
C50    C     0.79288   0.50551   0.49894   0.00000  Uiso   1.00
C51    C     0.72640   0.42848   0.41512   0.00000  Uiso   1.00
C52    C     0.72993   0.66922   0.67282   0.00000  Uiso   1.00
C53    C     0.73470   0.71543   0.60539   0.00000  Uiso   1.00
C54    C     0.61123   0.74466   0.61428   0.00000  Uiso   1.00
C55    C     0.43965   0.80604   0.59726   0.00000  Uiso   1.00
C56    C     0.87403   0.62390   0.82005   0.00000  Uiso   1.00
C57    C     0.99994   0.63202   0.87643   0.00000  Uiso   1.00
C58    C     0.99779   0.62312   0.00929   0.00000  Uiso   1.00
C59    C     0.04994   0.61414   0.22088   0.00000  Uiso   1.00
C60    C     0.62484   0.60107   0.81228   0.00000  Uiso   1.00
C61    C     0.67396   0.56366   0.70355   0.00000  Uiso   1.00
C62    C     0.60739   0.51788   0.67640   0.00000  Uiso   1.00
C63    C     0.66897   0.48906   0.57279   0.00000  Uiso   1.00
C64    C     0.60625   0.65280   0.74653   0.00000  Uiso   1.00
C65    C     0.48275   0.68198   0.75553   0.00000  Uiso   1.00
C66    C     0.48732   0.72821   0.68812   0.00000  Uiso   1.00
C67    C     0.75035   0.60748   0.89377   0.00000  Uiso   1.00
C68    C     0.74799   0.59857   0.02657   0.00000  Uiso   1.00
C69    C     0.87388   0.60667   0.08314   0.00000  Uiso   1.00
H70    H     0.94885   0.64409   0.61919   0.00000  Uiso   1.00
H71    H     0.95506   0.56405   0.46923   0.00000  Uiso   1.00
H72    H     0.83043   0.72812   0.54836   0.00000  Uiso   1.00
H73    H     0.09564   0.64473   0.81936   0.00000  Uiso   1.00
H74    H     0.90736   0.46807   0.33544   0.00000  Uiso   1.00
H75    H     0.64460   0.81405   0.50234   0.00000  Uiso   1.00
H76    H     0.20383   0.63819   0.07379   0.00000  Uiso   1.00
H77    H     0.52854   0.58829   0.86967   0.00000  Uiso   1.00
H78    H     0.51168   0.50518   0.73346   0.00000  Uiso   1.00
H79    H     0.38705   0.66926   0.81259   0.00000  Uiso   1.00
H80    H     0.65226   0.58586   0.08358   0.00000  Uiso   1.00
H81    H     0.54749   0.42030   0.54990   0.00000  Uiso   1.00
H82    H     0.28473   0.76627   0.71679   0.00000  Uiso   1.00
H83    H     0.84397   0.59041   0.28824   0.00000  Uiso   1.00
O84    O     0.72389   0.39053   0.34851   0.00000  Uiso   1.00
O85    O     0.37917   0.84444   0.56749   0.00000  Uiso   1.00
O86    O     0.11288   0.61371   0.31722   0.00000  Uiso   1.00
N87    N     0.82499   0.46823   0.40463   0.00000  Uiso   1.00
N88    N     0.57932   0.79169   0.56064   0.00000  Uiso   1.00
N89    N     0.10215   0.62729   0.09491   0.00000  Uiso   1.00
N90    N     0.63135   0.44252   0.52002   0.00000  Uiso   1.00
N91    N     0.38568   0.76598   0.67604   0.00000  Uiso   1.00
N92    N     0.90851   0.60158   0.21031   0.00000  Uiso   1.00
C93    C     0.85256   0.86870   0.17658   0.00000  Uiso   1.00
C94    C     0.79766   0.91993   0.12984   0.00000  Uiso   1.00
C95    C     0.85934   0.94868   0.02626   0.00000  Uiso   1.00
C96    C     0.79288   0.99449   0.99894   0.00000  Uiso   1.00
C97    C     0.72640   0.07152   0.91512   0.00000  Uiso   1.00
C98    C     0.72993   0.83078   0.17282   0.00000  Uiso   1.00
C99    C     0.73470   0.78457   0.10539   0.00000  Uiso   1.00
C100   C     0.61123   0.75534   0.11428   0.00000  Uiso   1.00
C101   C     0.43965   0.69396   0.09726   0.00000  Uiso   1.00
C102   C     0.87403   0.87610   0.32005   0.00000  Uiso   1.00
C103   C     0.99994   0.86798   0.37643   0.00000  Uiso   1.00
C104   C     0.99779   0.87688   0.50929   0.00000  Uiso   1.00
C105   C     0.04994   0.88586   0.72088   0.00000  Uiso   1.00
C106   C     0.62484   0.89893   0.31228   0.00000  Uiso   1.00
C107   C     0.67396   0.93634   0.20355   0.00000  Uiso   1.00
C108   C     0.60739   0.98212   0.17640   0.00000  Uiso   1.00
C109   C     0.66897   0.01094   0.07279   0.00000  Uiso   1.00
C110   C     0.60625   0.84720   0.24653   0.00000  Uiso   1.00
C111   C     0.48275   0.81802   0.25553   0.00000  Uiso   1.00
C112   C     0.48732   0.77179   0.18812   0.00000  Uiso   1.00
C113   C     0.75035   0.89252   0.39377   0.00000  Uiso   1.00
C114   C     0.74799   0.90143   0.52657   0.00000  Uiso   1.00
C115   C     0.87388   0.89333   0.58314   0.00000  Uiso   1.00
H116   H     0.94885   0.85591   0.11919   0.00000  Uiso   1.00
H117   H     0.95506   0.93595   0.96923   0.00000  Uiso   1.00
H118   H     0.83043   0.77188   0.04836   0.00000  Uiso   1.00
H119   H     0.09564   0.85527   0.31936   0.00000  Uiso   1.00
H120   H     0.90736   0.03193   0.83544   0.00000  Uiso   1.00
H121   H     0.64460   0.68595   0.00234   0.00000  Uiso   1.00
H122   H     0.20383   0.86181   0.57379   0.00000  Uiso   1.00
H123   H     0.52854   0.91171   0.36967   0.00000  Uiso   1.00
H124   H     0.51168   0.99482   0.23346   0.00000  Uiso   1.00
H125   H     0.38705   0.83074   0.31259   0.00000  Uiso   1.00
H126   H     0.65226   0.91414   0.58358   0.00000  Uiso   1.00
H127   H     0.54749   0.07970   0.04990   0.00000  Uiso   1.00
H128   H     0.28473   0.73373   0.21679   0.00000  Uiso   1.00
H129   H     0.84397   0.90959   0.78824   0.00000  Uiso   1.00
O130   O     0.72389   0.10947   0.84851   0.00000  Uiso   1.00
O131   O     0.37917   0.65556   0.06749   0.00000  Uiso   1.00
O132   O     0.11288   0.88629   0.81722   0.00000  Uiso   1.00
N133   N     0.82499   0.03177   0.90463   0.00000  Uiso   1.00
N134   N     0.57932   0.70831   0.06064   0.00000  Uiso   1.00
N135   N     0.10215   0.87271   0.59491   0.00000  Uiso   1.00
N136   N     0.63135   0.05748   0.02002   0.00000  Uiso   1.00
N137   N     0.38568   0.73402   0.17604   0.00000  Uiso   1.00
N138   N     0.90851   0.89842   0.71031   0.00000  Uiso   1.00
C139   C     0.14744   0.36870   0.32342   0.00000  Uiso   1.00
C140   C     0.20234   0.41993   0.37016   0.00000  Uiso   1.00
C141   C     0.14066   0.44868   0.47374   0.00000  Uiso   1.00
C142   C     0.20712   0.49449   0.50106   0.00000  Uiso   1.00
C143   C     0.27360   0.57152   0.58488   0.00000  Uiso   1.00
C144   C     0.27007   0.33078   0.32718   0.00000  Uiso   1.00
C145   C     0.26530   0.28457   0.39461   0.00000  Uiso   1.00
C146   C     0.38877   0.25534   0.38572   0.00000  Uiso   1.00
C147   C     0.56035   0.19396   0.40274   0.00000  Uiso   1.00
C148   C     0.12597   0.37610   0.17995   0.00000  Uiso   1.00
C149   C     0.00006   0.36798   0.12357   0.00000  Uiso   1.00
C150   C     0.00221   0.37688   0.99071   0.00000  Uiso   1.00
C151   C     0.95006   0.38586   0.77912   0.00000  Uiso   1.00
C152   C     0.37516   0.39893   0.18772   0.00000  Uiso   1.00
C153   C     0.32604   0.43634   0.29645   0.00000  Uiso   1.00
C154   C     0.39261   0.48212   0.32360   0.00000  Uiso   1.00
C155   C     0.33103   0.51094   0.42721   0.00000  Uiso   1.00
C156   C     0.39375   0.34720   0.25347   0.00000  Uiso   1.00
C157   C     0.51725   0.31802   0.24447   0.00000  Uiso   1.00
C158   C     0.51268   0.27179   0.31188   0.00000  Uiso   1.00
C159   C     0.24965   0.39252   0.10623   0.00000  Uiso   1.00
C160   C     0.25201   0.40143   0.97343   0.00000  Uiso   1.00
C161   C     0.12612   0.39333   0.91686   0.00000  Uiso   1.00
H162   H     0.05115   0.35591   0.38081   0.00000  Uiso   1.00
H163   H     0.04494   0.43595   0.53077   0.00000  Uiso   1.00
H164   H     0.16957   0.27188   0.45164   0.00000  Uiso   1.00
H165   H     0.90436   0.35527   0.18064   0.00000  Uiso   1.00
H166   H     0.09264   0.53193   0.66456   0.00000  Uiso   1.00
H167   H     0.35540   0.18595   0.49766   0.00000  Uiso   1.00
H168   H     0.79617   0.36181   0.92621   0.00000  Uiso   1.00
H169   H     0.47146   0.41171   0.13033   0.00000  Uiso   1.00
H170   H     0.48832   0.49482   0.26654   0.00000  Uiso   1.00
H171   H     0.61295   0.33074   0.18741   0.00000  Uiso   1.00
H172   H     0.34774   0.41414   0.91642   0.00000  Uiso   1.00
H173   H     0.45251   0.57970   0.45010   0.00000  Uiso   1.00
H174   H     0.71527   0.23373   0.28321   0.00000  Uiso   1.00
H175   H     0.15603   0.40959   0.71176   0.00000  Uiso   1.00
O176   O     0.27611   0.60947   0.65149   0.00000  Uiso   1.00
O177   O     0.62083   0.15556   0.43251   0.00000  Uiso   1.00
O178   O     0.88712   0.38629   0.68278   0.00000  Uiso   1.00
N179   N     0.17501   0.53177   0.59537   0.00000  Uiso   1.00
N180   N     0.42068   0.20831   0.43936   0.00000  Uiso   1.00
N181   N     0.89785   0.37271   0.90509   0.00000  Uiso   1.00
N182   N     0.36865   0.55748   0.47998   0.00000  Uiso   1.00
N183   N     0.61432   0.23402   0.32396   0.00000  Uiso   1.00
N184   N     0.09149   0.39842   0.78969   0.00000  Uiso   1.00
