data_job_00750
_audit_creation_date              2018-12-19
_audit_creation_method            'Materials Studio'
_symmetry_space_group_name_H-M    'P1'
_symmetry_Int_Tables_number       1
_symmetry_cell_setting            triclinic
loop_
_symmetry_equiv_pos_as_xyz
  x,y,z
_cell_length_a                    13.4312
_cell_length_b                    12.2414
_cell_length_c                    7.1126
_cell_angle_alpha                 90.0000
_cell_angle_beta                  98.9304
_cell_angle_gamma                 90.0000
loop_
_atom_site_label
_atom_site_type_symbol
_atom_site_fract_x
_atom_site_fract_y
_atom_site_fract_z
_atom_site_U_iso_or_equiv
_atom_site_adp_type
_atom_site_occupancy
C1     C     0.72126   0.49674   0.57586   0.00000  Uiso   1.00
C2     C     0.61445   0.51946   0.61336   0.00000  Uiso   1.00
C3     C     0.52733   0.51054   0.48096   0.00000  Uiso   1.00
C4     C     0.43690   0.53494   0.54325   0.00000  Uiso   1.00
C5     C     0.27152   0.56537   0.57286   0.00000  Uiso   1.00
C6     C     0.78116   0.60084   0.63065   0.00000  Uiso   1.00
C7     C     0.83421   0.66032   0.51279   0.00000  Uiso   1.00
C8     C     0.88413   0.75322   0.58966   0.00000  Uiso   1.00
C9     C     0.97762   0.90995   0.64615   0.00000  Uiso   1.00
C10    C     0.76430   0.41051   0.72072   0.00000  Uiso   1.00
C11    C     0.80321   0.30997   0.67860   0.00000  Uiso   1.00
C12    C     0.83897   0.24263   0.83130   0.00000  Uiso   1.00
C13    C     0.90629   0.10384   0.02764   0.00000  Uiso   1.00
C14    C     0.71560   0.55593   0.92192   0.00000  Uiso   1.00
C15    C     0.61138   0.55161   0.80133   0.00000  Uiso   1.00
C16    C     0.52106   0.57603   0.86384   0.00000  Uiso   1.00
C17    C     0.43382   0.56714   0.73156   0.00000  Uiso   1.00
C18    C     0.77808   0.63299   0.81861   0.00000  Uiso   1.00
C19    C     0.82794   0.72581   0.89567   0.00000  Uiso   1.00
C20    C     0.88105   0.78543   0.77796   0.00000  Uiso   1.00
C21    C     0.76123   0.44265   0.90869   0.00000  Uiso   1.00
C22    C     0.79694   0.37546   0.06148   0.00000  Uiso   1.00
C23    C     0.83589   0.27484   0.01961   0.00000  Uiso   1.00
H24    H     0.72366   0.47172   0.42952   0.00000  Uiso   1.00
H25    H     0.52974   0.48566   0.33550   0.00000  Uiso   1.00
H26    H     0.83658   0.63542   0.36734   0.00000  Uiso   1.00
H27    H     0.80558   0.28512   0.53312   0.00000  Uiso   1.00
H28    H     0.31339   0.51534   0.31415   0.00000  Uiso   1.00
H29    H     0.96041   0.83109   0.38130   0.00000  Uiso   1.00
H30    H     0.89504   0.09242   0.73088   0.00000  Uiso   1.00
H31    H     0.71321   0.58097   0.06827   0.00000  Uiso   1.00
H32    H     0.51870   0.60091   0.00931   0.00000  Uiso   1.00
H33    H     0.82555   0.75066   0.04114   0.00000  Uiso   1.00
H34    H     0.79455   0.40037   0.20693   0.00000  Uiso   1.00
H35    H     0.30443   0.60888   0.86103   0.00000  Uiso   1.00
H36    H     0.95146   0.92462   0.92818   0.00000  Uiso   1.00
H37    H     0.88609   0.18596   0.27777   0.00000  Uiso   1.00
O38    O     0.18115   0.57330   0.53726   0.00000  Uiso   1.00
O39    O     0.03004   0.98752   0.62537   0.00000  Uiso   1.00
O40    O     0.94427   0.01841   0.08401   0.00000  Uiso   1.00
N41    N     0.33797   0.53460   0.45096   0.00000  Uiso   1.00
N42    N     0.94288   0.82981   0.51373   0.00000  Uiso   1.00
N43    N     0.88180   0.13923   0.84056   0.00000  Uiso   1.00
N44    N     0.33315   0.58493   0.74523   0.00000  Uiso   1.00
N45    N     0.93807   0.88014   0.80801   0.00000  Uiso   1.00
N46    N     0.87698   0.18956   0.13484   0.00000  Uiso   1.00
C47    C     0.27874   0.99674   0.42414   0.00000  Uiso   1.00
C48    C     0.38555   0.01946   0.38664   0.00000  Uiso   1.00
C49    C     0.47267   0.01054   0.51904   0.00000  Uiso   1.00
C50    C     0.56310   0.03494   0.45675   0.00000  Uiso   1.00
C51    C     0.72848   0.06537   0.42714   0.00000  Uiso   1.00
C52    C     0.21884   0.10084   0.36935   0.00000  Uiso   1.00
C53    C     0.16579   0.16032   0.48721   0.00000  Uiso   1.00
C54    C     0.11587   0.25322   0.41034   0.00000  Uiso   1.00
C55    C     0.02238   0.40995   0.35385   0.00000  Uiso   1.00
C56    C     0.23570   0.91051   0.27928   0.00000  Uiso   1.00
C57    C     0.19679   0.80997   0.32140   0.00000  Uiso   1.00
C58    C     0.16103   0.74263   0.16870   0.00000  Uiso   1.00
C59    C     0.09371   0.60384   0.97236   0.00000  Uiso   1.00
C60    C     0.28440   0.05593   0.07808   0.00000  Uiso   1.00
C61    C     0.38862   0.05161   0.19867   0.00000  Uiso   1.00
C62    C     0.47894   0.07603   0.13616   0.00000  Uiso   1.00
C63    C     0.56618   0.06714   0.26844   0.00000  Uiso   1.00
C64    C     0.22192   0.13299   0.18139   0.00000  Uiso   1.00
C65    C     0.17206   0.22581   0.10433   0.00000  Uiso   1.00
C66    C     0.11895   0.28543   0.22204   0.00000  Uiso   1.00
C67    C     0.23877   0.94265   0.09131   0.00000  Uiso   1.00
C68    C     0.20306   0.87546   0.93852   0.00000  Uiso   1.00
C69    C     0.16411   0.77484   0.98039   0.00000  Uiso   1.00
H70    H     0.27634   0.97172   0.57048   0.00000  Uiso   1.00
H71    H     0.47026   0.98566   0.66450   0.00000  Uiso   1.00
H72    H     0.16342   0.13542   0.63266   0.00000  Uiso   1.00
H73    H     0.19442   0.78512   0.46688   0.00000  Uiso   1.00
H74    H     0.68661   0.01534   0.68585   0.00000  Uiso   1.00
H75    H     0.03959   0.33109   0.61870   0.00000  Uiso   1.00
H76    H     0.10496   0.59242   0.26912   0.00000  Uiso   1.00
H77    H     0.28679   0.08097   0.93173   0.00000  Uiso   1.00
H78    H     0.48130   0.10091   0.99069   0.00000  Uiso   1.00
H79    H     0.17445   0.25066   0.95886   0.00000  Uiso   1.00
H80    H     0.20545   0.90037   0.79307   0.00000  Uiso   1.00
H81    H     0.69557   0.10888   0.13897   0.00000  Uiso   1.00
H82    H     0.04854   0.42462   0.07182   0.00000  Uiso   1.00
H83    H     0.11391   0.68596   0.72223   0.00000  Uiso   1.00
O84    O     0.81885   0.07330   0.46274   0.00000  Uiso   1.00
O85    O     0.96996   0.48752   0.37463   0.00000  Uiso   1.00
O86    O     0.05573   0.51841   0.91599   0.00000  Uiso   1.00
N87    N     0.66203   0.03460   0.54904   0.00000  Uiso   1.00
N88    N     0.05712   0.32981   0.48627   0.00000  Uiso   1.00
N89    N     0.11820   0.63923   0.15944   0.00000  Uiso   1.00
N90    N     0.66685   0.08493   0.25477   0.00000  Uiso   1.00
N91    N     0.06193   0.38014   0.19199   0.00000  Uiso   1.00
N92    N     0.12302   0.68956   0.86516   0.00000  Uiso   1.00
