data_job_01325
_audit_creation_date              2018-12-19
_audit_creation_method            'Materials Studio'
_symmetry_space_group_name_H-M    'P1'
_symmetry_Int_Tables_number       1
_symmetry_cell_setting            triclinic
loop_
_symmetry_equiv_pos_as_xyz
  x,y,z
_cell_length_a                    16.1436
_cell_length_b                    17.2352
_cell_length_c                    22.7335
_cell_angle_alpha                 90.0000
_cell_angle_beta                  90.0000
_cell_angle_gamma                 90.0000
loop_
_atom_site_label
_atom_site_type_symbol
_atom_site_fract_x
_atom_site_fract_y
_atom_site_fract_z
_atom_site_U_iso_or_equiv
_atom_site_adp_type
_atom_site_occupancy
C1     C     0.01913   0.24640   0.13736   0.00000  Uiso   1.00
C2     C     0.93267   0.27109   0.15684   0.00000  Uiso   1.00
C3     C     0.91287   0.34006   0.18503   0.00000  Uiso   1.00
C4     C     0.83017   0.35180   0.19923   0.00000  Uiso   1.00
C5     C     0.70515   0.39854   0.23156   0.00000  Uiso   1.00
C6     C     0.03526   0.16822   0.16661   0.00000  Uiso   1.00
C7     C     0.10172   0.15070   0.20299   0.00000  Uiso   1.00
C8     C     0.10538   0.07584   0.22540   0.00000  Uiso   1.00
C9     C     0.13966   0.96285   0.27286   0.00000  Uiso   1.00
C10    C     0.01295   0.23012   0.07158   0.00000  Uiso   1.00
C11    C     0.06067   0.26463   0.02805   0.00000  Uiso   1.00
C12    C     0.04556   0.24187   0.97046   0.00000  Uiso   1.00
C13    C     0.04521   0.22499   0.87036   0.00000  Uiso   1.00
C14    C     0.90748   0.14460   0.11246   0.00000  Uiso   1.00
C15    C     0.87203   0.21579   0.14332   0.00000  Uiso   1.00
C16    C     0.78934   0.22743   0.15748   0.00000  Uiso   1.00
C17    C     0.76941   0.29641   0.18568   0.00000  Uiso   1.00
C18    C     0.97462   0.11292   0.15309   0.00000  Uiso   1.00
C19    C     0.97819   0.03807   0.17544   0.00000  Uiso   1.00
C20    C     0.04462   0.02045   0.21185   0.00000  Uiso   1.00
C21    C     0.95231   0.17483   0.05805   0.00000  Uiso   1.00
C22    C     0.93713   0.15200   0.00051   0.00000  Uiso   1.00
C23    C     0.98481   0.18648   0.95691   0.00000  Uiso   1.00
H24    H     0.06635   0.28944   0.14789   0.00000  Uiso   1.00
H25    H     0.95982   0.38284   0.19549   0.00000  Uiso   1.00
H26    H     0.14864   0.19350   0.21344   0.00000  Uiso   1.00
H27    H     0.10759   0.30742   0.03853   0.00000  Uiso   1.00
H28    H     0.81497   0.46198   0.24232   0.00000  Uiso   1.00
H29    H     0.21312   0.06275   0.28015   0.00000  Uiso   1.00
H30    H     0.12657   0.30297   0.91133   0.00000  Uiso   1.00
H31    H     0.86027   0.10154   0.10194   0.00000  Uiso   1.00
H32    H     0.74242   0.18463   0.14701   0.00000  Uiso   1.00
H33    H     0.93125   0.99530   0.16497   0.00000  Uiso   1.00
H34    H     0.89020   0.10921   0.99006   0.00000  Uiso   1.00
H35    H     0.63852   0.30111   0.20297   0.00000  Uiso   1.00
H36    H     0.03668   0.90188   0.24081   0.00000  Uiso   1.00
H37    H     0.95012   0.14210   0.87199   0.00000  Uiso   1.00
O38    O     0.65295   0.43958   0.25314   0.00000  Uiso   1.00
O39    O     0.17532   0.91581   0.30278   0.00000  Uiso   1.00
O40    O     0.06176   0.23097   0.81889   0.00000  Uiso   1.00
N41    N     0.78961   0.41273   0.22686   0.00000  Uiso   1.00
N42    N     0.16186   0.03947   0.26224   0.00000  Uiso   1.00
N43    N     0.08095   0.26404   0.91743   0.00000  Uiso   1.00
N44    N     0.69467   0.32616   0.20569   0.00000  Uiso   1.00
N45    N     0.06691   0.95291   0.24107   0.00000  Uiso   1.00
N46    N     0.98601   0.17748   0.89626   0.00000  Uiso   1.00
C47    C     0.48087   0.75360   0.13736   0.00000  Uiso   1.00
C48    C     0.56733   0.72891   0.15684   0.00000  Uiso   1.00
C49    C     0.58713   0.65994   0.18503   0.00000  Uiso   1.00
C50    C     0.66983   0.64820   0.19923   0.00000  Uiso   1.00
C51    C     0.79485   0.60146   0.23156   0.00000  Uiso   1.00
C52    C     0.46474   0.83178   0.16661   0.00000  Uiso   1.00
C53    C     0.39828   0.84930   0.20299   0.00000  Uiso   1.00
C54    C     0.39462   0.92416   0.22540   0.00000  Uiso   1.00
C55    C     0.36034   0.03715   0.27286   0.00000  Uiso   1.00
C56    C     0.48705   0.76988   0.07158   0.00000  Uiso   1.00
C57    C     0.43933   0.73537   0.02805   0.00000  Uiso   1.00
C58    C     0.45444   0.75813   0.97046   0.00000  Uiso   1.00
C59    C     0.45479   0.77501   0.87036   0.00000  Uiso   1.00
C60    C     0.59252   0.85540   0.11246   0.00000  Uiso   1.00
C61    C     0.62797   0.78421   0.14332   0.00000  Uiso   1.00
C62    C     0.71066   0.77257   0.15748   0.00000  Uiso   1.00
C63    C     0.73059   0.70359   0.18568   0.00000  Uiso   1.00
C64    C     0.52538   0.88708   0.15309   0.00000  Uiso   1.00
C65    C     0.52181   0.96193   0.17544   0.00000  Uiso   1.00
C66    C     0.45538   0.97955   0.21185   0.00000  Uiso   1.00
C67    C     0.54769   0.82517   0.05805   0.00000  Uiso   1.00
C68    C     0.56287   0.84800   0.00051   0.00000  Uiso   1.00
C69    C     0.51519   0.81352   0.95691   0.00000  Uiso   1.00
H70    H     0.43365   0.71056   0.14789   0.00000  Uiso   1.00
H71    H     0.54018   0.61716   0.19549   0.00000  Uiso   1.00
H72    H     0.35136   0.80650   0.21344   0.00000  Uiso   1.00
H73    H     0.39241   0.69258   0.03853   0.00000  Uiso   1.00
H74    H     0.68503   0.53802   0.24232   0.00000  Uiso   1.00
H75    H     0.28688   0.93725   0.28015   0.00000  Uiso   1.00
H76    H     0.37343   0.69703   0.91133   0.00000  Uiso   1.00
H77    H     0.63973   0.89846   0.10194   0.00000  Uiso   1.00
H78    H     0.75758   0.81537   0.14701   0.00000  Uiso   1.00
H79    H     0.56875   0.00470   0.16497   0.00000  Uiso   1.00
H80    H     0.60980   0.89079   0.99006   0.00000  Uiso   1.00
H81    H     0.86148   0.69889   0.20297   0.00000  Uiso   1.00
H82    H     0.46332   0.09812   0.24081   0.00000  Uiso   1.00
H83    H     0.54988   0.85790   0.87199   0.00000  Uiso   1.00
O84    O     0.84705   0.56042   0.25314   0.00000  Uiso   1.00
O85    O     0.32468   0.08419   0.30278   0.00000  Uiso   1.00
O86    O     0.43824   0.76903   0.81889   0.00000  Uiso   1.00
N87    N     0.71039   0.58727   0.22686   0.00000  Uiso   1.00
N88    N     0.33814   0.96053   0.26224   0.00000  Uiso   1.00
N89    N     0.41905   0.73596   0.91743   0.00000  Uiso   1.00
N90    N     0.80533   0.67384   0.20569   0.00000  Uiso   1.00
N91    N     0.43309   0.04709   0.24107   0.00000  Uiso   1.00
N92    N     0.51399   0.82252   0.89626   0.00000  Uiso   1.00
C93    C     0.48087   0.74640   0.36264   0.00000  Uiso   1.00
C94    C     0.56733   0.77109   0.34316   0.00000  Uiso   1.00
C95    C     0.58713   0.84006   0.31497   0.00000  Uiso   1.00
C96    C     0.66983   0.85180   0.30077   0.00000  Uiso   1.00
C97    C     0.79485   0.89854   0.26844   0.00000  Uiso   1.00
C98    C     0.46474   0.66822   0.33339   0.00000  Uiso   1.00
C99    C     0.39828   0.65070   0.29701   0.00000  Uiso   1.00
C100   C     0.39462   0.57584   0.27460   0.00000  Uiso   1.00
C101   C     0.36034   0.46285   0.22714   0.00000  Uiso   1.00
C102   C     0.48705   0.73012   0.42842   0.00000  Uiso   1.00
C103   C     0.43933   0.76463   0.47195   0.00000  Uiso   1.00
C104   C     0.45444   0.74187   0.52954   0.00000  Uiso   1.00
C105   C     0.45479   0.72499   0.62964   0.00000  Uiso   1.00
C106   C     0.59252   0.64460   0.38754   0.00000  Uiso   1.00
C107   C     0.62797   0.71579   0.35668   0.00000  Uiso   1.00
C108   C     0.71066   0.72743   0.34252   0.00000  Uiso   1.00
C109   C     0.73059   0.79641   0.31432   0.00000  Uiso   1.00
C110   C     0.52538   0.61292   0.34691   0.00000  Uiso   1.00
C111   C     0.52181   0.53807   0.32456   0.00000  Uiso   1.00
C112   C     0.45538   0.52045   0.28815   0.00000  Uiso   1.00
C113   C     0.54769   0.67483   0.44195   0.00000  Uiso   1.00
C114   C     0.56287   0.65200   0.49949   0.00000  Uiso   1.00
C115   C     0.51519   0.68648   0.54309   0.00000  Uiso   1.00
H116   H     0.43365   0.78944   0.35211   0.00000  Uiso   1.00
H117   H     0.54018   0.88284   0.30451   0.00000  Uiso   1.00
H118   H     0.35136   0.69350   0.28656   0.00000  Uiso   1.00
H119   H     0.39241   0.80742   0.46147   0.00000  Uiso   1.00
H120   H     0.68503   0.96198   0.25768   0.00000  Uiso   1.00
H121   H     0.28688   0.56275   0.21985   0.00000  Uiso   1.00
H122   H     0.37343   0.80297   0.58867   0.00000  Uiso   1.00
H123   H     0.63973   0.60154   0.39806   0.00000  Uiso   1.00
H124   H     0.75758   0.68463   0.35299   0.00000  Uiso   1.00
H125   H     0.56875   0.49530   0.33503   0.00000  Uiso   1.00
H126   H     0.60980   0.60921   0.50994   0.00000  Uiso   1.00
H127   H     0.86148   0.80111   0.29703   0.00000  Uiso   1.00
H128   H     0.46332   0.40188   0.25919   0.00000  Uiso   1.00
H129   H     0.54988   0.64210   0.62801   0.00000  Uiso   1.00
O130   O     0.84705   0.93958   0.24686   0.00000  Uiso   1.00
O131   O     0.32468   0.41581   0.19722   0.00000  Uiso   1.00
O132   O     0.43824   0.73097   0.68111   0.00000  Uiso   1.00
N133   N     0.71039   0.91273   0.27314   0.00000  Uiso   1.00
N134   N     0.33814   0.53947   0.23776   0.00000  Uiso   1.00
N135   N     0.41905   0.76404   0.58257   0.00000  Uiso   1.00
N136   N     0.80533   0.82616   0.29431   0.00000  Uiso   1.00
N137   N     0.43309   0.45291   0.25893   0.00000  Uiso   1.00
N138   N     0.51399   0.67748   0.60374   0.00000  Uiso   1.00
C139   C     0.01913   0.25360   0.36264   0.00000  Uiso   1.00
C140   C     0.93267   0.22891   0.34316   0.00000  Uiso   1.00
C141   C     0.91287   0.15994   0.31497   0.00000  Uiso   1.00
C142   C     0.83017   0.14820   0.30077   0.00000  Uiso   1.00
C143   C     0.70515   0.10146   0.26844   0.00000  Uiso   1.00
C144   C     0.03526   0.33178   0.33339   0.00000  Uiso   1.00
C145   C     0.10172   0.34930   0.29701   0.00000  Uiso   1.00
C146   C     0.10538   0.42416   0.27460   0.00000  Uiso   1.00
C147   C     0.13966   0.53715   0.22714   0.00000  Uiso   1.00
C148   C     0.01295   0.26988   0.42842   0.00000  Uiso   1.00
C149   C     0.06067   0.23537   0.47195   0.00000  Uiso   1.00
C150   C     0.04556   0.25813   0.52954   0.00000  Uiso   1.00
C151   C     0.04521   0.27501   0.62964   0.00000  Uiso   1.00
C152   C     0.90748   0.35540   0.38754   0.00000  Uiso   1.00
C153   C     0.87203   0.28421   0.35668   0.00000  Uiso   1.00
C154   C     0.78934   0.27257   0.34252   0.00000  Uiso   1.00
C155   C     0.76941   0.20359   0.31432   0.00000  Uiso   1.00
C156   C     0.97462   0.38708   0.34691   0.00000  Uiso   1.00
C157   C     0.97819   0.46193   0.32456   0.00000  Uiso   1.00
C158   C     0.04462   0.47955   0.28815   0.00000  Uiso   1.00
C159   C     0.95231   0.32517   0.44195   0.00000  Uiso   1.00
C160   C     0.93713   0.34800   0.49949   0.00000  Uiso   1.00
C161   C     0.98481   0.31352   0.54309   0.00000  Uiso   1.00
H162   H     0.06635   0.21056   0.35211   0.00000  Uiso   1.00
H163   H     0.95982   0.11716   0.30451   0.00000  Uiso   1.00
H164   H     0.14864   0.30650   0.28656   0.00000  Uiso   1.00
H165   H     0.10759   0.19258   0.46147   0.00000  Uiso   1.00
H166   H     0.81497   0.03802   0.25768   0.00000  Uiso   1.00
H167   H     0.21312   0.43725   0.21985   0.00000  Uiso   1.00
H168   H     0.12657   0.19703   0.58867   0.00000  Uiso   1.00
H169   H     0.86027   0.39846   0.39806   0.00000  Uiso   1.00
H170   H     0.74242   0.31537   0.35299   0.00000  Uiso   1.00
H171   H     0.93125   0.50470   0.33503   0.00000  Uiso   1.00
H172   H     0.89020   0.39079   0.50994   0.00000  Uiso   1.00
H173   H     0.63852   0.19889   0.29703   0.00000  Uiso   1.00
H174   H     0.03668   0.59812   0.25919   0.00000  Uiso   1.00
H175   H     0.95012   0.35790   0.62801   0.00000  Uiso   1.00
O176   O     0.65295   0.06042   0.24686   0.00000  Uiso   1.00
O177   O     0.17532   0.58419   0.19722   0.00000  Uiso   1.00
O178   O     0.06176   0.26903   0.68111   0.00000  Uiso   1.00
N179   N     0.78961   0.08727   0.27314   0.00000  Uiso   1.00
N180   N     0.16186   0.46053   0.23776   0.00000  Uiso   1.00
N181   N     0.08095   0.23596   0.58257   0.00000  Uiso   1.00
N182   N     0.69467   0.17384   0.29431   0.00000  Uiso   1.00
N183   N     0.06691   0.54709   0.25893   0.00000  Uiso   1.00
N184   N     0.98601   0.32252   0.60374   0.00000  Uiso   1.00
C185   C     0.98087   0.75360   0.86264   0.00000  Uiso   1.00
C186   C     0.06733   0.72891   0.84316   0.00000  Uiso   1.00
C187   C     0.08713   0.65994   0.81497   0.00000  Uiso   1.00
C188   C     0.16983   0.64820   0.80077   0.00000  Uiso   1.00
C189   C     0.29485   0.60146   0.76844   0.00000  Uiso   1.00
C190   C     0.96474   0.83178   0.83339   0.00000  Uiso   1.00
C191   C     0.89828   0.84930   0.79701   0.00000  Uiso   1.00
C192   C     0.89462   0.92416   0.77460   0.00000  Uiso   1.00
C193   C     0.86034   0.03715   0.72714   0.00000  Uiso   1.00
C194   C     0.98705   0.76988   0.92842   0.00000  Uiso   1.00
C195   C     0.93933   0.73537   0.97195   0.00000  Uiso   1.00
C196   C     0.95444   0.75813   0.02954   0.00000  Uiso   1.00
C197   C     0.95479   0.77501   0.12964   0.00000  Uiso   1.00
C198   C     0.09252   0.85540   0.88754   0.00000  Uiso   1.00
C199   C     0.12797   0.78421   0.85668   0.00000  Uiso   1.00
C200   C     0.21066   0.77257   0.84252   0.00000  Uiso   1.00
C201   C     0.23059   0.70359   0.81432   0.00000  Uiso   1.00
C202   C     0.02538   0.88708   0.84691   0.00000  Uiso   1.00
C203   C     0.02181   0.96193   0.82456   0.00000  Uiso   1.00
C204   C     0.95538   0.97955   0.78815   0.00000  Uiso   1.00
C205   C     0.04769   0.82517   0.94195   0.00000  Uiso   1.00
C206   C     0.06287   0.84800   0.99949   0.00000  Uiso   1.00
C207   C     0.01519   0.81352   0.04309   0.00000  Uiso   1.00
H208   H     0.93365   0.71056   0.85211   0.00000  Uiso   1.00
H209   H     0.04018   0.61716   0.80451   0.00000  Uiso   1.00
H210   H     0.85136   0.80650   0.78656   0.00000  Uiso   1.00
H211   H     0.89241   0.69258   0.96147   0.00000  Uiso   1.00
H212   H     0.18503   0.53802   0.75768   0.00000  Uiso   1.00
H213   H     0.78688   0.93725   0.71985   0.00000  Uiso   1.00
H214   H     0.87343   0.69703   0.08867   0.00000  Uiso   1.00
H215   H     0.13973   0.89846   0.89806   0.00000  Uiso   1.00
H216   H     0.25758   0.81537   0.85299   0.00000  Uiso   1.00
H217   H     0.06875   0.00470   0.83503   0.00000  Uiso   1.00
H218   H     0.10980   0.89079   0.00994   0.00000  Uiso   1.00
H219   H     0.36148   0.69889   0.79703   0.00000  Uiso   1.00
H220   H     0.96332   0.09812   0.75919   0.00000  Uiso   1.00
H221   H     0.04988   0.85790   0.12801   0.00000  Uiso   1.00
O222   O     0.34705   0.56042   0.74686   0.00000  Uiso   1.00
O223   O     0.82468   0.08419   0.69722   0.00000  Uiso   1.00
O224   O     0.93824   0.76903   0.18111   0.00000  Uiso   1.00
N225   N     0.21039   0.58727   0.77314   0.00000  Uiso   1.00
N226   N     0.83814   0.96053   0.73776   0.00000  Uiso   1.00
N227   N     0.91905   0.73596   0.08257   0.00000  Uiso   1.00
N228   N     0.30533   0.67384   0.79431   0.00000  Uiso   1.00
N229   N     0.93309   0.04709   0.75893   0.00000  Uiso   1.00
N230   N     0.01399   0.82252   0.10374   0.00000  Uiso   1.00
C231   C     0.51913   0.24640   0.86264   0.00000  Uiso   1.00
C232   C     0.43267   0.27109   0.84316   0.00000  Uiso   1.00
C233   C     0.41287   0.34006   0.81497   0.00000  Uiso   1.00
C234   C     0.33017   0.35180   0.80077   0.00000  Uiso   1.00
C235   C     0.20515   0.39854   0.76844   0.00000  Uiso   1.00
C236   C     0.53526   0.16822   0.83339   0.00000  Uiso   1.00
C237   C     0.60172   0.15070   0.79701   0.00000  Uiso   1.00
C238   C     0.60538   0.07584   0.77460   0.00000  Uiso   1.00
C239   C     0.63966   0.96285   0.72714   0.00000  Uiso   1.00
C240   C     0.51295   0.23012   0.92842   0.00000  Uiso   1.00
C241   C     0.56067   0.26463   0.97195   0.00000  Uiso   1.00
C242   C     0.54556   0.24187   0.02954   0.00000  Uiso   1.00
C243   C     0.54521   0.22499   0.12964   0.00000  Uiso   1.00
C244   C     0.40748   0.14460   0.88754   0.00000  Uiso   1.00
C245   C     0.37203   0.21579   0.85668   0.00000  Uiso   1.00
C246   C     0.28934   0.22743   0.84252   0.00000  Uiso   1.00
C247   C     0.26941   0.29641   0.81432   0.00000  Uiso   1.00
C248   C     0.47462   0.11292   0.84691   0.00000  Uiso   1.00
C249   C     0.47819   0.03807   0.82456   0.00000  Uiso   1.00
C250   C     0.54462   0.02045   0.78815   0.00000  Uiso   1.00
C251   C     0.45231   0.17483   0.94195   0.00000  Uiso   1.00
C252   C     0.43713   0.15200   0.99949   0.00000  Uiso   1.00
C253   C     0.48481   0.18648   0.04309   0.00000  Uiso   1.00
H254   H     0.56635   0.28944   0.85211   0.00000  Uiso   1.00
H255   H     0.45982   0.38284   0.80451   0.00000  Uiso   1.00
H256   H     0.64864   0.19350   0.78656   0.00000  Uiso   1.00
H257   H     0.60759   0.30742   0.96147   0.00000  Uiso   1.00
H258   H     0.31497   0.46198   0.75768   0.00000  Uiso   1.00
H259   H     0.71312   0.06275   0.71985   0.00000  Uiso   1.00
H260   H     0.62657   0.30297   0.08867   0.00000  Uiso   1.00
H261   H     0.36027   0.10154   0.89806   0.00000  Uiso   1.00
H262   H     0.24242   0.18463   0.85299   0.00000  Uiso   1.00
H263   H     0.43125   0.99530   0.83503   0.00000  Uiso   1.00
H264   H     0.39020   0.10921   0.00994   0.00000  Uiso   1.00
H265   H     0.13852   0.30111   0.79703   0.00000  Uiso   1.00
H266   H     0.53668   0.90188   0.75919   0.00000  Uiso   1.00
H267   H     0.45012   0.14210   0.12801   0.00000  Uiso   1.00
O268   O     0.15295   0.43958   0.74686   0.00000  Uiso   1.00
O269   O     0.67532   0.91581   0.69722   0.00000  Uiso   1.00
O270   O     0.56176   0.23097   0.18111   0.00000  Uiso   1.00
N271   N     0.28961   0.41273   0.77314   0.00000  Uiso   1.00
N272   N     0.66186   0.03947   0.73776   0.00000  Uiso   1.00
N273   N     0.58095   0.26404   0.08257   0.00000  Uiso   1.00
N274   N     0.19467   0.32616   0.79431   0.00000  Uiso   1.00
N275   N     0.56691   0.95291   0.75893   0.00000  Uiso   1.00
N276   N     0.48601   0.17748   0.10374   0.00000  Uiso   1.00
C277   C     0.51913   0.25360   0.63736   0.00000  Uiso   1.00
C278   C     0.43267   0.22891   0.65684   0.00000  Uiso   1.00
C279   C     0.41287   0.15994   0.68503   0.00000  Uiso   1.00
C280   C     0.33017   0.14820   0.69923   0.00000  Uiso   1.00
C281   C     0.20515   0.10146   0.73156   0.00000  Uiso   1.00
C282   C     0.53526   0.33178   0.66661   0.00000  Uiso   1.00
C283   C     0.60172   0.34930   0.70299   0.00000  Uiso   1.00
C284   C     0.60538   0.42416   0.72540   0.00000  Uiso   1.00
C285   C     0.63966   0.53715   0.77286   0.00000  Uiso   1.00
C286   C     0.51295   0.26988   0.57158   0.00000  Uiso   1.00
C287   C     0.56067   0.23537   0.52805   0.00000  Uiso   1.00
C288   C     0.54556   0.25813   0.47046   0.00000  Uiso   1.00
C289   C     0.54521   0.27501   0.37036   0.00000  Uiso   1.00
C290   C     0.40748   0.35540   0.61246   0.00000  Uiso   1.00
C291   C     0.37203   0.28421   0.64332   0.00000  Uiso   1.00
C292   C     0.28934   0.27257   0.65748   0.00000  Uiso   1.00
C293   C     0.26941   0.20359   0.68568   0.00000  Uiso   1.00
C294   C     0.47462   0.38708   0.65309   0.00000  Uiso   1.00
C295   C     0.47819   0.46193   0.67544   0.00000  Uiso   1.00
C296   C     0.54462   0.47955   0.71185   0.00000  Uiso   1.00
C297   C     0.45231   0.32517   0.55805   0.00000  Uiso   1.00
C298   C     0.43713   0.34800   0.50051   0.00000  Uiso   1.00
C299   C     0.48481   0.31352   0.45691   0.00000  Uiso   1.00
H300   H     0.56635   0.21056   0.64789   0.00000  Uiso   1.00
H301   H     0.45982   0.11716   0.69549   0.00000  Uiso   1.00
H302   H     0.64864   0.30650   0.71344   0.00000  Uiso   1.00
H303   H     0.60759   0.19258   0.53853   0.00000  Uiso   1.00
H304   H     0.31497   0.03802   0.74232   0.00000  Uiso   1.00
H305   H     0.71312   0.43725   0.78015   0.00000  Uiso   1.00
H306   H     0.62657   0.19703   0.41133   0.00000  Uiso   1.00
H307   H     0.36027   0.39846   0.60194   0.00000  Uiso   1.00
H308   H     0.24242   0.31537   0.64701   0.00000  Uiso   1.00
H309   H     0.43125   0.50470   0.66497   0.00000  Uiso   1.00
H310   H     0.39020   0.39079   0.49006   0.00000  Uiso   1.00
H311   H     0.13852   0.19889   0.70297   0.00000  Uiso   1.00
H312   H     0.53668   0.59812   0.74081   0.00000  Uiso   1.00
H313   H     0.45012   0.35790   0.37199   0.00000  Uiso   1.00
O314   O     0.15295   0.06042   0.75314   0.00000  Uiso   1.00
O315   O     0.67532   0.58419   0.80278   0.00000  Uiso   1.00
O316   O     0.56176   0.26903   0.31889   0.00000  Uiso   1.00
N317   N     0.28961   0.08727   0.72686   0.00000  Uiso   1.00
N318   N     0.66186   0.46053   0.76224   0.00000  Uiso   1.00
N319   N     0.58095   0.23596   0.41743   0.00000  Uiso   1.00
N320   N     0.19467   0.17384   0.70569   0.00000  Uiso   1.00
N321   N     0.56691   0.54709   0.74107   0.00000  Uiso   1.00
N322   N     0.48601   0.32252   0.39626   0.00000  Uiso   1.00
C323   C     0.98087   0.74640   0.63736   0.00000  Uiso   1.00
C324   C     0.06733   0.77109   0.65684   0.00000  Uiso   1.00
C325   C     0.08713   0.84006   0.68503   0.00000  Uiso   1.00
C326   C     0.16983   0.85180   0.69923   0.00000  Uiso   1.00
C327   C     0.29485   0.89854   0.73156   0.00000  Uiso   1.00
C328   C     0.96474   0.66822   0.66661   0.00000  Uiso   1.00
C329   C     0.89828   0.65070   0.70299   0.00000  Uiso   1.00
C330   C     0.89462   0.57584   0.72540   0.00000  Uiso   1.00
C331   C     0.86034   0.46285   0.77286   0.00000  Uiso   1.00
C332   C     0.98705   0.73012   0.57158   0.00000  Uiso   1.00
C333   C     0.93933   0.76463   0.52805   0.00000  Uiso   1.00
C334   C     0.95444   0.74187   0.47046   0.00000  Uiso   1.00
C335   C     0.95479   0.72499   0.37036   0.00000  Uiso   1.00
C336   C     0.09252   0.64460   0.61246   0.00000  Uiso   1.00
C337   C     0.12797   0.71579   0.64332   0.00000  Uiso   1.00
C338   C     0.21066   0.72743   0.65748   0.00000  Uiso   1.00
C339   C     0.23059   0.79641   0.68568   0.00000  Uiso   1.00
C340   C     0.02538   0.61292   0.65309   0.00000  Uiso   1.00
C341   C     0.02181   0.53807   0.67544   0.00000  Uiso   1.00
C342   C     0.95538   0.52045   0.71185   0.00000  Uiso   1.00
C343   C     0.04769   0.67483   0.55805   0.00000  Uiso   1.00
C344   C     0.06287   0.65200   0.50051   0.00000  Uiso   1.00
C345   C     0.01519   0.68648   0.45691   0.00000  Uiso   1.00
H346   H     0.93365   0.78944   0.64789   0.00000  Uiso   1.00
H347   H     0.04018   0.88284   0.69549   0.00000  Uiso   1.00
H348   H     0.85136   0.69350   0.71344   0.00000  Uiso   1.00
H349   H     0.89241   0.80742   0.53853   0.00000  Uiso   1.00
H350   H     0.18503   0.96198   0.74232   0.00000  Uiso   1.00
H351   H     0.78688   0.56275   0.78015   0.00000  Uiso   1.00
H352   H     0.87343   0.80297   0.41133   0.00000  Uiso   1.00
H353   H     0.13973   0.60154   0.60194   0.00000  Uiso   1.00
H354   H     0.25758   0.68463   0.64701   0.00000  Uiso   1.00
H355   H     0.06875   0.49530   0.66497   0.00000  Uiso   1.00
H356   H     0.10980   0.60921   0.49006   0.00000  Uiso   1.00
H357   H     0.36148   0.80111   0.70297   0.00000  Uiso   1.00
H358   H     0.96332   0.40188   0.74081   0.00000  Uiso   1.00
H359   H     0.04988   0.64210   0.37199   0.00000  Uiso   1.00
O360   O     0.34705   0.93958   0.75314   0.00000  Uiso   1.00
O361   O     0.82468   0.41581   0.80278   0.00000  Uiso   1.00
O362   O     0.93824   0.73097   0.31889   0.00000  Uiso   1.00
N363   N     0.21039   0.91273   0.72686   0.00000  Uiso   1.00
N364   N     0.83814   0.53947   0.76224   0.00000  Uiso   1.00
N365   N     0.91905   0.76404   0.41743   0.00000  Uiso   1.00
N366   N     0.30533   0.82616   0.70569   0.00000  Uiso   1.00
N367   N     0.93309   0.45291   0.74107   0.00000  Uiso   1.00
N368   N     0.01399   0.67748   0.39626   0.00000  Uiso   1.00
