data_job_03125
_audit_creation_date              2018-12-19
_audit_creation_method            'Materials Studio'
_symmetry_space_group_name_H-M    'P1'
_symmetry_Int_Tables_number       1
_symmetry_cell_setting            triclinic
loop_
_symmetry_equiv_pos_as_xyz
  x,y,z
_cell_length_a                    28.4484
_cell_length_b                    12.3381
_cell_length_c                    22.4228
_cell_angle_alpha                 90.0000
_cell_angle_beta                  90.0000
_cell_angle_gamma                 90.0000
loop_
_atom_site_label
_atom_site_type_symbol
_atom_site_fract_x
_atom_site_fract_y
_atom_site_fract_z
_atom_site_U_iso_or_equiv
_atom_site_adp_type
_atom_site_occupancy
C1     C     0.79571   0.65412   0.43442   0.00000  Uiso   1.00
C2     C     0.83699   0.72864   0.44859   0.00000  Uiso   1.00
C3     C     0.83527   0.82004   0.48459   0.00000  Uiso   1.00
C4     C     0.87685   0.87740   0.49200   0.00000  Uiso   1.00
C5     C     0.93459   0.99815   0.51818   0.00000  Uiso   1.00
C6     C     0.79185   0.65147   0.36660   0.00000  Uiso   1.00
C7     C     0.75217   0.67797   0.33367   0.00000  Uiso   1.00
C8     C     0.75575   0.67035   0.27206   0.00000  Uiso   1.00
C9     C     0.74339   0.67122   0.17096   0.00000  Uiso   1.00
C10    C     0.81099   0.54068   0.45320   0.00000  Uiso   1.00
C11    C     0.78740   0.47401   0.49306   0.00000  Uiso   1.00
C12    C     0.80709   0.37310   0.50435   0.00000  Uiso   1.00
C13    C     0.82445   0.20196   0.53770   0.00000  Uiso   1.00
C14    C     0.87261   0.59344   0.38355   0.00000  Uiso   1.00
C15    C     0.87876   0.69568   0.42096   0.00000  Uiso   1.00
C16    C     0.92035   0.75291   0.42831   0.00000  Uiso   1.00
C17    C     0.91869   0.84438   0.46432   0.00000  Uiso   1.00
C18    C     0.83362   0.61851   0.33897   0.00000  Uiso   1.00
C19    C     0.83725   0.61084   0.27739   0.00000  Uiso   1.00
C20    C     0.79760   0.63734   0.24438   0.00000  Uiso   1.00
C21    C     0.85276   0.50772   0.42557   0.00000  Uiso   1.00
C22    C     0.87249   0.40689   0.43679   0.00000  Uiso   1.00
C23    C     0.84894   0.34009   0.47667   0.00000  Uiso   1.00
H24    H     0.76319   0.67977   0.45592   0.00000  Uiso   1.00
H25    H     0.80293   0.84552   0.50596   0.00000  Uiso   1.00
H26    H     0.71985   0.70346   0.35507   0.00000  Uiso   1.00
H27    H     0.75508   0.49954   0.51444   0.00000  Uiso   1.00
H28    H     0.86542   0.01477   0.54924   0.00000  Uiso   1.00
H29    H     0.69023   0.71520   0.23107   0.00000  Uiso   1.00
H30    H     0.76451   0.28519   0.56713   0.00000  Uiso   1.00
H31    H     0.90513   0.56779   0.36204   0.00000  Uiso   1.00
H32    H     0.95267   0.72739   0.40693   0.00000  Uiso   1.00
H33    H     0.86958   0.58533   0.25603   0.00000  Uiso   1.00
H34    H     0.90481   0.38141   0.41540   0.00000  Uiso   1.00
H35    H     0.98695   0.91890   0.46885   0.00000  Uiso   1.00
H36    H     0.81175   0.61932   0.15068   0.00000  Uiso   1.00
H37    H     0.88604   0.18931   0.48674   0.00000  Uiso   1.00
O38    O     0.95489   0.07387   0.54025   0.00000  Uiso   1.00
O39    O     0.72504   0.68082   0.12283   0.00000  Uiso   1.00
O40    O     0.82250   0.11666   0.56373   0.00000  Uiso   1.00
N41    N     0.88750   0.97029   0.52417   0.00000  Uiso   1.00
N42    N     0.72371   0.69022   0.22670   0.00000  Uiso   1.00
N43    N     0.79315   0.28819   0.54087   0.00000  Uiso   1.00
N44    N     0.95289   0.91870   0.48092   0.00000  Uiso   1.00
N45    N     0.78910   0.63863   0.18344   0.00000  Uiso   1.00
N46    N     0.85854   0.23660   0.49762   0.00000  Uiso   1.00
C47    C     0.70429   0.84588   0.93442   0.00000  Uiso   1.00
C48    C     0.66301   0.77136   0.94859   0.00000  Uiso   1.00
C49    C     0.66473   0.67996   0.98459   0.00000  Uiso   1.00
C50    C     0.62315   0.62260   0.99200   0.00000  Uiso   1.00
C51    C     0.56541   0.50185   0.01818   0.00000  Uiso   1.00
C52    C     0.70815   0.84853   0.86660   0.00000  Uiso   1.00
C53    C     0.74783   0.82203   0.83367   0.00000  Uiso   1.00
C54    C     0.74425   0.82965   0.77206   0.00000  Uiso   1.00
C55    C     0.75661   0.82878   0.67096   0.00000  Uiso   1.00
C56    C     0.68901   0.95932   0.95320   0.00000  Uiso   1.00
C57    C     0.71260   0.02599   0.99306   0.00000  Uiso   1.00
C58    C     0.69291   0.12690   0.00435   0.00000  Uiso   1.00
C59    C     0.67555   0.29804   0.03770   0.00000  Uiso   1.00
C60    C     0.62739   0.90656   0.88355   0.00000  Uiso   1.00
C61    C     0.62124   0.80432   0.92096   0.00000  Uiso   1.00
C62    C     0.57965   0.74709   0.92831   0.00000  Uiso   1.00
C63    C     0.58131   0.65562   0.96432   0.00000  Uiso   1.00
C64    C     0.66638   0.88149   0.83897   0.00000  Uiso   1.00
C65    C     0.66275   0.88916   0.77739   0.00000  Uiso   1.00
C66    C     0.70240   0.86266   0.74438   0.00000  Uiso   1.00
C67    C     0.64724   0.99228   0.92557   0.00000  Uiso   1.00
C68    C     0.62751   0.09311   0.93679   0.00000  Uiso   1.00
C69    C     0.65106   0.15991   0.97667   0.00000  Uiso   1.00
H70    H     0.73681   0.82023   0.95592   0.00000  Uiso   1.00
H71    H     0.69707   0.65448   0.00596   0.00000  Uiso   1.00
H72    H     0.78015   0.79654   0.85507   0.00000  Uiso   1.00
H73    H     0.74492   0.00046   0.01444   0.00000  Uiso   1.00
H74    H     0.63458   0.48523   0.04924   0.00000  Uiso   1.00
H75    H     0.80977   0.78480   0.73107   0.00000  Uiso   1.00
H76    H     0.73549   0.21481   0.06713   0.00000  Uiso   1.00
H77    H     0.59487   0.93221   0.86204   0.00000  Uiso   1.00
H78    H     0.54733   0.77261   0.90693   0.00000  Uiso   1.00
H79    H     0.63042   0.91467   0.75603   0.00000  Uiso   1.00
H80    H     0.59519   0.11859   0.91540   0.00000  Uiso   1.00
H81    H     0.51305   0.58110   0.96885   0.00000  Uiso   1.00
H82    H     0.68825   0.88068   0.65068   0.00000  Uiso   1.00
H83    H     0.61396   0.31069   0.98674   0.00000  Uiso   1.00
O84    O     0.54511   0.42613   0.04025   0.00000  Uiso   1.00
O85    O     0.77496   0.81918   0.62283   0.00000  Uiso   1.00
O86    O     0.67750   0.38334   0.06373   0.00000  Uiso   1.00
N87    N     0.61250   0.52971   0.02417   0.00000  Uiso   1.00
N88    N     0.77629   0.80978   0.72670   0.00000  Uiso   1.00
N89    N     0.70685   0.21181   0.04087   0.00000  Uiso   1.00
N90    N     0.54711   0.58130   0.98092   0.00000  Uiso   1.00
N91    N     0.71090   0.86137   0.68344   0.00000  Uiso   1.00
N92    N     0.64146   0.26340   0.99762   0.00000  Uiso   1.00
C93    C     0.20429   0.65412   0.06558   0.00000  Uiso   1.00
C94    C     0.16301   0.72864   0.05141   0.00000  Uiso   1.00
C95    C     0.16473   0.82004   0.01541   0.00000  Uiso   1.00
C96    C     0.12315   0.87740   0.00800   0.00000  Uiso   1.00
C97    C     0.06541   0.99815   0.98182   0.00000  Uiso   1.00
C98    C     0.20815   0.65147   0.13340   0.00000  Uiso   1.00
C99    C     0.24783   0.67797   0.16633   0.00000  Uiso   1.00
C100   C     0.24425   0.67035   0.22794   0.00000  Uiso   1.00
C101   C     0.25661   0.67122   0.32904   0.00000  Uiso   1.00
C102   C     0.18901   0.54068   0.04680   0.00000  Uiso   1.00
C103   C     0.21260   0.47401   0.00694   0.00000  Uiso   1.00
C104   C     0.19291   0.37310   0.99565   0.00000  Uiso   1.00
C105   C     0.17555   0.20196   0.96230   0.00000  Uiso   1.00
C106   C     0.12739   0.59344   0.11645   0.00000  Uiso   1.00
C107   C     0.12124   0.69568   0.07904   0.00000  Uiso   1.00
C108   C     0.07965   0.75291   0.07169   0.00000  Uiso   1.00
C109   C     0.08131   0.84438   0.03568   0.00000  Uiso   1.00
C110   C     0.16638   0.61851   0.16103   0.00000  Uiso   1.00
C111   C     0.16275   0.61084   0.22261   0.00000  Uiso   1.00
C112   C     0.20240   0.63734   0.25562   0.00000  Uiso   1.00
C113   C     0.14724   0.50772   0.07443   0.00000  Uiso   1.00
C114   C     0.12751   0.40689   0.06321   0.00000  Uiso   1.00
C115   C     0.15106   0.34009   0.02333   0.00000  Uiso   1.00
H116   H     0.23681   0.67977   0.04408   0.00000  Uiso   1.00
H117   H     0.19707   0.84552   0.99404   0.00000  Uiso   1.00
H118   H     0.28015   0.70346   0.14493   0.00000  Uiso   1.00
H119   H     0.24492   0.49954   0.98556   0.00000  Uiso   1.00
H120   H     0.13458   0.01477   0.95076   0.00000  Uiso   1.00
H121   H     0.30977   0.71520   0.26893   0.00000  Uiso   1.00
H122   H     0.23549   0.28519   0.93287   0.00000  Uiso   1.00
H123   H     0.09487   0.56779   0.13796   0.00000  Uiso   1.00
H124   H     0.04733   0.72739   0.09307   0.00000  Uiso   1.00
H125   H     0.13042   0.58533   0.24397   0.00000  Uiso   1.00
H126   H     0.09519   0.38141   0.08460   0.00000  Uiso   1.00
H127   H     0.01305   0.91890   0.03115   0.00000  Uiso   1.00
H128   H     0.18825   0.61932   0.34932   0.00000  Uiso   1.00
H129   H     0.11396   0.18931   0.01326   0.00000  Uiso   1.00
O130   O     0.04511   0.07387   0.95975   0.00000  Uiso   1.00
O131   O     0.27496   0.68082   0.37717   0.00000  Uiso   1.00
O132   O     0.17750   0.11666   0.93627   0.00000  Uiso   1.00
N133   N     0.11250   0.97029   0.97583   0.00000  Uiso   1.00
N134   N     0.27629   0.69022   0.27330   0.00000  Uiso   1.00
N135   N     0.20685   0.28819   0.95913   0.00000  Uiso   1.00
N136   N     0.04711   0.91870   0.01908   0.00000  Uiso   1.00
N137   N     0.21090   0.63863   0.31656   0.00000  Uiso   1.00
N138   N     0.14146   0.23660   0.00238   0.00000  Uiso   1.00
C139   C     0.29571   0.84588   0.56558   0.00000  Uiso   1.00
C140   C     0.33699   0.77136   0.55141   0.00000  Uiso   1.00
C141   C     0.33527   0.67996   0.51541   0.00000  Uiso   1.00
C142   C     0.37685   0.62260   0.50800   0.00000  Uiso   1.00
C143   C     0.43459   0.50185   0.48182   0.00000  Uiso   1.00
C144   C     0.29185   0.84853   0.63340   0.00000  Uiso   1.00
C145   C     0.25217   0.82203   0.66633   0.00000  Uiso   1.00
C146   C     0.25575   0.82965   0.72794   0.00000  Uiso   1.00
C147   C     0.24339   0.82878   0.82904   0.00000  Uiso   1.00
C148   C     0.31099   0.95932   0.54680   0.00000  Uiso   1.00
C149   C     0.28740   0.02599   0.50694   0.00000  Uiso   1.00
C150   C     0.30709   0.12690   0.49565   0.00000  Uiso   1.00
C151   C     0.32445   0.29804   0.46230   0.00000  Uiso   1.00
C152   C     0.37261   0.90656   0.61645   0.00000  Uiso   1.00
C153   C     0.37876   0.80432   0.57904   0.00000  Uiso   1.00
C154   C     0.42035   0.74709   0.57169   0.00000  Uiso   1.00
C155   C     0.41869   0.65562   0.53568   0.00000  Uiso   1.00
C156   C     0.33362   0.88149   0.66103   0.00000  Uiso   1.00
C157   C     0.33725   0.88916   0.72261   0.00000  Uiso   1.00
C158   C     0.29760   0.86266   0.75562   0.00000  Uiso   1.00
C159   C     0.35276   0.99228   0.57443   0.00000  Uiso   1.00
C160   C     0.37249   0.09311   0.56321   0.00000  Uiso   1.00
C161   C     0.34894   0.15991   0.52333   0.00000  Uiso   1.00
H162   H     0.26319   0.82023   0.54408   0.00000  Uiso   1.00
H163   H     0.30293   0.65448   0.49404   0.00000  Uiso   1.00
H164   H     0.21985   0.79654   0.64493   0.00000  Uiso   1.00
H165   H     0.25508   0.00046   0.48556   0.00000  Uiso   1.00
H166   H     0.36542   0.48523   0.45076   0.00000  Uiso   1.00
H167   H     0.19023   0.78480   0.76893   0.00000  Uiso   1.00
H168   H     0.26451   0.21481   0.43287   0.00000  Uiso   1.00
H169   H     0.40513   0.93221   0.63796   0.00000  Uiso   1.00
H170   H     0.45267   0.77261   0.59307   0.00000  Uiso   1.00
H171   H     0.36958   0.91467   0.74397   0.00000  Uiso   1.00
H172   H     0.40481   0.11859   0.58460   0.00000  Uiso   1.00
H173   H     0.48695   0.58110   0.53115   0.00000  Uiso   1.00
H174   H     0.31175   0.88068   0.84932   0.00000  Uiso   1.00
H175   H     0.38604   0.31069   0.51326   0.00000  Uiso   1.00
O176   O     0.45489   0.42613   0.45975   0.00000  Uiso   1.00
O177   O     0.22504   0.81918   0.87717   0.00000  Uiso   1.00
O178   O     0.32250   0.38334   0.43627   0.00000  Uiso   1.00
N179   N     0.38750   0.52971   0.47583   0.00000  Uiso   1.00
N180   N     0.22371   0.80978   0.77330   0.00000  Uiso   1.00
N181   N     0.29315   0.21181   0.45913   0.00000  Uiso   1.00
N182   N     0.45289   0.58130   0.51908   0.00000  Uiso   1.00
N183   N     0.28910   0.86137   0.81656   0.00000  Uiso   1.00
N184   N     0.35854   0.26340   0.50238   0.00000  Uiso   1.00
C185   C     0.20429   0.34588   0.56558   0.00000  Uiso   1.00
C186   C     0.16301   0.27136   0.55141   0.00000  Uiso   1.00
C187   C     0.16473   0.17996   0.51541   0.00000  Uiso   1.00
C188   C     0.12315   0.12260   0.50800   0.00000  Uiso   1.00
C189   C     0.06541   0.00185   0.48182   0.00000  Uiso   1.00
C190   C     0.20815   0.34853   0.63340   0.00000  Uiso   1.00
C191   C     0.24783   0.32203   0.66633   0.00000  Uiso   1.00
C192   C     0.24425   0.32965   0.72794   0.00000  Uiso   1.00
C193   C     0.25661   0.32878   0.82904   0.00000  Uiso   1.00
C194   C     0.18901   0.45932   0.54680   0.00000  Uiso   1.00
C195   C     0.21260   0.52599   0.50694   0.00000  Uiso   1.00
C196   C     0.19291   0.62690   0.49565   0.00000  Uiso   1.00
C197   C     0.17555   0.79804   0.46230   0.00000  Uiso   1.00
C198   C     0.12739   0.40656   0.61645   0.00000  Uiso   1.00
C199   C     0.12124   0.30432   0.57904   0.00000  Uiso   1.00
C200   C     0.07965   0.24709   0.57169   0.00000  Uiso   1.00
C201   C     0.08131   0.15562   0.53568   0.00000  Uiso   1.00
C202   C     0.16638   0.38149   0.66103   0.00000  Uiso   1.00
C203   C     0.16275   0.38916   0.72261   0.00000  Uiso   1.00
C204   C     0.20240   0.36266   0.75562   0.00000  Uiso   1.00
C205   C     0.14724   0.49228   0.57443   0.00000  Uiso   1.00
C206   C     0.12751   0.59311   0.56321   0.00000  Uiso   1.00
C207   C     0.15106   0.65991   0.52333   0.00000  Uiso   1.00
H208   H     0.23681   0.32023   0.54408   0.00000  Uiso   1.00
H209   H     0.19707   0.15448   0.49404   0.00000  Uiso   1.00
H210   H     0.28015   0.29654   0.64493   0.00000  Uiso   1.00
H211   H     0.24492   0.50046   0.48556   0.00000  Uiso   1.00
H212   H     0.13458   0.98523   0.45076   0.00000  Uiso   1.00
H213   H     0.30977   0.28480   0.76893   0.00000  Uiso   1.00
H214   H     0.23549   0.71481   0.43287   0.00000  Uiso   1.00
H215   H     0.09487   0.43221   0.63796   0.00000  Uiso   1.00
H216   H     0.04733   0.27261   0.59307   0.00000  Uiso   1.00
H217   H     0.13042   0.41467   0.74397   0.00000  Uiso   1.00
H218   H     0.09519   0.61859   0.58460   0.00000  Uiso   1.00
H219   H     0.01305   0.08110   0.53115   0.00000  Uiso   1.00
H220   H     0.18825   0.38068   0.84932   0.00000  Uiso   1.00
H221   H     0.11396   0.81069   0.51326   0.00000  Uiso   1.00
O222   O     0.04511   0.92613   0.45975   0.00000  Uiso   1.00
O223   O     0.27496   0.31918   0.87717   0.00000  Uiso   1.00
O224   O     0.17750   0.88334   0.43627   0.00000  Uiso   1.00
N225   N     0.11250   0.02971   0.47583   0.00000  Uiso   1.00
N226   N     0.27629   0.30978   0.77330   0.00000  Uiso   1.00
N227   N     0.20685   0.71181   0.45913   0.00000  Uiso   1.00
N228   N     0.04711   0.08130   0.51908   0.00000  Uiso   1.00
N229   N     0.21090   0.36137   0.81656   0.00000  Uiso   1.00
N230   N     0.14146   0.76340   0.50238   0.00000  Uiso   1.00
C231   C     0.29571   0.15412   0.06558   0.00000  Uiso   1.00
C232   C     0.33699   0.22864   0.05141   0.00000  Uiso   1.00
C233   C     0.33527   0.32004   0.01541   0.00000  Uiso   1.00
C234   C     0.37685   0.37740   0.00800   0.00000  Uiso   1.00
C235   C     0.43459   0.49815   0.98182   0.00000  Uiso   1.00
C236   C     0.29185   0.15147   0.13340   0.00000  Uiso   1.00
C237   C     0.25217   0.17797   0.16633   0.00000  Uiso   1.00
C238   C     0.25575   0.17035   0.22794   0.00000  Uiso   1.00
C239   C     0.24339   0.17122   0.32904   0.00000  Uiso   1.00
C240   C     0.31099   0.04068   0.04680   0.00000  Uiso   1.00
C241   C     0.28740   0.97401   0.00694   0.00000  Uiso   1.00
C242   C     0.30709   0.87310   0.99565   0.00000  Uiso   1.00
C243   C     0.32445   0.70196   0.96230   0.00000  Uiso   1.00
C244   C     0.37261   0.09344   0.11645   0.00000  Uiso   1.00
C245   C     0.37876   0.19568   0.07904   0.00000  Uiso   1.00
C246   C     0.42035   0.25291   0.07169   0.00000  Uiso   1.00
C247   C     0.41869   0.34438   0.03568   0.00000  Uiso   1.00
C248   C     0.33362   0.11851   0.16103   0.00000  Uiso   1.00
C249   C     0.33725   0.11084   0.22261   0.00000  Uiso   1.00
C250   C     0.29760   0.13734   0.25562   0.00000  Uiso   1.00
C251   C     0.35276   0.00772   0.07443   0.00000  Uiso   1.00
C252   C     0.37249   0.90689   0.06321   0.00000  Uiso   1.00
C253   C     0.34894   0.84009   0.02333   0.00000  Uiso   1.00
H254   H     0.26319   0.17977   0.04408   0.00000  Uiso   1.00
H255   H     0.30293   0.34552   0.99404   0.00000  Uiso   1.00
H256   H     0.21985   0.20346   0.14493   0.00000  Uiso   1.00
H257   H     0.25508   0.99954   0.98556   0.00000  Uiso   1.00
H258   H     0.36542   0.51477   0.95076   0.00000  Uiso   1.00
H259   H     0.19023   0.21520   0.26893   0.00000  Uiso   1.00
H260   H     0.26451   0.78519   0.93287   0.00000  Uiso   1.00
H261   H     0.40513   0.06779   0.13796   0.00000  Uiso   1.00
H262   H     0.45267   0.22739   0.09307   0.00000  Uiso   1.00
H263   H     0.36958   0.08533   0.24397   0.00000  Uiso   1.00
H264   H     0.40481   0.88141   0.08460   0.00000  Uiso   1.00
H265   H     0.48695   0.41890   0.03115   0.00000  Uiso   1.00
H266   H     0.31175   0.11932   0.34932   0.00000  Uiso   1.00
H267   H     0.38604   0.68931   0.01326   0.00000  Uiso   1.00
O268   O     0.45489   0.57387   0.95975   0.00000  Uiso   1.00
O269   O     0.22504   0.18082   0.37717   0.00000  Uiso   1.00
O270   O     0.32250   0.61666   0.93627   0.00000  Uiso   1.00
N271   N     0.38750   0.47029   0.97583   0.00000  Uiso   1.00
N272   N     0.22371   0.19022   0.27330   0.00000  Uiso   1.00
N273   N     0.29315   0.78819   0.95913   0.00000  Uiso   1.00
N274   N     0.45289   0.41870   0.01908   0.00000  Uiso   1.00
N275   N     0.28910   0.13863   0.31656   0.00000  Uiso   1.00
N276   N     0.35854   0.73660   0.00238   0.00000  Uiso   1.00
C277   C     0.79571   0.34588   0.93442   0.00000  Uiso   1.00
C278   C     0.83699   0.27136   0.94859   0.00000  Uiso   1.00
C279   C     0.83527   0.17996   0.98459   0.00000  Uiso   1.00
C280   C     0.87685   0.12260   0.99200   0.00000  Uiso   1.00
C281   C     0.93459   0.00185   0.01818   0.00000  Uiso   1.00
C282   C     0.79185   0.34853   0.86660   0.00000  Uiso   1.00
C283   C     0.75217   0.32203   0.83367   0.00000  Uiso   1.00
C284   C     0.75575   0.32965   0.77206   0.00000  Uiso   1.00
C285   C     0.74339   0.32878   0.67096   0.00000  Uiso   1.00
C286   C     0.81099   0.45932   0.95320   0.00000  Uiso   1.00
C287   C     0.78740   0.52599   0.99306   0.00000  Uiso   1.00
C288   C     0.80709   0.62690   0.00435   0.00000  Uiso   1.00
C289   C     0.82445   0.79804   0.03770   0.00000  Uiso   1.00
C290   C     0.87261   0.40656   0.88355   0.00000  Uiso   1.00
C291   C     0.87876   0.30432   0.92096   0.00000  Uiso   1.00
C292   C     0.92035   0.24709   0.92831   0.00000  Uiso   1.00
C293   C     0.91869   0.15562   0.96432   0.00000  Uiso   1.00
C294   C     0.83362   0.38149   0.83897   0.00000  Uiso   1.00
C295   C     0.83725   0.38916   0.77739   0.00000  Uiso   1.00
C296   C     0.79760   0.36266   0.74438   0.00000  Uiso   1.00
C297   C     0.85276   0.49228   0.92557   0.00000  Uiso   1.00
C298   C     0.87249   0.59311   0.93679   0.00000  Uiso   1.00
C299   C     0.84894   0.65991   0.97667   0.00000  Uiso   1.00
H300   H     0.76319   0.32023   0.95592   0.00000  Uiso   1.00
H301   H     0.80293   0.15448   0.00596   0.00000  Uiso   1.00
H302   H     0.71985   0.29654   0.85507   0.00000  Uiso   1.00
H303   H     0.75508   0.50046   0.01444   0.00000  Uiso   1.00
H304   H     0.86542   0.98523   0.04924   0.00000  Uiso   1.00
H305   H     0.69023   0.28480   0.73107   0.00000  Uiso   1.00
H306   H     0.76451   0.71481   0.06713   0.00000  Uiso   1.00
H307   H     0.90513   0.43221   0.86204   0.00000  Uiso   1.00
H308   H     0.95267   0.27261   0.90693   0.00000  Uiso   1.00
H309   H     0.86958   0.41467   0.75603   0.00000  Uiso   1.00
H310   H     0.90481   0.61859   0.91540   0.00000  Uiso   1.00
H311   H     0.98695   0.08110   0.96885   0.00000  Uiso   1.00
H312   H     0.81175   0.38068   0.65068   0.00000  Uiso   1.00
H313   H     0.88604   0.81069   0.98674   0.00000  Uiso   1.00
O314   O     0.95489   0.92613   0.04025   0.00000  Uiso   1.00
O315   O     0.72504   0.31918   0.62283   0.00000  Uiso   1.00
O316   O     0.82250   0.88334   0.06373   0.00000  Uiso   1.00
N317   N     0.88750   0.02971   0.02417   0.00000  Uiso   1.00
N318   N     0.72371   0.30978   0.72670   0.00000  Uiso   1.00
N319   N     0.79315   0.71181   0.04087   0.00000  Uiso   1.00
N320   N     0.95289   0.08130   0.98092   0.00000  Uiso   1.00
N321   N     0.78910   0.36137   0.68344   0.00000  Uiso   1.00
N322   N     0.85854   0.76340   0.99762   0.00000  Uiso   1.00
C323   C     0.70429   0.15412   0.43442   0.00000  Uiso   1.00
C324   C     0.66301   0.22864   0.44859   0.00000  Uiso   1.00
C325   C     0.66473   0.32004   0.48459   0.00000  Uiso   1.00
C326   C     0.62315   0.37740   0.49200   0.00000  Uiso   1.00
C327   C     0.56541   0.49815   0.51818   0.00000  Uiso   1.00
C328   C     0.70815   0.15147   0.36660   0.00000  Uiso   1.00
C329   C     0.74783   0.17797   0.33367   0.00000  Uiso   1.00
C330   C     0.74425   0.17035   0.27206   0.00000  Uiso   1.00
C331   C     0.75661   0.17122   0.17096   0.00000  Uiso   1.00
C332   C     0.68901   0.04068   0.45320   0.00000  Uiso   1.00
C333   C     0.71260   0.97401   0.49306   0.00000  Uiso   1.00
C334   C     0.69291   0.87310   0.50435   0.00000  Uiso   1.00
C335   C     0.67555   0.70196   0.53770   0.00000  Uiso   1.00
C336   C     0.62739   0.09344   0.38355   0.00000  Uiso   1.00
C337   C     0.62124   0.19568   0.42096   0.00000  Uiso   1.00
C338   C     0.57965   0.25291   0.42831   0.00000  Uiso   1.00
C339   C     0.58131   0.34438   0.46432   0.00000  Uiso   1.00
C340   C     0.66638   0.11851   0.33897   0.00000  Uiso   1.00
C341   C     0.66275   0.11084   0.27739   0.00000  Uiso   1.00
C342   C     0.70240   0.13734   0.24438   0.00000  Uiso   1.00
C343   C     0.64724   0.00772   0.42557   0.00000  Uiso   1.00
C344   C     0.62751   0.90689   0.43679   0.00000  Uiso   1.00
C345   C     0.65106   0.84009   0.47667   0.00000  Uiso   1.00
H346   H     0.73681   0.17977   0.45592   0.00000  Uiso   1.00
H347   H     0.69707   0.34552   0.50596   0.00000  Uiso   1.00
H348   H     0.78015   0.20346   0.35507   0.00000  Uiso   1.00
H349   H     0.74492   0.99954   0.51444   0.00000  Uiso   1.00
H350   H     0.63458   0.51477   0.54924   0.00000  Uiso   1.00
H351   H     0.80977   0.21520   0.23107   0.00000  Uiso   1.00
H352   H     0.73549   0.78519   0.56713   0.00000  Uiso   1.00
H353   H     0.59487   0.06779   0.36204   0.00000  Uiso   1.00
H354   H     0.54733   0.22739   0.40693   0.00000  Uiso   1.00
H355   H     0.63042   0.08533   0.25603   0.00000  Uiso   1.00
H356   H     0.59519   0.88141   0.41540   0.00000  Uiso   1.00
H357   H     0.51305   0.41890   0.46885   0.00000  Uiso   1.00
H358   H     0.68825   0.11932   0.15068   0.00000  Uiso   1.00
H359   H     0.61396   0.68931   0.48674   0.00000  Uiso   1.00
O360   O     0.54511   0.57387   0.54025   0.00000  Uiso   1.00
O361   O     0.77496   0.18082   0.12283   0.00000  Uiso   1.00
O362   O     0.67750   0.61666   0.56373   0.00000  Uiso   1.00
N363   N     0.61250   0.47029   0.52417   0.00000  Uiso   1.00
N364   N     0.77629   0.19022   0.22670   0.00000  Uiso   1.00
N365   N     0.70685   0.78819   0.54087   0.00000  Uiso   1.00
N366   N     0.54711   0.41870   0.48092   0.00000  Uiso   1.00
N367   N     0.71090   0.13863   0.18344   0.00000  Uiso   1.00
N368   N     0.64146   0.73660   0.49762   0.00000  Uiso   1.00
