data_job_01863
_audit_creation_date              2018-12-19
_audit_creation_method            'Materials Studio'
_symmetry_space_group_name_H-M    'P1'
_symmetry_Int_Tables_number       1
_symmetry_cell_setting            triclinic
loop_
_symmetry_equiv_pos_as_xyz
  x,y,z
_cell_length_a                    18.4650
_cell_length_b                    18.4650
_cell_length_c                    7.1098
_cell_angle_alpha                 90.0000
_cell_angle_beta                  90.0000
_cell_angle_gamma                 90.0000
loop_
_atom_site_label
_atom_site_type_symbol
_atom_site_fract_x
_atom_site_fract_y
_atom_site_fract_z
_atom_site_U_iso_or_equiv
_atom_site_adp_type
_atom_site_occupancy
C1     C     0.72443   0.74560   0.17293   0.00000  Uiso   1.00
C2     C     0.65991   0.73485   0.04196   0.00000  Uiso   1.00
C3     C     0.59145   0.71170   0.09555   0.00000  Uiso   1.00
C4     C     0.53981   0.70528   0.95460   0.00000  Uiso   1.00
C5     C     0.43717   0.68608   0.77978   0.00000  Uiso   1.00
C6     C     0.78515   0.69853   0.09426   0.00000  Uiso   1.00
C7     C     0.82199   0.64486   0.19183   0.00000  Uiso   1.00
C8     C     0.87578   0.60788   0.09489   0.00000  Uiso   1.00
C9     C     0.96761   0.53235   0.00131   0.00000  Uiso   1.00
C10    C     0.74879   0.82380   0.14572   0.00000  Uiso   1.00
C11    C     0.75509   0.87546   0.28657   0.00000  Uiso   1.00
C12    C     0.77828   0.94395   0.23297   0.00000  Uiso   1.00
C13    C     0.81366   0.06292   0.21929   0.00000  Uiso   1.00
C14    C     0.75446   0.77536   0.82731   0.00000  Uiso   1.00
C15    C     0.67623   0.75101   0.85424   0.00000  Uiso   1.00
C16    C     0.62468   0.74463   0.71317   0.00000  Uiso   1.00
C17    C     0.55615   0.72147   0.76654   0.00000  Uiso   1.00
C18    C     0.80146   0.71470   0.90654   0.00000  Uiso   1.00
C19    C     0.85522   0.67779   0.80944   0.00000  Uiso   1.00
C20    C     0.89213   0.62408   0.90683   0.00000  Uiso   1.00
C21    C     0.76510   0.83997   0.95799   0.00000  Uiso   1.00
C22    C     0.78830   0.90839   0.90417   0.00000  Uiso   1.00
C23    C     0.79462   0.96014   0.04491   0.00000  Uiso   1.00
H24    H     0.71173   0.73301   0.31908   0.00000  Uiso   1.00
H25    H     0.57885   0.69919   0.24085   0.00000  Uiso   1.00
H26    H     0.80936   0.63237   0.33710   0.00000  Uiso   1.00
H27    H     0.74246   0.86293   0.43182   0.00000  Uiso   1.00
H28    H     0.43873   0.66879   0.07130   0.00000  Uiso   1.00
H29    H     0.92479   0.52792   0.27430   0.00000  Uiso   1.00
H30    H     0.78372   0.01410   0.47403   0.00000  Uiso   1.00
H31    H     0.76716   0.78795   0.68115   0.00000  Uiso   1.00
H32    H     0.63731   0.75714   0.56790   0.00000  Uiso   1.00
H33    H     0.86782   0.69032   0.66417   0.00000  Uiso   1.00
H34    H     0.80092   0.92088   0.75889   0.00000  Uiso   1.00
H35    H     0.48618   0.71582   0.52512   0.00000  Uiso   1.00
H36    H     0.97225   0.57495   0.72812   0.00000  Uiso   1.00
H37    H     0.83117   0.06114   0.92785   0.00000  Uiso   1.00
O38    O     0.37605   0.67102   0.73521   0.00000  Uiso   1.00
O39    O     0.01375   0.48622   0.00155   0.00000  Uiso   1.00
O40    O     0.82866   0.12408   0.26359   0.00000  Uiso   1.00
N41    N     0.46772   0.68410   0.95831   0.00000  Uiso   1.00
N42    N     0.92214   0.55239   0.14809   0.00000  Uiso   1.00
N43    N     0.79027   0.00692   0.33483   0.00000  Uiso   1.00
N44    N     0.49325   0.70941   0.66441   0.00000  Uiso   1.00
N45    N     0.94768   0.57770   0.85419   0.00000  Uiso   1.00
N46    N     0.81580   0.03223   0.04093   0.00000  Uiso   1.00
C47    C     0.27557   0.25440   0.67293   0.00000  Uiso   1.00
C48    C     0.34009   0.26515   0.54196   0.00000  Uiso   1.00
C49    C     0.40855   0.28830   0.59555   0.00000  Uiso   1.00
C50    C     0.46019   0.29472   0.45460   0.00000  Uiso   1.00
C51    C     0.56283   0.31392   0.27978   0.00000  Uiso   1.00
C52    C     0.21485   0.30147   0.59426   0.00000  Uiso   1.00
C53    C     0.17801   0.35514   0.69183   0.00000  Uiso   1.00
C54    C     0.12422   0.39212   0.59489   0.00000  Uiso   1.00
C55    C     0.03239   0.46765   0.50131   0.00000  Uiso   1.00
C56    C     0.25121   0.17620   0.64572   0.00000  Uiso   1.00
C57    C     0.24491   0.12454   0.78657   0.00000  Uiso   1.00
C58    C     0.22172   0.05605   0.73297   0.00000  Uiso   1.00
C59    C     0.18634   0.93708   0.71929   0.00000  Uiso   1.00
C60    C     0.24554   0.22464   0.32731   0.00000  Uiso   1.00
C61    C     0.32377   0.24899   0.35424   0.00000  Uiso   1.00
C62    C     0.37532   0.25537   0.21317   0.00000  Uiso   1.00
C63    C     0.44385   0.27853   0.26654   0.00000  Uiso   1.00
C64    C     0.19854   0.28530   0.40654   0.00000  Uiso   1.00
C65    C     0.14478   0.32221   0.30944   0.00000  Uiso   1.00
C66    C     0.10787   0.37592   0.40683   0.00000  Uiso   1.00
C67    C     0.23490   0.16003   0.45799   0.00000  Uiso   1.00
C68    C     0.21170   0.09161   0.40417   0.00000  Uiso   1.00
C69    C     0.20538   0.03986   0.54491   0.00000  Uiso   1.00
H70    H     0.28827   0.26699   0.81908   0.00000  Uiso   1.00
H71    H     0.42115   0.30081   0.74085   0.00000  Uiso   1.00
H72    H     0.19064   0.36763   0.83710   0.00000  Uiso   1.00
H73    H     0.25754   0.13707   0.93182   0.00000  Uiso   1.00
H74    H     0.56127   0.33121   0.57130   0.00000  Uiso   1.00
H75    H     0.07521   0.47208   0.77430   0.00000  Uiso   1.00
H76    H     0.21628   0.98590   0.97403   0.00000  Uiso   1.00
H77    H     0.23284   0.21205   0.18115   0.00000  Uiso   1.00
H78    H     0.36269   0.24286   0.06790   0.00000  Uiso   1.00
H79    H     0.13218   0.30968   0.16417   0.00000  Uiso   1.00
H80    H     0.19908   0.07912   0.25889   0.00000  Uiso   1.00
H81    H     0.51382   0.28418   0.02512   0.00000  Uiso   1.00
H82    H     0.02775   0.42505   0.22812   0.00000  Uiso   1.00
H83    H     0.16883   0.93886   0.42785   0.00000  Uiso   1.00
O84    O     0.62395   0.32898   0.23521   0.00000  Uiso   1.00
O85    O     0.98625   0.51378   0.50155   0.00000  Uiso   1.00
O86    O     0.17134   0.87592   0.76359   0.00000  Uiso   1.00
N87    N     0.53228   0.31590   0.45831   0.00000  Uiso   1.00
N88    N     0.07786   0.44761   0.64809   0.00000  Uiso   1.00
N89    N     0.20973   0.99308   0.83483   0.00000  Uiso   1.00
N90    N     0.50675   0.29059   0.16441   0.00000  Uiso   1.00
N91    N     0.05232   0.42230   0.35419   0.00000  Uiso   1.00
N92    N     0.18420   0.96777   0.54093   0.00000  Uiso   1.00
C93    C     0.25440   0.72443   0.42293   0.00000  Uiso   1.00
C94    C     0.26515   0.65991   0.29196   0.00000  Uiso   1.00
C95    C     0.28830   0.59145   0.34555   0.00000  Uiso   1.00
C96    C     0.29472   0.53981   0.20460   0.00000  Uiso   1.00
C97    C     0.31392   0.43717   0.02978   0.00000  Uiso   1.00
C98    C     0.30147   0.78515   0.34426   0.00000  Uiso   1.00
C99    C     0.35514   0.82199   0.44183   0.00000  Uiso   1.00
C100   C     0.39212   0.87578   0.34489   0.00000  Uiso   1.00
C101   C     0.46765   0.96761   0.25131   0.00000  Uiso   1.00
C102   C     0.17620   0.74879   0.39572   0.00000  Uiso   1.00
C103   C     0.12454   0.75509   0.53657   0.00000  Uiso   1.00
C104   C     0.05605   0.77828   0.48297   0.00000  Uiso   1.00
C105   C     0.93708   0.81366   0.46929   0.00000  Uiso   1.00
C106   C     0.22464   0.75446   0.07731   0.00000  Uiso   1.00
C107   C     0.24899   0.67623   0.10424   0.00000  Uiso   1.00
C108   C     0.25537   0.62468   0.96317   0.00000  Uiso   1.00
C109   C     0.27853   0.55615   0.01654   0.00000  Uiso   1.00
C110   C     0.28530   0.80146   0.15654   0.00000  Uiso   1.00
C111   C     0.32221   0.85522   0.05944   0.00000  Uiso   1.00
C112   C     0.37592   0.89213   0.15683   0.00000  Uiso   1.00
C113   C     0.16003   0.76510   0.20799   0.00000  Uiso   1.00
C114   C     0.09161   0.78830   0.15417   0.00000  Uiso   1.00
C115   C     0.03986   0.79462   0.29491   0.00000  Uiso   1.00
H116   H     0.26699   0.71173   0.56908   0.00000  Uiso   1.00
H117   H     0.30081   0.57885   0.49085   0.00000  Uiso   1.00
H118   H     0.36763   0.80936   0.58710   0.00000  Uiso   1.00
H119   H     0.13707   0.74246   0.68182   0.00000  Uiso   1.00
H120   H     0.33121   0.43873   0.32130   0.00000  Uiso   1.00
H121   H     0.47208   0.92479   0.52430   0.00000  Uiso   1.00
H122   H     0.98590   0.78372   0.72403   0.00000  Uiso   1.00
H123   H     0.21205   0.76716   0.93115   0.00000  Uiso   1.00
H124   H     0.24286   0.63731   0.81790   0.00000  Uiso   1.00
H125   H     0.30968   0.86782   0.91417   0.00000  Uiso   1.00
H126   H     0.07912   0.80092   0.00889   0.00000  Uiso   1.00
H127   H     0.28418   0.48618   0.77512   0.00000  Uiso   1.00
H128   H     0.42505   0.97225   0.97812   0.00000  Uiso   1.00
H129   H     0.93886   0.83117   0.17785   0.00000  Uiso   1.00
O130   O     0.32898   0.37605   0.98521   0.00000  Uiso   1.00
O131   O     0.51378   0.01375   0.25155   0.00000  Uiso   1.00
O132   O     0.87592   0.82866   0.51359   0.00000  Uiso   1.00
N133   N     0.31590   0.46772   0.20831   0.00000  Uiso   1.00
N134   N     0.44761   0.92214   0.39809   0.00000  Uiso   1.00
N135   N     0.99308   0.79027   0.58483   0.00000  Uiso   1.00
N136   N     0.29059   0.49325   0.91441   0.00000  Uiso   1.00
N137   N     0.42230   0.94768   0.10419   0.00000  Uiso   1.00
N138   N     0.96777   0.81580   0.29093   0.00000  Uiso   1.00
C139   C     0.74560   0.27557   0.92293   0.00000  Uiso   1.00
C140   C     0.73485   0.34009   0.79196   0.00000  Uiso   1.00
C141   C     0.71170   0.40855   0.84555   0.00000  Uiso   1.00
C142   C     0.70528   0.46019   0.70460   0.00000  Uiso   1.00
C143   C     0.68608   0.56283   0.52978   0.00000  Uiso   1.00
C144   C     0.69853   0.21485   0.84426   0.00000  Uiso   1.00
C145   C     0.64486   0.17801   0.94183   0.00000  Uiso   1.00
C146   C     0.60788   0.12422   0.84489   0.00000  Uiso   1.00
C147   C     0.53235   0.03239   0.75131   0.00000  Uiso   1.00
C148   C     0.82380   0.25121   0.89572   0.00000  Uiso   1.00
C149   C     0.87546   0.24491   0.03657   0.00000  Uiso   1.00
C150   C     0.94395   0.22172   0.98297   0.00000  Uiso   1.00
C151   C     0.06292   0.18634   0.96929   0.00000  Uiso   1.00
C152   C     0.77536   0.24554   0.57731   0.00000  Uiso   1.00
C153   C     0.75101   0.32377   0.60424   0.00000  Uiso   1.00
C154   C     0.74463   0.37532   0.46317   0.00000  Uiso   1.00
C155   C     0.72147   0.44385   0.51654   0.00000  Uiso   1.00
C156   C     0.71470   0.19854   0.65654   0.00000  Uiso   1.00
C157   C     0.67779   0.14478   0.55944   0.00000  Uiso   1.00
C158   C     0.62408   0.10787   0.65683   0.00000  Uiso   1.00
C159   C     0.83997   0.23490   0.70799   0.00000  Uiso   1.00
C160   C     0.90839   0.21170   0.65417   0.00000  Uiso   1.00
C161   C     0.96014   0.20538   0.79491   0.00000  Uiso   1.00
H162   H     0.73301   0.28827   0.06908   0.00000  Uiso   1.00
H163   H     0.69919   0.42115   0.99085   0.00000  Uiso   1.00
H164   H     0.63237   0.19064   0.08710   0.00000  Uiso   1.00
H165   H     0.86293   0.25754   0.18182   0.00000  Uiso   1.00
H166   H     0.66879   0.56127   0.82130   0.00000  Uiso   1.00
H167   H     0.52792   0.07521   0.02430   0.00000  Uiso   1.00
H168   H     0.01410   0.21628   0.22403   0.00000  Uiso   1.00
H169   H     0.78795   0.23284   0.43115   0.00000  Uiso   1.00
H170   H     0.75714   0.36269   0.31790   0.00000  Uiso   1.00
H171   H     0.69032   0.13218   0.41417   0.00000  Uiso   1.00
H172   H     0.92088   0.19908   0.50889   0.00000  Uiso   1.00
H173   H     0.71582   0.51382   0.27512   0.00000  Uiso   1.00
H174   H     0.57495   0.02775   0.47812   0.00000  Uiso   1.00
H175   H     0.06114   0.16883   0.67785   0.00000  Uiso   1.00
O176   O     0.67102   0.62395   0.48521   0.00000  Uiso   1.00
O177   O     0.48622   0.98625   0.75155   0.00000  Uiso   1.00
O178   O     0.12408   0.17134   0.01359   0.00000  Uiso   1.00
N179   N     0.68410   0.53228   0.70831   0.00000  Uiso   1.00
N180   N     0.55239   0.07786   0.89809   0.00000  Uiso   1.00
N181   N     0.00692   0.20973   0.08483   0.00000  Uiso   1.00
N182   N     0.70941   0.50675   0.41441   0.00000  Uiso   1.00
N183   N     0.57770   0.05232   0.60419   0.00000  Uiso   1.00
N184   N     0.03223   0.18420   0.79093   0.00000  Uiso   1.00
