data_job_01930
_audit_creation_date              2018-12-19
_audit_creation_method            'Materials Studio'
_symmetry_space_group_name_H-M    'P1'
_symmetry_Int_Tables_number       1
_symmetry_cell_setting            triclinic
loop_
_symmetry_equiv_pos_as_xyz
  x,y,z
_cell_length_a                    18.9081
_cell_length_b                    18.9081
_cell_length_c                    13.0125
_cell_angle_alpha                 90.0000
_cell_angle_beta                  90.0000
_cell_angle_gamma                 90.0000
loop_
_atom_site_label
_atom_site_type_symbol
_atom_site_fract_x
_atom_site_fract_y
_atom_site_fract_z
_atom_site_U_iso_or_equiv
_atom_site_adp_type
_atom_site_occupancy
C1     C     0.42391   0.68841   0.96851   0.00000  Uiso   1.00
C2     C     0.34523   0.70382   0.98117   0.00000  Uiso   1.00
C3     C     0.29688   0.66133   0.03241   0.00000  Uiso   1.00
C4     C     0.22730   0.68470   0.03544   0.00000  Uiso   1.00
C5     C     0.10822   0.69895   0.06215   0.00000  Uiso   1.00
C6     C     0.43812   0.68925   0.85315   0.00000  Uiso   1.00
C7     C     0.46787   0.63451   0.79676   0.00000  Uiso   1.00
C8     C     0.47649   0.64561   0.69204   0.00000  Uiso   1.00
C9     C     0.50167   0.63726   0.52001   0.00000  Uiso   1.00
C10    C     0.46264   0.75236   0.01244   0.00000  Uiso   1.00
C11    C     0.51302   0.75069   0.08996   0.00000  Uiso   1.00
C12    C     0.54230   0.81493   0.11933   0.00000  Uiso   1.00
C13    C     0.60555   0.90456   0.19462   0.00000  Uiso   1.00
C14    C     0.38634   0.80546   0.88279   0.00000  Uiso   1.00
C15    C     0.32482   0.76740   0.93461   0.00000  Uiso   1.00
C16    C     0.25530   0.79084   0.93757   0.00000  Uiso   1.00
C17    C     0.20685   0.74839   0.98881   0.00000  Uiso   1.00
C18    C     0.41771   0.75282   0.80660   0.00000  Uiso   1.00
C19    C     0.42629   0.76402   0.70193   0.00000  Uiso   1.00
C20    C     0.45604   0.70931   0.64539   0.00000  Uiso   1.00
C21    C     0.44223   0.81594   0.96589   0.00000  Uiso   1.00
C22    C     0.47144   0.88019   0.99513   0.00000  Uiso   1.00
C23    C     0.52185   0.87862   0.07269   0.00000  Uiso   1.00
H24    H     0.43981   0.63890   0.00475   0.00000  Uiso   1.00
H25    H     0.31269   0.61213   0.06842   0.00000  Uiso   1.00
H26    H     0.48367   0.58532   0.83282   0.00000  Uiso   1.00
H27    H     0.52880   0.70147   0.12597   0.00000  Uiso   1.00
H28    H     0.16276   0.61047   0.11845   0.00000  Uiso   1.00
H29    H     0.52328   0.55394   0.62167   0.00000  Uiso   1.00
H30    H     0.61847   0.79888   0.23985   0.00000  Uiso   1.00
H31    H     0.37044   0.85496   0.84654   0.00000  Uiso   1.00
H32    H     0.23952   0.84004   0.90154   0.00000  Uiso   1.00
H33    H     0.41049   0.81323   0.66593   0.00000  Uiso   1.00
H34    H     0.45563   0.92939   0.95909   0.00000  Uiso   1.00
H35    H     0.10336   0.79545   0.98299   0.00000  Uiso   1.00
H36    H     0.46390   0.73892   0.48622   0.00000  Uiso   1.00
H37    H     0.55907   0.98386   0.10440   0.00000  Uiso   1.00
O38    O     0.04818   0.68924   0.08972   0.00000  Uiso   1.00
O39    O     0.52119   0.61508   0.43798   0.00000  Uiso   1.00
O40    O     0.64606   0.93643   0.24902   0.00000  Uiso   1.00
N41    N     0.16675   0.65606   0.07904   0.00000  Uiso   1.00
N42    N     0.50381   0.60320   0.61458   0.00000  Uiso   1.00
N43    N     0.59281   0.83220   0.19251   0.00000  Uiso   1.00
N44    N     0.13479   0.75560   0.00615   0.00000  Uiso   1.00
N45    N     0.47185   0.70274   0.54170   0.00000  Uiso   1.00
N46    N     0.56085   0.93174   0.11962   0.00000  Uiso   1.00
C47    C     0.57609   0.31159   0.96851   0.00000  Uiso   1.00
C48    C     0.65477   0.29618   0.98117   0.00000  Uiso   1.00
C49    C     0.70312   0.33867   0.03241   0.00000  Uiso   1.00
C50    C     0.77270   0.31530   0.03544   0.00000  Uiso   1.00
C51    C     0.89178   0.30105   0.06215   0.00000  Uiso   1.00
C52    C     0.56188   0.31075   0.85315   0.00000  Uiso   1.00
C53    C     0.53213   0.36549   0.79676   0.00000  Uiso   1.00
C54    C     0.52351   0.35439   0.69204   0.00000  Uiso   1.00
C55    C     0.49833   0.36274   0.52001   0.00000  Uiso   1.00
C56    C     0.53736   0.24764   0.01244   0.00000  Uiso   1.00
C57    C     0.48698   0.24931   0.08996   0.00000  Uiso   1.00
C58    C     0.45770   0.18507   0.11933   0.00000  Uiso   1.00
C59    C     0.39445   0.09544   0.19462   0.00000  Uiso   1.00
C60    C     0.61366   0.19454   0.88279   0.00000  Uiso   1.00
C61    C     0.67518   0.23260   0.93461   0.00000  Uiso   1.00
C62    C     0.74470   0.20916   0.93757   0.00000  Uiso   1.00
C63    C     0.79315   0.25161   0.98881   0.00000  Uiso   1.00
C64    C     0.58229   0.24718   0.80660   0.00000  Uiso   1.00
C65    C     0.57371   0.23598   0.70193   0.00000  Uiso   1.00
C66    C     0.54396   0.29069   0.64539   0.00000  Uiso   1.00
C67    C     0.55777   0.18406   0.96589   0.00000  Uiso   1.00
C68    C     0.52856   0.11981   0.99513   0.00000  Uiso   1.00
C69    C     0.47815   0.12138   0.07269   0.00000  Uiso   1.00
H70    H     0.56019   0.36110   0.00475   0.00000  Uiso   1.00
H71    H     0.68731   0.38787   0.06842   0.00000  Uiso   1.00
H72    H     0.51633   0.41468   0.83282   0.00000  Uiso   1.00
H73    H     0.47120   0.29853   0.12597   0.00000  Uiso   1.00
H74    H     0.83724   0.38953   0.11845   0.00000  Uiso   1.00
H75    H     0.47672   0.44606   0.62167   0.00000  Uiso   1.00
H76    H     0.38153   0.20112   0.23985   0.00000  Uiso   1.00
H77    H     0.62956   0.14504   0.84654   0.00000  Uiso   1.00
H78    H     0.76048   0.15996   0.90154   0.00000  Uiso   1.00
H79    H     0.58951   0.18677   0.66593   0.00000  Uiso   1.00
H80    H     0.54437   0.07061   0.95909   0.00000  Uiso   1.00
H81    H     0.89663   0.20455   0.98299   0.00000  Uiso   1.00
H82    H     0.53610   0.26108   0.48622   0.00000  Uiso   1.00
H83    H     0.44093   0.01614   0.10440   0.00000  Uiso   1.00
O84    O     0.95182   0.31076   0.08972   0.00000  Uiso   1.00
O85    O     0.47881   0.38492   0.43798   0.00000  Uiso   1.00
O86    O     0.35394   0.06357   0.24902   0.00000  Uiso   1.00
N87    N     0.83325   0.34394   0.07904   0.00000  Uiso   1.00
N88    N     0.49619   0.39680   0.61458   0.00000  Uiso   1.00
N89    N     0.40719   0.16780   0.19251   0.00000  Uiso   1.00
N90    N     0.86521   0.24440   0.00615   0.00000  Uiso   1.00
N91    N     0.52815   0.29726   0.54170   0.00000  Uiso   1.00
N92    N     0.43915   0.06826   0.11962   0.00000  Uiso   1.00
C93    C     0.68841   0.57609   0.03149   0.00000  Uiso   1.00
C94    C     0.70382   0.65477   0.01883   0.00000  Uiso   1.00
C95    C     0.66133   0.70312   0.96759   0.00000  Uiso   1.00
C96    C     0.68470   0.77270   0.96456   0.00000  Uiso   1.00
C97    C     0.69895   0.89178   0.93785   0.00000  Uiso   1.00
C98    C     0.68925   0.56188   0.14685   0.00000  Uiso   1.00
C99    C     0.63451   0.53213   0.20324   0.00000  Uiso   1.00
C100   C     0.64561   0.52351   0.30796   0.00000  Uiso   1.00
C101   C     0.63726   0.49833   0.47999   0.00000  Uiso   1.00
C102   C     0.75236   0.53736   0.98756   0.00000  Uiso   1.00
C103   C     0.75069   0.48698   0.91004   0.00000  Uiso   1.00
C104   C     0.81493   0.45770   0.88067   0.00000  Uiso   1.00
C105   C     0.90456   0.39445   0.80538   0.00000  Uiso   1.00
C106   C     0.80546   0.61366   0.11721   0.00000  Uiso   1.00
C107   C     0.76740   0.67518   0.06539   0.00000  Uiso   1.00
C108   C     0.79084   0.74470   0.06243   0.00000  Uiso   1.00
C109   C     0.74839   0.79315   0.01119   0.00000  Uiso   1.00
C110   C     0.75282   0.58229   0.19340   0.00000  Uiso   1.00
C111   C     0.76402   0.57371   0.29807   0.00000  Uiso   1.00
C112   C     0.70931   0.54396   0.35461   0.00000  Uiso   1.00
C113   C     0.81594   0.55777   0.03411   0.00000  Uiso   1.00
C114   C     0.88019   0.52856   0.00487   0.00000  Uiso   1.00
C115   C     0.87862   0.47815   0.92731   0.00000  Uiso   1.00
H116   H     0.63890   0.56019   0.99525   0.00000  Uiso   1.00
H117   H     0.61213   0.68731   0.93158   0.00000  Uiso   1.00
H118   H     0.58532   0.51633   0.16718   0.00000  Uiso   1.00
H119   H     0.70147   0.47120   0.87403   0.00000  Uiso   1.00
H120   H     0.61047   0.83724   0.88155   0.00000  Uiso   1.00
H121   H     0.55394   0.47672   0.37833   0.00000  Uiso   1.00
H122   H     0.79888   0.38153   0.76015   0.00000  Uiso   1.00
H123   H     0.85496   0.62956   0.15346   0.00000  Uiso   1.00
H124   H     0.84004   0.76048   0.09846   0.00000  Uiso   1.00
H125   H     0.81323   0.58951   0.33407   0.00000  Uiso   1.00
H126   H     0.92939   0.54437   0.04091   0.00000  Uiso   1.00
H127   H     0.79545   0.89664   0.01701   0.00000  Uiso   1.00
H128   H     0.73892   0.53610   0.51378   0.00000  Uiso   1.00
H129   H     0.98386   0.44093   0.89560   0.00000  Uiso   1.00
O130   O     0.68924   0.95182   0.91028   0.00000  Uiso   1.00
O131   O     0.61508   0.47881   0.56202   0.00000  Uiso   1.00
O132   O     0.93643   0.35394   0.75098   0.00000  Uiso   1.00
N133   N     0.65606   0.83325   0.92096   0.00000  Uiso   1.00
N134   N     0.60320   0.49619   0.38542   0.00000  Uiso   1.00
N135   N     0.83220   0.40719   0.80749   0.00000  Uiso   1.00
N136   N     0.75560   0.86521   0.99385   0.00000  Uiso   1.00
N137   N     0.70274   0.52815   0.45830   0.00000  Uiso   1.00
N138   N     0.93174   0.43915   0.88038   0.00000  Uiso   1.00
C139   C     0.31159   0.42391   0.03149   0.00000  Uiso   1.00
C140   C     0.29618   0.34523   0.01883   0.00000  Uiso   1.00
C141   C     0.33867   0.29688   0.96759   0.00000  Uiso   1.00
C142   C     0.31530   0.22730   0.96456   0.00000  Uiso   1.00
C143   C     0.30105   0.10822   0.93785   0.00000  Uiso   1.00
C144   C     0.31075   0.43812   0.14685   0.00000  Uiso   1.00
C145   C     0.36549   0.46787   0.20324   0.00000  Uiso   1.00
C146   C     0.35439   0.47649   0.30796   0.00000  Uiso   1.00
C147   C     0.36274   0.50167   0.47999   0.00000  Uiso   1.00
C148   C     0.24764   0.46264   0.98756   0.00000  Uiso   1.00
C149   C     0.24931   0.51302   0.91004   0.00000  Uiso   1.00
C150   C     0.18507   0.54230   0.88067   0.00000  Uiso   1.00
C151   C     0.09544   0.60555   0.80538   0.00000  Uiso   1.00
C152   C     0.19454   0.38634   0.11721   0.00000  Uiso   1.00
C153   C     0.23260   0.32482   0.06539   0.00000  Uiso   1.00
C154   C     0.20916   0.25530   0.06243   0.00000  Uiso   1.00
C155   C     0.25161   0.20685   0.01119   0.00000  Uiso   1.00
C156   C     0.24718   0.41771   0.19340   0.00000  Uiso   1.00
C157   C     0.23598   0.42629   0.29807   0.00000  Uiso   1.00
C158   C     0.29069   0.45604   0.35461   0.00000  Uiso   1.00
C159   C     0.18406   0.44223   0.03411   0.00000  Uiso   1.00
C160   C     0.11981   0.47144   0.00487   0.00000  Uiso   1.00
C161   C     0.12138   0.52185   0.92731   0.00000  Uiso   1.00
H162   H     0.36110   0.43981   0.99525   0.00000  Uiso   1.00
H163   H     0.38787   0.31269   0.93158   0.00000  Uiso   1.00
H164   H     0.41468   0.48367   0.16718   0.00000  Uiso   1.00
H165   H     0.29853   0.52880   0.87403   0.00000  Uiso   1.00
H166   H     0.38953   0.16276   0.88155   0.00000  Uiso   1.00
H167   H     0.44606   0.52328   0.37833   0.00000  Uiso   1.00
H168   H     0.20112   0.61847   0.76015   0.00000  Uiso   1.00
H169   H     0.14504   0.37044   0.15346   0.00000  Uiso   1.00
H170   H     0.15996   0.23952   0.09846   0.00000  Uiso   1.00
H171   H     0.18677   0.41049   0.33407   0.00000  Uiso   1.00
H172   H     0.07061   0.45563   0.04091   0.00000  Uiso   1.00
H173   H     0.20455   0.10336   0.01701   0.00000  Uiso   1.00
H174   H     0.26108   0.46390   0.51378   0.00000  Uiso   1.00
H175   H     0.01614   0.55907   0.89560   0.00000  Uiso   1.00
O176   O     0.31076   0.04818   0.91028   0.00000  Uiso   1.00
O177   O     0.38492   0.52119   0.56202   0.00000  Uiso   1.00
O178   O     0.06357   0.64606   0.75098   0.00000  Uiso   1.00
N179   N     0.34394   0.16675   0.92096   0.00000  Uiso   1.00
N180   N     0.39680   0.50381   0.38542   0.00000  Uiso   1.00
N181   N     0.16780   0.59281   0.80749   0.00000  Uiso   1.00
N182   N     0.24440   0.13479   0.99385   0.00000  Uiso   1.00
N183   N     0.29726   0.47185   0.45830   0.00000  Uiso   1.00
N184   N     0.06826   0.56085   0.88038   0.00000  Uiso   1.00
C185   C     0.07609   0.18841   0.53149   0.00000  Uiso   1.00
C186   C     0.15477   0.20382   0.51883   0.00000  Uiso   1.00
C187   C     0.20312   0.16133   0.46759   0.00000  Uiso   1.00
C188   C     0.27270   0.18470   0.46456   0.00000  Uiso   1.00
C189   C     0.39178   0.19895   0.43785   0.00000  Uiso   1.00
C190   C     0.06188   0.18925   0.64685   0.00000  Uiso   1.00
C191   C     0.03213   0.13451   0.70324   0.00000  Uiso   1.00
C192   C     0.02351   0.14561   0.80796   0.00000  Uiso   1.00
C193   C     0.99833   0.13726   0.97999   0.00000  Uiso   1.00
C194   C     0.03736   0.25236   0.48756   0.00000  Uiso   1.00
C195   C     0.98698   0.25069   0.41004   0.00000  Uiso   1.00
C196   C     0.95770   0.31493   0.38067   0.00000  Uiso   1.00
C197   C     0.89445   0.40456   0.30538   0.00000  Uiso   1.00
C198   C     0.11366   0.30546   0.61721   0.00000  Uiso   1.00
C199   C     0.17518   0.26740   0.56539   0.00000  Uiso   1.00
C200   C     0.24470   0.29084   0.56243   0.00000  Uiso   1.00
C201   C     0.29315   0.24839   0.51119   0.00000  Uiso   1.00
C202   C     0.08229   0.25282   0.69340   0.00000  Uiso   1.00
C203   C     0.07371   0.26402   0.79807   0.00000  Uiso   1.00
C204   C     0.04396   0.20931   0.85461   0.00000  Uiso   1.00
C205   C     0.05777   0.31594   0.53411   0.00000  Uiso   1.00
C206   C     0.02856   0.38019   0.50487   0.00000  Uiso   1.00
C207   C     0.97815   0.37862   0.42731   0.00000  Uiso   1.00
H208   H     0.06019   0.13890   0.49525   0.00000  Uiso   1.00
H209   H     0.18731   0.11213   0.43158   0.00000  Uiso   1.00
H210   H     0.01633   0.08532   0.66718   0.00000  Uiso   1.00
H211   H     0.97120   0.20147   0.37403   0.00000  Uiso   1.00
H212   H     0.33724   0.11047   0.38155   0.00000  Uiso   1.00
H213   H     0.97672   0.05394   0.87833   0.00000  Uiso   1.00
H214   H     0.88153   0.29888   0.26015   0.00000  Uiso   1.00
H215   H     0.12956   0.35496   0.65346   0.00000  Uiso   1.00
H216   H     0.26048   0.34004   0.59846   0.00000  Uiso   1.00
H217   H     0.08951   0.31323   0.83407   0.00000  Uiso   1.00
H218   H     0.04437   0.42939   0.54091   0.00000  Uiso   1.00
H219   H     0.39664   0.29545   0.51701   0.00000  Uiso   1.00
H220   H     0.03610   0.23892   0.01378   0.00000  Uiso   1.00
H221   H     0.94093   0.48386   0.39560   0.00000  Uiso   1.00
O222   O     0.45182   0.18924   0.41028   0.00000  Uiso   1.00
O223   O     0.97881   0.11508   0.06202   0.00000  Uiso   1.00
O224   O     0.85394   0.43643   0.25098   0.00000  Uiso   1.00
N225   N     0.33325   0.15606   0.42096   0.00000  Uiso   1.00
N226   N     0.99619   0.10320   0.88542   0.00000  Uiso   1.00
N227   N     0.90719   0.33220   0.30749   0.00000  Uiso   1.00
N228   N     0.36521   0.25560   0.49385   0.00000  Uiso   1.00
N229   N     0.02815   0.20274   0.95830   0.00000  Uiso   1.00
N230   N     0.93915   0.43174   0.38038   0.00000  Uiso   1.00
C231   C     0.92391   0.81159   0.53149   0.00000  Uiso   1.00
C232   C     0.84523   0.79618   0.51883   0.00000  Uiso   1.00
C233   C     0.79688   0.83867   0.46759   0.00000  Uiso   1.00
C234   C     0.72730   0.81530   0.46456   0.00000  Uiso   1.00
C235   C     0.60822   0.80105   0.43785   0.00000  Uiso   1.00
C236   C     0.93812   0.81075   0.64685   0.00000  Uiso   1.00
C237   C     0.96787   0.86549   0.70324   0.00000  Uiso   1.00
C238   C     0.97649   0.85439   0.80796   0.00000  Uiso   1.00
C239   C     0.00167   0.86274   0.97999   0.00000  Uiso   1.00
C240   C     0.96264   0.74764   0.48756   0.00000  Uiso   1.00
C241   C     0.01302   0.74931   0.41004   0.00000  Uiso   1.00
C242   C     0.04230   0.68507   0.38067   0.00000  Uiso   1.00
C243   C     0.10555   0.59544   0.30538   0.00000  Uiso   1.00
C244   C     0.88634   0.69454   0.61721   0.00000  Uiso   1.00
C245   C     0.82482   0.73260   0.56539   0.00000  Uiso   1.00
C246   C     0.75530   0.70916   0.56243   0.00000  Uiso   1.00
C247   C     0.70685   0.75161   0.51119   0.00000  Uiso   1.00
C248   C     0.91771   0.74718   0.69340   0.00000  Uiso   1.00
C249   C     0.92629   0.73598   0.79807   0.00000  Uiso   1.00
C250   C     0.95604   0.79069   0.85461   0.00000  Uiso   1.00
C251   C     0.94223   0.68406   0.53411   0.00000  Uiso   1.00
C252   C     0.97144   0.61981   0.50487   0.00000  Uiso   1.00
C253   C     0.02185   0.62138   0.42731   0.00000  Uiso   1.00
H254   H     0.93981   0.86110   0.49525   0.00000  Uiso   1.00
H255   H     0.81269   0.88787   0.43158   0.00000  Uiso   1.00
H256   H     0.98367   0.91468   0.66718   0.00000  Uiso   1.00
H257   H     0.02880   0.79853   0.37403   0.00000  Uiso   1.00
H258   H     0.66276   0.88953   0.38155   0.00000  Uiso   1.00
H259   H     0.02328   0.94606   0.87833   0.00000  Uiso   1.00
H260   H     0.11847   0.70112   0.26015   0.00000  Uiso   1.00
H261   H     0.87044   0.64504   0.65346   0.00000  Uiso   1.00
H262   H     0.73952   0.65996   0.59846   0.00000  Uiso   1.00
H263   H     0.91049   0.68677   0.83407   0.00000  Uiso   1.00
H264   H     0.95563   0.57061   0.54091   0.00000  Uiso   1.00
H265   H     0.60336   0.70455   0.51701   0.00000  Uiso   1.00
H266   H     0.96390   0.76108   0.01378   0.00000  Uiso   1.00
H267   H     0.05907   0.51614   0.39560   0.00000  Uiso   1.00
O268   O     0.54818   0.81076   0.41028   0.00000  Uiso   1.00
O269   O     0.02119   0.88492   0.06202   0.00000  Uiso   1.00
O270   O     0.14606   0.56357   0.25098   0.00000  Uiso   1.00
N271   N     0.66675   0.84394   0.42096   0.00000  Uiso   1.00
N272   N     0.00381   0.89680   0.88542   0.00000  Uiso   1.00
N273   N     0.09281   0.66780   0.30749   0.00000  Uiso   1.00
N274   N     0.63479   0.74440   0.49385   0.00000  Uiso   1.00
N275   N     0.97185   0.79726   0.95830   0.00000  Uiso   1.00
N276   N     0.06085   0.56826   0.38038   0.00000  Uiso   1.00
C277   C     0.81159   0.07609   0.46851   0.00000  Uiso   1.00
C278   C     0.79618   0.15477   0.48117   0.00000  Uiso   1.00
C279   C     0.83867   0.20312   0.53241   0.00000  Uiso   1.00
C280   C     0.81530   0.27270   0.53544   0.00000  Uiso   1.00
C281   C     0.80105   0.39178   0.56215   0.00000  Uiso   1.00
C282   C     0.81075   0.06188   0.35315   0.00000  Uiso   1.00
C283   C     0.86549   0.03213   0.29676   0.00000  Uiso   1.00
C284   C     0.85439   0.02351   0.19204   0.00000  Uiso   1.00
C285   C     0.86274   0.99833   0.02001   0.00000  Uiso   1.00
C286   C     0.74764   0.03736   0.51244   0.00000  Uiso   1.00
C287   C     0.74931   0.98698   0.58996   0.00000  Uiso   1.00
C288   C     0.68507   0.95770   0.61933   0.00000  Uiso   1.00
C289   C     0.59544   0.89445   0.69462   0.00000  Uiso   1.00
C290   C     0.69454   0.11366   0.38279   0.00000  Uiso   1.00
C291   C     0.73260   0.17518   0.43461   0.00000  Uiso   1.00
C292   C     0.70916   0.24470   0.43757   0.00000  Uiso   1.00
C293   C     0.75161   0.29315   0.48881   0.00000  Uiso   1.00
C294   C     0.74718   0.08229   0.30660   0.00000  Uiso   1.00
C295   C     0.73598   0.07371   0.20193   0.00000  Uiso   1.00
C296   C     0.79069   0.04396   0.14539   0.00000  Uiso   1.00
C297   C     0.68406   0.05777   0.46589   0.00000  Uiso   1.00
C298   C     0.61981   0.02856   0.49513   0.00000  Uiso   1.00
C299   C     0.62138   0.97815   0.57269   0.00000  Uiso   1.00
H300   H     0.86110   0.06019   0.50475   0.00000  Uiso   1.00
H301   H     0.88787   0.18731   0.56842   0.00000  Uiso   1.00
H302   H     0.91468   0.01633   0.33282   0.00000  Uiso   1.00
H303   H     0.79853   0.97120   0.62597   0.00000  Uiso   1.00
H304   H     0.88953   0.33724   0.61845   0.00000  Uiso   1.00
H305   H     0.94606   0.97672   0.12167   0.00000  Uiso   1.00
H306   H     0.70112   0.88153   0.73985   0.00000  Uiso   1.00
H307   H     0.64504   0.12956   0.34654   0.00000  Uiso   1.00
H308   H     0.65996   0.26048   0.40154   0.00000  Uiso   1.00
H309   H     0.68677   0.08951   0.16593   0.00000  Uiso   1.00
H310   H     0.57061   0.04437   0.45909   0.00000  Uiso   1.00
H311   H     0.70455   0.39664   0.48299   0.00000  Uiso   1.00
H312   H     0.76108   0.03610   0.98622   0.00000  Uiso   1.00
H313   H     0.51614   0.94093   0.60440   0.00000  Uiso   1.00
O314   O     0.81076   0.45182   0.58972   0.00000  Uiso   1.00
O315   O     0.88492   0.97881   0.93798   0.00000  Uiso   1.00
O316   O     0.56357   0.85394   0.74902   0.00000  Uiso   1.00
N317   N     0.84394   0.33325   0.57904   0.00000  Uiso   1.00
N318   N     0.89680   0.99619   0.11458   0.00000  Uiso   1.00
N319   N     0.66780   0.90719   0.69251   0.00000  Uiso   1.00
N320   N     0.74440   0.36521   0.50615   0.00000  Uiso   1.00
N321   N     0.79726   0.02815   0.04170   0.00000  Uiso   1.00
N322   N     0.56826   0.93915   0.61962   0.00000  Uiso   1.00
C323   C     0.18841   0.92391   0.46851   0.00000  Uiso   1.00
C324   C     0.20382   0.84523   0.48117   0.00000  Uiso   1.00
C325   C     0.16133   0.79688   0.53241   0.00000  Uiso   1.00
C326   C     0.18470   0.72730   0.53544   0.00000  Uiso   1.00
C327   C     0.19895   0.60822   0.56215   0.00000  Uiso   1.00
C328   C     0.18925   0.93812   0.35315   0.00000  Uiso   1.00
C329   C     0.13451   0.96787   0.29676   0.00000  Uiso   1.00
C330   C     0.14561   0.97649   0.19204   0.00000  Uiso   1.00
C331   C     0.13726   0.00167   0.02001   0.00000  Uiso   1.00
C332   C     0.25236   0.96264   0.51244   0.00000  Uiso   1.00
C333   C     0.25069   0.01302   0.58996   0.00000  Uiso   1.00
C334   C     0.31493   0.04230   0.61933   0.00000  Uiso   1.00
C335   C     0.40456   0.10555   0.69462   0.00000  Uiso   1.00
C336   C     0.30546   0.88634   0.38279   0.00000  Uiso   1.00
C337   C     0.26740   0.82482   0.43461   0.00000  Uiso   1.00
C338   C     0.29084   0.75530   0.43757   0.00000  Uiso   1.00
C339   C     0.24839   0.70685   0.48881   0.00000  Uiso   1.00
C340   C     0.25282   0.91771   0.30660   0.00000  Uiso   1.00
C341   C     0.26402   0.92629   0.20193   0.00000  Uiso   1.00
C342   C     0.20931   0.95604   0.14539   0.00000  Uiso   1.00
C343   C     0.31594   0.94223   0.46589   0.00000  Uiso   1.00
C344   C     0.38019   0.97144   0.49513   0.00000  Uiso   1.00
C345   C     0.37862   0.02185   0.57269   0.00000  Uiso   1.00
H346   H     0.13890   0.93981   0.50475   0.00000  Uiso   1.00
H347   H     0.11213   0.81269   0.56842   0.00000  Uiso   1.00
H348   H     0.08532   0.98367   0.33282   0.00000  Uiso   1.00
H349   H     0.20147   0.02880   0.62597   0.00000  Uiso   1.00
H350   H     0.11047   0.66276   0.61845   0.00000  Uiso   1.00
H351   H     0.05394   0.02328   0.12167   0.00000  Uiso   1.00
H352   H     0.29888   0.11847   0.73985   0.00000  Uiso   1.00
H353   H     0.35496   0.87044   0.34654   0.00000  Uiso   1.00
H354   H     0.34004   0.73952   0.40154   0.00000  Uiso   1.00
H355   H     0.31323   0.91049   0.16593   0.00000  Uiso   1.00
H356   H     0.42939   0.95563   0.45909   0.00000  Uiso   1.00
H357   H     0.29545   0.60336   0.48299   0.00000  Uiso   1.00
H358   H     0.23892   0.96390   0.98622   0.00000  Uiso   1.00
H359   H     0.48386   0.05907   0.60440   0.00000  Uiso   1.00
O360   O     0.18924   0.54818   0.58972   0.00000  Uiso   1.00
O361   O     0.11508   0.02119   0.93798   0.00000  Uiso   1.00
O362   O     0.43643   0.14606   0.74902   0.00000  Uiso   1.00
N363   N     0.15606   0.66675   0.57904   0.00000  Uiso   1.00
N364   N     0.10320   0.00381   0.11458   0.00000  Uiso   1.00
N365   N     0.33220   0.09281   0.69251   0.00000  Uiso   1.00
N366   N     0.25560   0.63479   0.50615   0.00000  Uiso   1.00
N367   N     0.20274   0.97185   0.04170   0.00000  Uiso   1.00
N368   N     0.43174   0.06085   0.61962   0.00000  Uiso   1.00
