data_job_05331
_audit_creation_date              2018-12-19
_audit_creation_method            'Materials Studio'
_symmetry_space_group_name_H-M    'P1'
_symmetry_Int_Tables_number       1
_symmetry_cell_setting            triclinic
loop_
_symmetry_equiv_pos_as_xyz
  x,y,z
_cell_length_a                    26.5233
_cell_length_b                    26.5233
_cell_length_c                    7.1679
_cell_angle_alpha                 90.0000
_cell_angle_beta                  90.0000
_cell_angle_gamma                 120.0000
loop_
_atom_site_label
_atom_site_type_symbol
_atom_site_fract_x
_atom_site_fract_y
_atom_site_fract_z
_atom_site_U_iso_or_equiv
_atom_site_adp_type
_atom_site_occupancy
C1     C     0.60562   0.90880   0.53910   0.00000  Uiso   1.00
C2     C     0.66433   0.95589   0.46457   0.00000  Uiso   1.00
C3     C     0.70985   0.99744   0.57122   0.00000  Uiso   1.00
C4     C     0.75999   0.03673   0.47672   0.00000  Uiso   1.00
C5     C     0.85048   0.11021   0.39052   0.00000  Uiso   1.00
C6     C     0.55973   0.91668   0.43603   0.00000  Uiso   1.00
C7     C     0.51729   0.92526   0.51871   0.00000  Uiso   1.00
C8     C     0.47938   0.93153   0.40019   0.00000  Uiso   1.00
C9     C     0.40744   0.94409   0.26969   0.00000  Uiso   1.00
C10    C     0.59837   0.85100   0.47173   0.00000  Uiso   1.00
C11    C     0.58839   0.80435   0.58440   0.00000  Uiso   1.00
C12    C     0.58299   0.75531   0.49592   0.00000  Uiso   1.00
C13    C     0.57104   0.66590   0.42084   0.00000  Uiso   1.00
C14    C     0.61375   0.90467   0.18163   0.00000  Uiso   1.00
C15    C     0.66874   0.95365   0.27040   0.00000  Uiso   1.00
C16    C     0.71884   0.99287   0.17571   0.00000  Uiso   1.00
C17    C     0.76442   0.03448   0.28221   0.00000  Uiso   1.00
C18    C     0.56414   0.91444   0.24188   0.00000  Uiso   1.00
C19    C     0.52628   0.92069   0.12320   0.00000  Uiso   1.00
C20    C     0.48380   0.92928   0.20567   0.00000  Uiso   1.00
C21    C     0.60278   0.84876   0.27756   0.00000  Uiso   1.00
C22    C     0.59739   0.79978   0.18889   0.00000  Uiso   1.00
C23    C     0.58741   0.75307   0.30140   0.00000  Uiso   1.00
H24    H     0.60218   0.91054   0.69026   0.00000  Uiso   1.00
H25    H     0.70641   0.99917   0.72148   0.00000  Uiso   1.00
H26    H     0.51388   0.92698   0.66897   0.00000  Uiso   1.00
H27    H     0.58498   0.80610   0.73465   0.00000  Uiso   1.00
H28    H     0.82391   0.09645   0.67045   0.00000  Uiso   1.00
H29    H     0.41794   0.94423   0.55974   0.00000  Uiso   1.00
H30    H     0.56786   0.68931   0.69823   0.00000  Uiso   1.00
H31    H     0.61718   0.90292   0.03045   0.00000  Uiso   1.00
H32    H     0.72224   0.99113   0.02546   0.00000  Uiso   1.00
H33    H     0.52971   0.91895   0.97295   0.00000  Uiso   1.00
H34    H     0.60081   0.79806   0.03863   0.00000  Uiso   1.00
H35    H     0.83675   0.08993   0.10553   0.00000  Uiso   1.00
H36    H     0.43078   0.93770   0.99482   0.00000  Uiso   1.00
H37    H     0.58070   0.68279   0.13331   0.00000  Uiso   1.00
O38    O     0.89916   0.15136   0.39660   0.00000  Uiso   1.00
O39    O     0.36654   0.95164   0.25136   0.00000  Uiso   1.00
O40    O     0.56323   0.61721   0.43306   0.00000  Uiso   1.00
N41    N     0.81252   0.08280   0.53818   0.00000  Uiso   1.00
N42    N     0.43297   0.94049   0.43468   0.00000  Uiso   1.00
N43    N     0.57311   0.70216   0.56415   0.00000  Uiso   1.00
N44    N     0.81943   0.07929   0.23421   0.00000  Uiso   1.00
N45    N     0.43988   0.93698   0.13070   0.00000  Uiso   1.00
N46    N     0.58002   0.69865   0.26018   0.00000  Uiso   1.00
C47    C     0.09120   0.69682   0.87243   0.00000  Uiso   1.00
C48    C     0.04411   0.70845   0.79790   0.00000  Uiso   1.00
C49    C     0.00256   0.71240   0.90455   0.00000  Uiso   1.00
C50    C     0.96327   0.72327   0.81006   0.00000  Uiso   1.00
C51    C     0.88979   0.74027   0.72385   0.00000  Uiso   1.00
C52    C     0.08332   0.64305   0.76937   0.00000  Uiso   1.00
C53    C     0.07474   0.59203   0.85204   0.00000  Uiso   1.00
C54    C     0.06847   0.54785   0.73352   0.00000  Uiso   1.00
C55    C     0.05591   0.46335   0.60303   0.00000  Uiso   1.00
C56    C     0.14900   0.74736   0.80506   0.00000  Uiso   1.00
C57    C     0.19565   0.78405   0.91773   0.00000  Uiso   1.00
C58    C     0.24469   0.82768   0.82925   0.00000  Uiso   1.00
C59    C     0.33410   0.90514   0.75417   0.00000  Uiso   1.00
C60    C     0.09533   0.70908   0.51496   0.00000  Uiso   1.00
C61    C     0.04635   0.71510   0.60373   0.00000  Uiso   1.00
C62    C     0.00713   0.72596   0.50905   0.00000  Uiso   1.00
C63    C     0.96552   0.72994   0.61554   0.00000  Uiso   1.00
C64    C     0.08556   0.64971   0.57521   0.00000  Uiso   1.00
C65    C     0.07931   0.60559   0.45654   0.00000  Uiso   1.00
C66    C     0.07072   0.55452   0.53901   0.00000  Uiso   1.00
C67    C     0.15124   0.75402   0.61089   0.00000  Uiso   1.00
C68    C     0.20022   0.79760   0.52222   0.00000  Uiso   1.00
C69    C     0.24693   0.83435   0.63474   0.00000  Uiso   1.00
H70    H     0.08946   0.69164   0.02360   0.00000  Uiso   1.00
H71    H     0.00083   0.70725   0.05481   0.00000  Uiso   1.00
H72    H     0.07302   0.58690   0.00230   0.00000  Uiso   1.00
H73    H     0.19390   0.77888   0.06798   0.00000  Uiso   1.00
H74    H     0.90355   0.72746   0.00378   0.00000  Uiso   1.00
H75    H     0.05577   0.47371   0.89307   0.00000  Uiso   1.00
H76    H     0.31069   0.87855   0.03156   0.00000  Uiso   1.00
H77    H     0.09708   0.71426   0.36379   0.00000  Uiso   1.00
H78    H     0.00887   0.73111   0.35879   0.00000  Uiso   1.00
H79    H     0.08105   0.61076   0.30629   0.00000  Uiso   1.00
H80    H     0.20194   0.80274   0.37196   0.00000  Uiso   1.00
H81    H     0.91007   0.74683   0.43886   0.00000  Uiso   1.00
H82    H     0.06230   0.49307   0.32816   0.00000  Uiso   1.00
H83    H     0.31721   0.89791   0.46665   0.00000  Uiso   1.00
O84    O     0.84864   0.74780   0.72994   0.00000  Uiso   1.00
O85    O     0.04836   0.41489   0.58469   0.00000  Uiso   1.00
O86    O     0.38279   0.94603   0.76639   0.00000  Uiso   1.00
N87    N     0.91720   0.72972   0.87152   0.00000  Uiso   1.00
N88    N     0.05951   0.49247   0.76801   0.00000  Uiso   1.00
N89    N     0.29784   0.87095   0.89749   0.00000  Uiso   1.00
N90    N     0.92071   0.74014   0.56754   0.00000  Uiso   1.00
N91    N     0.06302   0.50289   0.46403   0.00000  Uiso   1.00
N92    N     0.30135   0.88137   0.59351   0.00000  Uiso   1.00
C93    C     0.30318   0.39438   0.20577   0.00000  Uiso   1.00
C94    C     0.29155   0.33567   0.13123   0.00000  Uiso   1.00
C95    C     0.28760   0.29015   0.23788   0.00000  Uiso   1.00
C96    C     0.27673   0.24001   0.14339   0.00000  Uiso   1.00
C97    C     0.25973   0.14952   0.05718   0.00000  Uiso   1.00
C98    C     0.35695   0.44027   0.10270   0.00000  Uiso   1.00
C99    C     0.40797   0.48271   0.18538   0.00000  Uiso   1.00
C100   C     0.45215   0.52062   0.06685   0.00000  Uiso   1.00
C101   C     0.53665   0.59256   0.93636   0.00000  Uiso   1.00
C102   C     0.25264   0.40163   0.13839   0.00000  Uiso   1.00
C103   C     0.21595   0.41161   0.25106   0.00000  Uiso   1.00
C104   C     0.17232   0.41701   0.16259   0.00000  Uiso   1.00
C105   C     0.09486   0.42896   0.08750   0.00000  Uiso   1.00
C106   C     0.29092   0.38625   0.84829   0.00000  Uiso   1.00
C107   C     0.28490   0.33126   0.93706   0.00000  Uiso   1.00
C108   C     0.27404   0.28116   0.84238   0.00000  Uiso   1.00
C109   C     0.27006   0.23558   0.94888   0.00000  Uiso   1.00
C110   C     0.35029   0.43586   0.90854   0.00000  Uiso   1.00
C111   C     0.39441   0.47372   0.78987   0.00000  Uiso   1.00
C112   C     0.44548   0.51620   0.87234   0.00000  Uiso   1.00
C113   C     0.24598   0.39722   0.94422   0.00000  Uiso   1.00
C114   C     0.20240   0.40261   0.85556   0.00000  Uiso   1.00
C115   C     0.16565   0.41259   0.96807   0.00000  Uiso   1.00
H116   H     0.30836   0.39782   0.35693   0.00000  Uiso   1.00
H117   H     0.29275   0.29359   0.38815   0.00000  Uiso   1.00
H118   H     0.41310   0.48612   0.33564   0.00000  Uiso   1.00
H119   H     0.22112   0.41502   0.40131   0.00000  Uiso   1.00
H120   H     0.27254   0.17609   0.33711   0.00000  Uiso   1.00
H121   H     0.52629   0.58206   0.22640   0.00000  Uiso   1.00
H122   H     0.12145   0.43214   0.36490   0.00000  Uiso   1.00
H123   H     0.28574   0.38282   0.69712   0.00000  Uiso   1.00
H124   H     0.26889   0.27776   0.69212   0.00000  Uiso   1.00
H125   H     0.38924   0.47029   0.63962   0.00000  Uiso   1.00
H126   H     0.19726   0.39919   0.70530   0.00000  Uiso   1.00
H127   H     0.25317   0.16325   0.77220   0.00000  Uiso   1.00
H128   H     0.50693   0.56922   0.66149   0.00000  Uiso   1.00
H129   H     0.10209   0.41930   0.79998   0.00000  Uiso   1.00
O130   O     0.25220   0.10084   0.06327   0.00000  Uiso   1.00
O131   O     0.58511   0.63346   0.91803   0.00000  Uiso   1.00
O132   O     0.05397   0.43677   0.09973   0.00000  Uiso   1.00
N133   N     0.27028   0.18748   0.20485   0.00000  Uiso   1.00
N134   N     0.50753   0.56703   0.10134   0.00000  Uiso   1.00
N135   N     0.12905   0.42689   0.23082   0.00000  Uiso   1.00
N136   N     0.25986   0.18057   0.90087   0.00000  Uiso   1.00
N137   N     0.49711   0.56012   0.79737   0.00000  Uiso   1.00
N138   N     0.11863   0.41998   0.92684   0.00000  Uiso   1.00
C139   C     0.39438   0.09120   0.03910   0.00000  Uiso   1.00
C140   C     0.33567   0.04411   0.96457   0.00000  Uiso   1.00
C141   C     0.29015   0.00256   0.07122   0.00000  Uiso   1.00
C142   C     0.24001   0.96327   0.97672   0.00000  Uiso   1.00
C143   C     0.14952   0.88979   0.89052   0.00000  Uiso   1.00
C144   C     0.44027   0.08332   0.93603   0.00000  Uiso   1.00
C145   C     0.48271   0.07474   0.01871   0.00000  Uiso   1.00
C146   C     0.52062   0.06847   0.90019   0.00000  Uiso   1.00
C147   C     0.59256   0.05591   0.76969   0.00000  Uiso   1.00
C148   C     0.40163   0.14900   0.97173   0.00000  Uiso   1.00
C149   C     0.41161   0.19565   0.08440   0.00000  Uiso   1.00
C150   C     0.41701   0.24469   0.99592   0.00000  Uiso   1.00
C151   C     0.42896   0.33410   0.92084   0.00000  Uiso   1.00
C152   C     0.38625   0.09533   0.68163   0.00000  Uiso   1.00
C153   C     0.33126   0.04635   0.77040   0.00000  Uiso   1.00
C154   C     0.28116   0.00713   0.67571   0.00000  Uiso   1.00
C155   C     0.23558   0.96552   0.78221   0.00000  Uiso   1.00
C156   C     0.43586   0.08556   0.74188   0.00000  Uiso   1.00
C157   C     0.47372   0.07931   0.62320   0.00000  Uiso   1.00
C158   C     0.51620   0.07072   0.70567   0.00000  Uiso   1.00
C159   C     0.39722   0.15124   0.77756   0.00000  Uiso   1.00
C160   C     0.40261   0.20022   0.68889   0.00000  Uiso   1.00
C161   C     0.41259   0.24693   0.80140   0.00000  Uiso   1.00
H162   H     0.39782   0.08946   0.19026   0.00000  Uiso   1.00
H163   H     0.29359   0.00083   0.22148   0.00000  Uiso   1.00
H164   H     0.48612   0.07302   0.16897   0.00000  Uiso   1.00
H165   H     0.41502   0.19390   0.23465   0.00000  Uiso   1.00
H166   H     0.17609   0.90355   0.17045   0.00000  Uiso   1.00
H167   H     0.58206   0.05577   0.05974   0.00000  Uiso   1.00
H168   H     0.43214   0.31069   0.19823   0.00000  Uiso   1.00
H169   H     0.38282   0.09708   0.53045   0.00000  Uiso   1.00
H170   H     0.27776   0.00887   0.52546   0.00000  Uiso   1.00
H171   H     0.47029   0.08105   0.47295   0.00000  Uiso   1.00
H172   H     0.39919   0.20194   0.53863   0.00000  Uiso   1.00
H173   H     0.16325   0.91007   0.60553   0.00000  Uiso   1.00
H174   H     0.56922   0.06230   0.49482   0.00000  Uiso   1.00
H175   H     0.41930   0.31721   0.63331   0.00000  Uiso   1.00
O176   O     0.10084   0.84864   0.89660   0.00000  Uiso   1.00
O177   O     0.63346   0.04836   0.75136   0.00000  Uiso   1.00
O178   O     0.43677   0.38279   0.93306   0.00000  Uiso   1.00
N179   N     0.18748   0.91720   0.03818   0.00000  Uiso   1.00
N180   N     0.56703   0.05951   0.93468   0.00000  Uiso   1.00
N181   N     0.42689   0.29784   0.06415   0.00000  Uiso   1.00
N182   N     0.18057   0.92071   0.73421   0.00000  Uiso   1.00
N183   N     0.56012   0.06302   0.63070   0.00000  Uiso   1.00
N184   N     0.41998   0.30135   0.76018   0.00000  Uiso   1.00
C185   C     0.90880   0.30318   0.37243   0.00000  Uiso   1.00
C186   C     0.95589   0.29155   0.29790   0.00000  Uiso   1.00
C187   C     0.99744   0.28760   0.40455   0.00000  Uiso   1.00
C188   C     0.03673   0.27673   0.31006   0.00000  Uiso   1.00
C189   C     0.11021   0.25973   0.22385   0.00000  Uiso   1.00
C190   C     0.91668   0.35695   0.26937   0.00000  Uiso   1.00
C191   C     0.92526   0.40797   0.35204   0.00000  Uiso   1.00
C192   C     0.93153   0.45215   0.23352   0.00000  Uiso   1.00
C193   C     0.94409   0.53665   0.10303   0.00000  Uiso   1.00
C194   C     0.85100   0.25264   0.30506   0.00000  Uiso   1.00
C195   C     0.80435   0.21595   0.41773   0.00000  Uiso   1.00
C196   C     0.75531   0.17232   0.32925   0.00000  Uiso   1.00
C197   C     0.66590   0.09486   0.25417   0.00000  Uiso   1.00
C198   C     0.90467   0.29092   0.01496   0.00000  Uiso   1.00
C199   C     0.95365   0.28490   0.10373   0.00000  Uiso   1.00
C200   C     0.99287   0.27404   0.00905   0.00000  Uiso   1.00
C201   C     0.03448   0.27006   0.11554   0.00000  Uiso   1.00
C202   C     0.91444   0.35029   0.07521   0.00000  Uiso   1.00
C203   C     0.92069   0.39441   0.95654   0.00000  Uiso   1.00
C204   C     0.92928   0.44548   0.03901   0.00000  Uiso   1.00
C205   C     0.84876   0.24598   0.11089   0.00000  Uiso   1.00
C206   C     0.79978   0.20240   0.02222   0.00000  Uiso   1.00
C207   C     0.75307   0.16565   0.13474   0.00000  Uiso   1.00
H208   H     0.91054   0.30836   0.52360   0.00000  Uiso   1.00
H209   H     0.99917   0.29275   0.55481   0.00000  Uiso   1.00
H210   H     0.92698   0.41310   0.50230   0.00000  Uiso   1.00
H211   H     0.80610   0.22112   0.56798   0.00000  Uiso   1.00
H212   H     0.09645   0.27254   0.50378   0.00000  Uiso   1.00
H213   H     0.94423   0.52629   0.39307   0.00000  Uiso   1.00
H214   H     0.68931   0.12145   0.53156   0.00000  Uiso   1.00
H215   H     0.90292   0.28574   0.86379   0.00000  Uiso   1.00
H216   H     0.99113   0.26889   0.85879   0.00000  Uiso   1.00
H217   H     0.91895   0.38924   0.80629   0.00000  Uiso   1.00
H218   H     0.79806   0.19726   0.87196   0.00000  Uiso   1.00
H219   H     0.08993   0.25317   0.93886   0.00000  Uiso   1.00
H220   H     0.93770   0.50693   0.82816   0.00000  Uiso   1.00
H221   H     0.68279   0.10209   0.96665   0.00000  Uiso   1.00
O222   O     0.15136   0.25220   0.22994   0.00000  Uiso   1.00
O223   O     0.95164   0.58511   0.08469   0.00000  Uiso   1.00
O224   O     0.61721   0.05397   0.26639   0.00000  Uiso   1.00
N225   N     0.08280   0.27028   0.37152   0.00000  Uiso   1.00
N226   N     0.94049   0.50753   0.26801   0.00000  Uiso   1.00
N227   N     0.70216   0.12905   0.39749   0.00000  Uiso   1.00
N228   N     0.07929   0.25986   0.06754   0.00000  Uiso   1.00
N229   N     0.93698   0.49711   0.96403   0.00000  Uiso   1.00
N230   N     0.69865   0.11863   0.09351   0.00000  Uiso   1.00
C231   C     0.69682   0.60562   0.70577   0.00000  Uiso   1.00
C232   C     0.70845   0.66433   0.63123   0.00000  Uiso   1.00
C233   C     0.71240   0.70985   0.73788   0.00000  Uiso   1.00
C234   C     0.72327   0.75999   0.64339   0.00000  Uiso   1.00
C235   C     0.74027   0.85048   0.55718   0.00000  Uiso   1.00
C236   C     0.64305   0.55973   0.60270   0.00000  Uiso   1.00
C237   C     0.59203   0.51729   0.68538   0.00000  Uiso   1.00
C238   C     0.54785   0.47938   0.56685   0.00000  Uiso   1.00
C239   C     0.46335   0.40744   0.43636   0.00000  Uiso   1.00
C240   C     0.74736   0.59837   0.63839   0.00000  Uiso   1.00
C241   C     0.78405   0.58839   0.75106   0.00000  Uiso   1.00
C242   C     0.82768   0.58299   0.66259   0.00000  Uiso   1.00
C243   C     0.90514   0.57104   0.58750   0.00000  Uiso   1.00
C244   C     0.70908   0.61375   0.34829   0.00000  Uiso   1.00
C245   C     0.71510   0.66874   0.43706   0.00000  Uiso   1.00
C246   C     0.72596   0.71884   0.34238   0.00000  Uiso   1.00
C247   C     0.72994   0.76442   0.44888   0.00000  Uiso   1.00
C248   C     0.64971   0.56414   0.40854   0.00000  Uiso   1.00
C249   C     0.60559   0.52628   0.28987   0.00000  Uiso   1.00
C250   C     0.55452   0.48380   0.37234   0.00000  Uiso   1.00
C251   C     0.75402   0.60278   0.44422   0.00000  Uiso   1.00
C252   C     0.79760   0.59739   0.35556   0.00000  Uiso   1.00
C253   C     0.83435   0.58741   0.46807   0.00000  Uiso   1.00
H254   H     0.69164   0.60218   0.85693   0.00000  Uiso   1.00
H255   H     0.70725   0.70641   0.88815   0.00000  Uiso   1.00
H256   H     0.58690   0.51388   0.83564   0.00000  Uiso   1.00
H257   H     0.77888   0.58498   0.90131   0.00000  Uiso   1.00
H258   H     0.72746   0.82391   0.83711   0.00000  Uiso   1.00
H259   H     0.47371   0.41794   0.72640   0.00000  Uiso   1.00
H260   H     0.87855   0.56786   0.86490   0.00000  Uiso   1.00
H261   H     0.71426   0.61718   0.19712   0.00000  Uiso   1.00
H262   H     0.73111   0.72224   0.19212   0.00000  Uiso   1.00
H263   H     0.61076   0.52971   0.13962   0.00000  Uiso   1.00
H264   H     0.80274   0.60081   0.20530   0.00000  Uiso   1.00
H265   H     0.74683   0.83675   0.27220   0.00000  Uiso   1.00
H266   H     0.49307   0.43078   0.16149   0.00000  Uiso   1.00
H267   H     0.89791   0.58070   0.29998   0.00000  Uiso   1.00
O268   O     0.74780   0.89916   0.56327   0.00000  Uiso   1.00
O269   O     0.41489   0.36654   0.41803   0.00000  Uiso   1.00
O270   O     0.94603   0.56323   0.59973   0.00000  Uiso   1.00
N271   N     0.72972   0.81252   0.70485   0.00000  Uiso   1.00
N272   N     0.49247   0.43297   0.60134   0.00000  Uiso   1.00
N273   N     0.87095   0.57311   0.73082   0.00000  Uiso   1.00
N274   N     0.74014   0.81943   0.40087   0.00000  Uiso   1.00
N275   N     0.50289   0.43988   0.29737   0.00000  Uiso   1.00
N276   N     0.88137   0.58002   0.42684   0.00000  Uiso   1.00
