data_job_07065
_audit_creation_date              2018-12-19
_audit_creation_method            'Materials Studio'
_symmetry_space_group_name_H-M    'P1'
_symmetry_Int_Tables_number       1
_symmetry_cell_setting            triclinic
loop_
_symmetry_equiv_pos_as_xyz
  x,y,z
_cell_length_a                    19.2321
_cell_length_b                    22.8457
_cell_length_c                    25.8883
_cell_angle_alpha                 70.9236
_cell_angle_beta                  108.1134
_cell_angle_gamma                 79.4460
loop_
_atom_site_label
_atom_site_type_symbol
_atom_site_fract_x
_atom_site_fract_y
_atom_site_fract_z
_atom_site_U_iso_or_equiv
_atom_site_adp_type
_atom_site_occupancy
C1     C     0.18350   0.26560   0.18625   0.00000  Uiso   1.00
C2     C     0.18609   0.24188   0.13803   0.00000  Uiso   1.00
C3     C     0.21595   0.17752   0.14720   0.00000  Uiso   1.00
C4     C     0.21296   0.16587   0.09729   0.00000  Uiso   1.00
C5     C     0.22184   0.12129   0.03109   0.00000  Uiso   1.00
C6     C     0.22531   0.31652   0.18143   0.00000  Uiso   1.00
C7     C     0.28814   0.31492   0.22708   0.00000  Uiso   1.00
C8     C     0.31815   0.36612   0.21370   0.00000  Uiso   1.00
C9     C     0.38789   0.43745   0.21489   0.00000  Uiso   1.00
C10    C     0.09906   0.30267   0.16738   0.00000  Uiso   1.00
C11    C     0.05575   0.28943   0.20123   0.00000  Uiso   1.00
C12    C     0.97948   0.32898   0.17603   0.00000  Uiso   1.00
C13    C     0.85320   0.37879   0.15540   0.00000  Uiso   1.00
C14    C     0.12506   0.35937   0.08131   0.00000  Uiso   1.00
C15    C     0.15435   0.29281   0.08104   0.00000  Uiso   1.00
C16    C     0.15130   0.28126   0.03110   0.00000  Uiso   1.00
C17    C     0.18116   0.21689   0.04019   0.00000  Uiso   1.00
C18    C     0.19357   0.36745   0.12443   0.00000  Uiso   1.00
C19    C     0.22349   0.41866   0.11098   0.00000  Uiso   1.00
C20    C     0.28636   0.41714   0.15660   0.00000  Uiso   1.00
C21    C     0.06732   0.35360   0.11038   0.00000  Uiso   1.00
C22    C     0.99110   0.39317   0.08513   0.00000  Uiso   1.00
C23    C     0.94768   0.38000   0.11893   0.00000  Uiso   1.00
H24    H     0.20821   0.22596   0.23063   0.00000  Uiso   1.00
H25    H     0.24052   0.13812   0.19132   0.00000  Uiso   1.00
H26    H     0.31269   0.27551   0.27119   0.00000  Uiso   1.00
H27    H     0.08033   0.25002   0.24534   0.00000  Uiso   1.00
H28    H     0.26236   0.06320   0.12260   0.00000  Uiso   1.00
H29    H     0.41452   0.35290   0.29102   0.00000  Uiso   1.00
H30    H     0.92456   0.29915   0.23651   0.00000  Uiso   1.00
H31    H     0.10035   0.39902   0.03694   0.00000  Uiso   1.00
H32    H     0.12674   0.32068   0.98700   0.00000  Uiso   1.00
H33    H     0.19891   0.45807   0.06687   0.00000  Uiso   1.00
H34    H     0.96656   0.43258   0.04102   0.00000  Uiso   1.00
H35    H     0.17002   0.21137   0.95677   0.00000  Uiso   1.00
H36    H     0.32218   0.50107   0.12519   0.00000  Uiso   1.00
H37    H     0.83221   0.44732   0.07067   0.00000  Uiso   1.00
O38    O     0.23552   0.08263   0.01033   0.00000  Uiso   1.00
O39    O     0.43513   0.46271   0.23129   0.00000  Uiso   1.00
O40    O     0.79231   0.39219   0.15977   0.00000  Uiso   1.00
N41    N     0.23699   0.10882   0.09042   0.00000  Uiso   1.00
N42    N     0.37926   0.37967   0.24788   0.00000  Uiso   1.00
N43    N     0.92119   0.32943   0.19692   0.00000  Uiso   1.00
N44    N     0.18730   0.18855   0.00119   0.00000  Uiso   1.00
N45    N     0.32957   0.45940   0.15865   0.00000  Uiso   1.00
N46    N     0.87150   0.40916   0.10769   0.00000  Uiso   1.00
C47    C     0.53392   0.16622   0.99745   0.00000  Uiso   1.00
C48    C     0.47909   0.16625   0.94038   0.00000  Uiso   1.00
C49    C     0.49121   0.17751   0.88834   0.00000  Uiso   1.00
C50    C     0.43412   0.17545   0.84105   0.00000  Uiso   1.00
C51    C     0.35912   0.17749   0.75171   0.00000  Uiso   1.00
C52    C     0.48717   0.21631   0.01105   0.00000  Uiso   1.00
C53    C     0.50608   0.26966   0.01844   0.00000  Uiso   1.00
C54    C     0.45580   0.30973   0.03064   0.00000  Uiso   1.00
C55    C     0.39336   0.38947   0.05106   0.00000  Uiso   1.00
C56    C     0.55127   0.09985   0.04678   0.00000  Uiso   1.00
C57    C     0.62409   0.05528   0.08423   0.00000  Uiso   1.00
C58    C     0.62778   0.99731   0.12654   0.00000  Uiso   1.00
C59    C     0.66487   0.89622   0.20244   0.00000  Uiso   1.00
C60    C     0.41099   0.14251   0.00599   0.00000  Uiso   1.00
C61    C     0.41232   0.15337   0.94502   0.00000  Uiso   1.00
C62    C     0.35520   0.15128   0.89779   0.00000  Uiso   1.00
C63    C     0.36723   0.16254   0.84569   0.00000  Uiso   1.00
C64    C     0.42040   0.20344   0.01569   0.00000  Uiso   1.00
C65    C     0.37007   0.24343   0.02789   0.00000  Uiso   1.00
C66    C     0.38891   0.29684   0.03529   0.00000  Uiso   1.00
C67    C     0.48450   0.08697   0.05142   0.00000  Uiso   1.00
C68    C     0.48808   0.02905   0.09368   0.00000  Uiso   1.00
C69    C     0.56089   0.98441   0.13119   0.00000  Uiso   1.00
H70    H     0.58591   0.17624   0.99384   0.00000  Uiso   1.00
H71    H     0.54289   0.18748   0.88477   0.00000  Uiso   1.00
H72    H     0.55776   0.27961   0.01485   0.00000  Uiso   1.00
H73    H     0.67575   0.06526   0.08063   0.00000  Uiso   1.00
H74    H     0.46573   0.19429   0.76587   0.00000  Uiso   1.00
H75    H     0.49711   0.38854   0.04018   0.00000  Uiso   1.00
H76    H     0.74591   0.93654   0.17890   0.00000  Uiso   1.00
H77    H     0.35901   0.13249   0.00961   0.00000  Uiso   1.00
H78    H     0.30353   0.14132   0.90139   0.00000  Uiso   1.00
H79    H     0.31841   0.23345   0.03148   0.00000  Uiso   1.00
H80    H     0.43639   0.01911   0.09726   0.00000  Uiso   1.00
H81    H     0.27146   0.15682   0.77937   0.00000  Uiso   1.00
H82    H     0.30284   0.35107   0.05368   0.00000  Uiso   1.00
H83    H     0.55164   0.89908   0.19239   0.00000  Uiso   1.00
O84    O     0.33619   0.18218   0.70115   0.00000  Uiso   1.00
O85    O     0.37737   0.43702   0.06103   0.00000  Uiso   1.00
O86    O     0.70378   0.84402   0.24303   0.00000  Uiso   1.00
N87    N     0.42763   0.18424   0.78391   0.00000  Uiso   1.00
N88    N     0.45696   0.36586   0.04035   0.00000  Uiso   1.00
N89    N     0.68957   0.94329   0.17006   0.00000  Uiso   1.00
N90    N     0.32310   0.16408   0.79117   0.00000  Uiso   1.00
N91    N     0.35243   0.34570   0.04762   0.00000  Uiso   1.00
N92    N     0.58503   0.92313   0.17732   0.00000  Uiso   1.00
C93    C     0.33306   0.51600   0.41164   0.00000  Uiso   1.00
C94    C     0.40286   0.46513   0.41863   0.00000  Uiso   1.00
C95    C     0.43693   0.47108   0.37793   0.00000  Uiso   1.00
C96    C     0.50029   0.41911   0.39254   0.00000  Uiso   1.00
C97    C     0.60435   0.34860   0.39526   0.00000  Uiso   1.00
C98    C     0.27332   0.48140   0.41709   0.00000  Uiso   1.00
C99    C     0.19848   0.50104   0.37511   0.00000  Uiso   1.00
C100   C     0.15280   0.46277   0.38843   0.00000  Uiso   1.00
C101   C     0.05574   0.41755   0.38879   0.00000  Uiso   1.00
C102   C     0.35859   0.53098   0.46656   0.00000  Uiso   1.00
C103   C     0.35543   0.59230   0.46618   0.00000  Uiso   1.00
C104   C     0.38153   0.59578   0.52115   0.00000  Uiso   1.00
C105   C     0.41686   0.62754   0.59831   0.00000  Uiso   1.00
C106   C     0.38500   0.41313   0.50994   0.00000  Uiso   1.00
C107   C     0.43107   0.40925   0.47202   0.00000  Uiso   1.00
C108   C     0.49440   0.35726   0.48670   0.00000  Uiso   1.00
C109   C     0.52856   0.36313   0.44603   0.00000  Uiso   1.00
C110   C     0.30153   0.42552   0.47049   0.00000  Uiso   1.00
C111   C     0.25595   0.38722   0.48388   0.00000  Uiso   1.00
C112   C     0.18107   0.40679   0.44193   0.00000  Uiso   1.00
C113   C     0.38681   0.47510   0.51996   0.00000  Uiso   1.00
C114   C     0.41291   0.47848   0.57494   0.00000  Uiso   1.00
C115   C     0.40979   0.53980   0.57464   0.00000  Uiso   1.00
H116   H     0.31109   0.55950   0.37007   0.00000  Uiso   1.00
H117   H     0.41507   0.51432   0.33661   0.00000  Uiso   1.00
H118   H     0.17666   0.54428   0.33380   0.00000  Uiso   1.00
H119   H     0.33360   0.63553   0.42485   0.00000  Uiso   1.00
H120   H     0.54278   0.43958   0.32306   0.00000  Uiso   1.00
H121   H     0.04008   0.50276   0.31713   0.00000  Uiso   1.00
H122   H     0.37099   0.69519   0.50913   0.00000  Uiso   1.00
H123   H     0.40697   0.36962   0.55152   0.00000  Uiso   1.00
H124   H     0.51622   0.31403   0.52802   0.00000  Uiso   1.00
H125   H     0.27780   0.34398   0.52520   0.00000  Uiso   1.00
H126   H     0.43473   0.43523   0.61625   0.00000  Uiso   1.00
H127   H     0.62487   0.27701   0.47841   0.00000  Uiso   1.00
H128   H     0.12216   0.34019   0.47248   0.00000  Uiso   1.00
H129   H     0.45308   0.53261   0.66448   0.00000  Uiso   1.00
O130   O     0.65395   0.32514   0.38200   0.00000  Uiso   1.00
O131   O     0.99441   0.40804   0.37422   0.00000  Uiso   1.00
O132   O     0.42857   0.66049   0.62612   0.00000  Uiso   1.00
N133   N     0.54712   0.40896   0.36285   0.00000  Uiso   1.00
N134   N     0.07712   0.46802   0.35731   0.00000  Uiso   1.00
N135   N     0.38648   0.64792   0.53681   0.00000  Uiso   1.00
N136   N     0.59129   0.32148   0.44645   0.00000  Uiso   1.00
N137   N     0.12129   0.38054   0.44090   0.00000  Uiso   1.00
N138   N     0.43065   0.56045   0.62040   0.00000  Uiso   1.00
C139   C     0.76502   0.42606   0.45170   0.00000  Uiso   1.00
C140   C     0.78977   0.45245   0.40045   0.00000  Uiso   1.00
C141   C     0.77716   0.43485   0.35265   0.00000  Uiso   1.00
C142   C     0.80425   0.46453   0.31038   0.00000  Uiso   1.00
C143   C     0.83682   0.49858   0.22996   0.00000  Uiso   1.00
C144   C     0.71539   0.48553   0.45282   0.00000  Uiso   1.00
C145   C     0.64026   0.49574   0.44908   0.00000  Uiso   1.00
C146   C     0.60475   0.55326   0.45090   0.00000  Uiso   1.00
C147   C     0.52187   0.63865   0.45184   0.00000  Uiso   1.00
C148   C     0.83821   0.39779   0.50863   0.00000  Uiso   1.00
C149   C     0.86634   0.33423   0.55180   0.00000  Uiso   1.00
C150   C     0.93422   0.31788   0.60062   0.00000  Uiso   1.00
C151   C     0.04203   0.26704   0.68820   0.00000  Uiso   1.00
C152   C     0.83553   0.51007   0.46162   0.00000  Uiso   1.00
C153   C     0.82807   0.49808   0.40584   0.00000  Uiso   1.00
C154   C     0.85518   0.52779   0.36363   0.00000  Uiso   1.00
C155   C     0.84262   0.51024   0.31578   0.00000  Uiso   1.00
C156   C     0.75369   0.53116   0.45821   0.00000  Uiso   1.00
C157   C     0.71828   0.58868   0.46005   0.00000  Uiso   1.00
C158   C     0.64311   0.59897   0.45630   0.00000  Uiso   1.00
C159   C     0.87651   0.44342   0.51402   0.00000  Uiso   1.00
C160   C     0.94436   0.42717   0.56278   0.00000  Uiso   1.00
C161   C     0.97258   0.36360   0.60602   0.00000  Uiso   1.00
H162   H     0.73519   0.39054   0.44751   0.00000  Uiso   1.00
H163   H     0.74751   0.39954   0.34849   0.00000  Uiso   1.00
H164   H     0.61064   0.46041   0.44491   0.00000  Uiso   1.00
H165   H     0.83668   0.29893   0.54762   0.00000  Uiso   1.00
H166   H     0.77804   0.42966   0.24109   0.00000  Uiso   1.00
H167   H     0.48944   0.55800   0.44440   0.00000  Uiso   1.00
H168   H     0.96609   0.21748   0.66099   0.00000  Uiso   1.00
H169   H     0.86535   0.54560   0.46582   0.00000  Uiso   1.00
H170   H     0.88482   0.56310   0.36781   0.00000  Uiso   1.00
H171   H     0.74794   0.62398   0.46422   0.00000  Uiso   1.00
H172   H     0.97398   0.46249   0.56693   0.00000  Uiso   1.00
H173   H     0.88948   0.56241   0.25676   0.00000  Uiso   1.00
H174   H     0.60088   0.69075   0.46008   0.00000  Uiso   1.00
H175   H     0.07753   0.35024   0.67666   0.00000  Uiso   1.00
O176   O     0.84419   0.50477   0.18411   0.00000  Uiso   1.00
O177   O     0.46557   0.67314   0.45087   0.00000  Uiso   1.00
O178   O     0.09092   0.22639   0.73502   0.00000  Uiso   1.00
N179   N     0.80161   0.45849   0.25823   0.00000  Uiso   1.00
N180   N     0.53178   0.57849   0.44831   0.00000  Uiso   1.00
N181   N     0.97740   0.26013   0.65081   0.00000  Uiso   1.00
N182   N     0.86157   0.52992   0.26667   0.00000  Uiso   1.00
N183   N     0.59174   0.64992   0.45675   0.00000  Uiso   1.00
N184   N     0.03736   0.33157   0.65924   0.00000  Uiso   1.00
C185   C     0.53878   0.76546   0.95924   0.00000  Uiso   1.00
C186   C     0.57381   0.73809   0.92331   0.00000  Uiso   1.00
C187   C     0.55404   0.76847   0.86243   0.00000  Uiso   1.00
C188   C     0.59276   0.73542   0.83794   0.00000  Uiso   1.00
C189   C     0.63859   0.70225   0.77681   0.00000  Uiso   1.00
C190   C     0.60619   0.76698   0.00851   0.00000  Uiso   1.00
C191   C     0.61362   0.82165   0.01926   0.00000  Uiso   1.00
C192   C     0.67960   0.81292   0.06648   0.00000  Uiso   1.00
C193   C     0.77566   0.82458   0.13764   0.00000  Uiso   1.00
C194   C     0.50759   0.71407   0.99028   0.00000  Uiso   1.00
C195   C     0.43213   0.72426   0.98573   0.00000  Uiso   1.00
C196   C     0.41511   0.67098   0.01763   0.00000  Uiso   1.00
C197   C     0.35809   0.60050   0.06049   0.00000  Uiso   1.00
C198   C     0.64273   0.65273   0.02400   0.00000  Uiso   1.00
C199   C     0.63027   0.67686   0.95849   0.00000  Uiso   1.00
C200   C     0.66904   0.64375   0.93408   0.00000  Uiso   1.00
C201   C     0.64932   0.67408   0.87318   0.00000  Uiso   1.00
C202   C     0.66264   0.70575   0.04368   0.00000  Uiso   1.00
C203   C     0.72862   0.69693   0.09090   0.00000  Uiso   1.00
C204   C     0.73616   0.75158   0.10172   0.00000  Uiso   1.00
C205   C     0.56405   0.65284   0.02546   0.00000  Uiso   1.00
C206   C     0.54714   0.59953   0.05737   0.00000  Uiso   1.00
C207   C     0.47167   0.60964   0.05286   0.00000  Uiso   1.00
H208   H     0.49483   0.81313   0.93186   0.00000  Uiso   1.00
H209   H     0.51034   0.81586   0.83523   0.00000  Uiso   1.00
H210   H     0.56992   0.86903   0.99203   0.00000  Uiso   1.00
H211   H     0.38846   0.77165   0.95851   0.00000  Uiso   1.00
H212   H     0.55246   0.79190   0.74361   0.00000  Uiso   1.00
H213   H     0.67806   0.90400   0.07425   0.00000  Uiso   1.00
H214   H     0.29542   0.69866   0.00356   0.00000  Uiso   1.00
H215   H     0.68668   0.60506   0.05139   0.00000  Uiso   1.00
H216   H     0.71272   0.59636   0.96131   0.00000  Uiso   1.00
H217   H     0.77230   0.64953   0.11812   0.00000  Uiso   1.00
H218   H     0.59084   0.55215   0.08459   0.00000  Uiso   1.00
H219   H     0.71672   0.61375   0.84595   0.00000  Uiso   1.00
H220   H     0.84232   0.72585   0.17659   0.00000  Uiso   1.00
H221   H     0.45968   0.52050   0.10589   0.00000  Uiso   1.00
O222   O     0.64828   0.70087   0.73337   0.00000  Uiso   1.00
O223   O     0.81305   0.84794   0.16717   0.00000  Uiso   1.00
O224   O     0.31104   0.57853   0.07441   0.00000  Uiso   1.00
N225   N     0.58754   0.75116   0.78006   0.00000  Uiso   1.00
N226   N     0.70497   0.85597   0.08918   0.00000  Uiso   1.00
N227   N     0.34724   0.66399   0.02310   0.00000  Uiso   1.00
N228   N     0.67592   0.65529   0.83512   0.00000  Uiso   1.00
N229   N     0.79336   0.76010   0.14424   0.00000  Uiso   1.00
N230   N     0.43562   0.56813   0.07816   0.00000  Uiso   1.00
C231   C     0.74821   0.95986   0.56066   0.00000  Uiso   1.00
C232   C     0.71144   0.96401   0.49768   0.00000  Uiso   1.00
C233   C     0.73993   0.98195   0.45376   0.00000  Uiso   1.00
C234   C     0.69785   0.98272   0.39904   0.00000  Uiso   1.00
C235   C     0.65113   0.99165   0.30282   0.00000  Uiso   1.00
C236   C     0.76073   0.89042   0.60262   0.00000  Uiso   1.00
C237   C     0.83067   0.84649   0.64695   0.00000  Uiso   1.00
C238   C     0.83009   0.78532   0.68058   0.00000  Uiso   1.00
C239   C     0.85990   0.68003   0.74732   0.00000  Uiso   1.00
C240   C     0.68651   0.00422   0.56862   0.00000  Uiso   1.00
C241   C     0.69405   0.05597   0.58437   0.00000  Uiso   1.00
C242   C     0.63097   0.09061   0.58938   0.00000  Uiso   1.00
C243   C     0.54554   0.16200   0.60333   0.00000  Uiso   1.00
C244   C     0.62280   0.92933   0.54158   0.00000  Uiso   1.00
C245   C     0.64332   0.94742   0.48731   0.00000  Uiso   1.00
C246   C     0.60118   0.94817   0.43265   0.00000  Uiso   1.00
C247   C     0.62961   0.96611   0.38865   0.00000  Uiso   1.00
C248   C     0.69262   0.87384   0.59226   0.00000  Uiso   1.00
C249   C     0.69193   0.81272   0.62584   0.00000  Uiso   1.00
C250   C     0.76185   0.76871   0.67020   0.00000  Uiso   1.00
C251   C     0.61839   0.98764   0.55825   0.00000  Uiso   1.00
C252   C     0.55530   0.02220   0.56325   0.00000  Uiso   1.00
C253   C     0.56273   0.07399   0.57900   0.00000  Uiso   1.00
H254   H     0.80124   0.97277   0.56874   0.00000  Uiso   1.00
H255   H     0.79265   0.99477   0.46180   0.00000  Uiso   1.00
H256   H     0.88337   0.85934   0.65496   0.00000  Uiso   1.00
H257   H     0.74676   0.06879   0.59238   0.00000  Uiso   1.00
H258   H     0.75310   0.01183   0.33867   0.00000  Uiso   1.00
H259   H     0.94440   0.72628   0.74598   0.00000  Uiso   1.00
H260   H     0.65633   0.16794   0.61403   0.00000  Uiso   1.00
H261   H     0.56977   0.91642   0.53351   0.00000  Uiso   1.00
H262   H     0.54847   0.93534   0.42464   0.00000  Uiso   1.00
H263   H     0.63921   0.79991   0.61780   0.00000  Uiso   1.00
H264   H     0.50260   0.00935   0.55523   0.00000  Uiso   1.00
H265   H     0.55492   0.96359   0.30852   0.00000  Uiso   1.00
H266   H     0.74623   0.67804   0.71583   0.00000  Uiso   1.00
H267   H     0.45816   0.11970   0.58387   0.00000  Uiso   1.00
O268   O     0.64419   0.00115   0.25262   0.00000  Uiso   1.00
O269   O     0.89517   0.62653   0.78699   0.00000  Uiso   1.00
O270   O     0.51723   0.20597   0.61387   0.00000  Uiso   1.00
N271   N     0.70937   0.99789   0.34651   0.00000  Uiso   1.00
N272   N     0.88823   0.73092   0.72732   0.00000  Uiso   1.00
N273   N     0.61892   0.14382   0.60397   0.00000  Uiso   1.00
N274   N     0.60273   0.97193   0.33029   0.00000  Uiso   1.00
N275   N     0.78159   0.70496   0.71109   0.00000  Uiso   1.00
N276   N     0.51228   0.11787   0.58774   0.00000  Uiso   1.00
C277   C     0.04299   0.67017   0.97160   0.00000  Uiso   1.00
C278   C     0.01520   0.64508   0.02128   0.00000  Uiso   1.00
C279   C     0.04362   0.64710   0.07672   0.00000  Uiso   1.00
C280   C     0.01051   0.62165   0.11597   0.00000  Uiso   1.00
C281   C     0.97637   0.58675   0.19548   0.00000  Uiso   1.00
C282   C     0.97184   0.71950   0.91719   0.00000  Uiso   1.00
C283   C     0.96381   0.78408   0.88512   0.00000  Uiso   1.00
C284   C     0.89420   0.82127   0.83675   0.00000  Uiso   1.00
C285   C     0.79277   0.90189   0.75463   0.00000  Uiso   1.00
C286   C     0.06700   0.61251   0.95654   0.00000  Uiso   1.00
C287   C     0.13896   0.58715   0.95754   0.00000  Uiso   1.00
C288   C     0.14946   0.53428   0.94228   0.00000  Uiso   1.00
C289   C     0.19577   0.44880   0.92126   0.00000  Uiso   1.00
C290   C     0.93366   0.62139   0.94271   0.00000  Uiso   1.00
C291   C     0.95582   0.61858   0.00558   0.00000  Uiso   1.00
C292   C     0.92266   0.59312   0.04476   0.00000  Uiso   1.00
C293   C     0.95102   0.59510   0.10025   0.00000  Uiso   1.00
C294   C     0.91246   0.69300   0.90150   0.00000  Uiso   1.00
C295   C     0.84285   0.73011   0.85316   0.00000  Uiso   1.00
C296   C     0.83471   0.79473   0.82102   0.00000  Uiso   1.00
C297   C     0.00762   0.58601   0.94085   0.00000  Uiso   1.00
C298   C     0.01800   0.53318   0.92558   0.00000  Uiso   1.00
C299   C     0.08997   0.50774   0.92655   0.00000  Uiso   1.00
H300   H     0.08922   0.69080   0.98382   0.00000  Uiso   1.00
H301   H     0.08957   0.66761   0.08885   0.00000  Uiso   1.00
H302   H     0.00977   0.80457   0.89728   0.00000  Uiso   1.00
H303   H     0.18490   0.60767   0.96969   0.00000  Uiso   1.00
H304   H     0.06375   0.63024   0.19837   0.00000  Uiso   1.00
H305   H     0.89551   0.91901   0.79441   0.00000  Uiso   1.00
H306   H     0.26479   0.50382   0.94710   0.00000  Uiso   1.00
H307   H     0.88743   0.60076   0.93049   0.00000  Uiso   1.00
H308   H     0.87671   0.57262   0.03260   0.00000  Uiso   1.00
H309   H     0.79692   0.70958   0.84102   0.00000  Uiso   1.00
H310   H     0.97204   0.51269   0.91343   0.00000  Uiso   1.00
H311   H     0.89098   0.55314   0.15271   0.00000  Uiso   1.00
H312   H     0.72275   0.84192   0.74875   0.00000  Uiso   1.00
H313   H     0.09203   0.42673   0.90144   0.00000  Uiso   1.00
O314   O     0.97394   0.57483   0.24366   0.00000  Uiso   1.00
O315   O     0.75322   0.95369   0.71368   0.00000  Uiso   1.00
O316   O     0.23771   0.40896   0.91401   0.00000  Uiso   1.00
N317   N     0.02457   0.61594   0.17361   0.00000  Uiso   1.00
N318   N     0.86727   0.88593   0.79594   0.00000  Uiso   1.00
N319   N     0.21252   0.49777   0.93868   0.00000  Uiso   1.00
N320   N     0.93161   0.57446   0.14905   0.00000  Uiso   1.00
N321   N     0.77431   0.84445   0.77138   0.00000  Uiso   1.00
N322   N     0.11955   0.45629   0.91411   0.00000  Uiso   1.00
C323   C     0.41063   0.76048   0.18984   0.00000  Uiso   1.00
C324   C     0.45057   0.77697   0.24164   0.00000  Uiso   1.00
C325   C     0.42324   0.78171   0.28430   0.00000  Uiso   1.00
C326   C     0.46829   0.79729   0.32808   0.00000  Uiso   1.00
C327   C     0.51969   0.82127   0.40836   0.00000  Uiso   1.00
C328   C     0.46883   0.70097   0.19573   0.00000  Uiso   1.00
C329   C     0.45685   0.64183   0.19977   0.00000  Uiso   1.00
C330   C     0.51726   0.59344   0.20489   0.00000  Uiso   1.00
C331   C     0.59699   0.49945   0.21385   0.00000  Uiso   1.00
C332   C     0.40062   0.81666   0.13346   0.00000  Uiso   1.00
C333   C     0.33130   0.85479   0.08515   0.00000  Uiso   1.00
C334   C     0.33430   0.90379   0.03784   0.00000  Uiso   1.00
C335   C     0.30814   0.98944   0.95013   0.00000  Uiso   1.00
C336   C     0.53922   0.77970   0.19173   0.00000  Uiso   1.00
C337   C     0.52041   0.78740   0.24266   0.00000  Uiso   1.00
C338   C     0.56551   0.80298   0.28639   0.00000  Uiso   1.00
C339   C     0.53825   0.80775   0.32910   0.00000  Uiso   1.00
C340   C     0.53867   0.71141   0.19675   0.00000  Uiso   1.00
C341   C     0.59911   0.66309   0.20186   0.00000  Uiso   1.00
C342   C     0.58723   0.60389   0.20592   0.00000  Uiso   1.00
C343   C     0.47047   0.82711   0.13449   0.00000  Uiso   1.00
C344   C     0.47357   0.87605   0.08724   0.00000  Uiso   1.00
C345   C     0.40427   0.91425   0.03887   0.00000  Uiso   1.00
H346   H     0.35626   0.75235   0.18905   0.00000  Uiso   1.00
H347   H     0.36919   0.77363   0.28349   0.00000  Uiso   1.00
H348   H     0.40279   0.63377   0.19897   0.00000  Uiso   1.00
H349   H     0.27727   0.84670   0.08438   0.00000  Uiso   1.00
H350   H     0.41435   0.80180   0.38867   0.00000  Uiso   1.00
H351   H     0.48518   0.50690   0.21044   0.00000  Uiso   1.00
H352   H     0.22049   0.95591   0.96878   0.00000  Uiso   1.00
H353   H     0.59360   0.78782   0.19253   0.00000  Uiso   1.00
H354   H     0.61956   0.81105   0.28717   0.00000  Uiso   1.00
H355   H     0.65315   0.67119   0.20265   0.00000  Uiso   1.00
H356   H     0.52763   0.88412   0.08805   0.00000  Uiso   1.00
H357   H     0.61755   0.83217   0.39166   0.00000  Uiso   1.00
H358   H     0.68838   0.53728   0.21342   0.00000  Uiso   1.00
H359   H     0.42370   0.98628   0.97176   0.00000  Uiso   1.00
O360   O     0.52876   0.83160   0.45237   0.00000  Uiso   1.00
O361   O     0.62168   0.44472   0.21852   0.00000  Uiso   1.00
O362   O     0.27441   0.03380   0.90148   0.00000  Uiso   1.00
N363   N     0.45860   0.80577   0.37638   0.00000  Uiso   1.00
N364   N     0.52483   0.53006   0.20975   0.00000  Uiso   1.00
N365   N     0.27737   0.94983   0.98381   0.00000  Uiso   1.00
N366   N     0.56794   0.82212   0.37798   0.00000  Uiso   1.00
N367   N     0.63417   0.54640   0.21135   0.00000  Uiso   1.00
N368   N     0.38671   0.96617   0.98542   0.00000  Uiso   1.00
C369   C     0.81400   0.49243   0.69614   0.00000  Uiso   1.00
C370   C     0.79497   0.49422   0.74867   0.00000  Uiso   1.00
C371   C     0.84797   0.47251   0.80686   0.00000  Uiso   1.00
C372   C     0.81901   0.47838   0.84845   0.00000  Uiso   1.00
C373   C     0.80149   0.47714   0.93245   0.00000  Uiso   1.00
C374   C     0.78043   0.56252   0.64895   0.00000  Uiso   1.00
C375   C     0.82121   0.59823   0.62329   0.00000  Uiso   1.00
C376   C     0.78000   0.66159   0.58094   0.00000  Uiso   1.00
C377   C     0.73989   0.76637   0.51009   0.00000  Uiso   1.00
C378   C     0.76678   0.45416   0.67051   0.00000  Uiso   1.00
C379   C     0.79608   0.39877   0.66297   0.00000  Uiso   1.00
C380   C     0.74337   0.37090   0.63875   0.00000  Uiso   1.00
C381   C     0.68208   0.30743   0.60138   0.00000  Uiso   1.00
C382   C     0.66830   0.54146   0.66654   0.00000  Uiso   1.00
C383   C     0.71583   0.52085   0.73259   0.00000  Uiso   1.00
C384   C     0.68677   0.52676   0.77410   0.00000  Uiso   1.00
C385   C     0.73973   0.50506   0.83234   0.00000  Uiso   1.00
C386   C     0.70129   0.58915   0.63287   0.00000  Uiso   1.00
C387   C     0.66001   0.65247   0.59054   0.00000  Uiso   1.00
C388   C     0.70072   0.68827   0.56482   0.00000  Uiso   1.00
C389   C     0.68764   0.48079   0.65443   0.00000  Uiso   1.00
C390   C     0.63488   0.45301   0.63022   0.00000  Uiso   1.00
C391   C     0.66409   0.39758   0.62264   0.00000  Uiso   1.00
H392   H     0.87562   0.47171   0.70866   0.00000  Uiso   1.00
H393   H     0.90921   0.45191   0.81928   0.00000  Uiso   1.00
H394   H     0.88245   0.57761   0.63574   0.00000  Uiso   1.00
H395   H     0.85732   0.37817   0.67542   0.00000  Uiso   1.00
H396   H     0.91156   0.44174   0.93484   0.00000  Uiso   1.00
H397   H     0.85512   0.70677   0.54782   0.00000  Uiso   1.00
H398   H     0.80214   0.28621   0.63147   0.00000  Uiso   1.00
H399   H     0.60669   0.56219   0.65402   0.00000  Uiso   1.00
H400   H     0.62553   0.54737   0.76165   0.00000  Uiso   1.00
H401   H     0.59876   0.67306   0.57810   0.00000  Uiso   1.00
H402   H     0.57364   0.47363   0.61778   0.00000  Uiso   1.00
H403   H     0.68131   0.51921   0.88805   0.00000  Uiso   1.00
H404   H     0.62487   0.78424   0.50103   0.00000  Uiso   1.00
H405   H     0.57189   0.36369   0.58469   0.00000  Uiso   1.00
O406   O     0.81368   0.46911   0.98323   0.00000  Uiso   1.00
O407   O     0.73964   0.81681   0.47547   0.00000  Uiso   1.00
O408   O     0.67013   0.26506   0.58522   0.00000  Uiso   1.00
N409   N     0.85479   0.46200   0.90906   0.00000  Uiso   1.00
N410   N     0.80202   0.70978   0.54722   0.00000  Uiso   1.00
N411   N     0.75249   0.31661   0.62542   0.00000  Uiso   1.00
N412   N     0.73089   0.50368   0.88388   0.00000  Uiso   1.00
N413   N     0.67813   0.75147   0.52205   0.00000  Uiso   1.00
N414   N     0.62859   0.35830   0.60025   0.00000  Uiso   1.00
C415   C     0.35020   0.42951   0.72332   0.00000  Uiso   1.00
C416   C     0.30291   0.38929   0.74679   0.00000  Uiso   1.00
C417   C     0.28984   0.38254   0.79791   0.00000  Uiso   1.00
C418   C     0.24504   0.34359   0.81179   0.00000  Uiso   1.00
C419   C     0.17630   0.28583   0.85373   0.00000  Uiso   1.00
C420   C     0.41234   0.38253   0.71806   0.00000  Uiso   1.00
C421   C     0.49128   0.37011   0.74502   0.00000  Uiso   1.00
C422   C     0.53859   0.32548   0.73471   0.00000  Uiso   1.00
C423   C     0.63974   0.25728   0.73200   0.00000  Uiso   1.00
C424   C     0.29676   0.47753   0.65972   0.00000  Uiso   1.00
C425   C     0.27852   0.54498   0.63761   0.00000  Uiso   1.00
C426   C     0.22853   0.58033   0.57816   0.00000  Uiso   1.00
C427   C     0.15022   0.65962   0.48487   0.00000  Uiso   1.00
C428   C     0.29387   0.37235   0.65707   0.00000  Uiso   1.00
C429   C     0.27232   0.35824   0.71081   0.00000  Uiso   1.00
C430   C     0.22752   0.31929   0.72461   0.00000  Uiso   1.00
C431   C     0.21439   0.31249   0.77574   0.00000  Uiso   1.00
C432   C     0.38175   0.35148   0.68208   0.00000  Uiso   1.00
C433   C     0.42896   0.30687   0.67172   0.00000  Uiso   1.00
C434   C     0.50794   0.29438   0.69866   0.00000  Uiso   1.00
C435   C     0.26616   0.44648   0.62373   0.00000  Uiso   1.00
C436   C     0.21620   0.48174   0.56431   0.00000  Uiso   1.00
C437   C     0.19788   0.54923   0.54211   0.00000  Uiso   1.00
H438   H     0.37403   0.45368   0.75134   0.00000  Uiso   1.00
H439   H     0.31354   0.40657   0.82575   0.00000  Uiso   1.00
H440   H     0.51494   0.39415   0.77286   0.00000  Uiso   1.00
H441   H     0.30221   0.56899   0.66547   0.00000  Uiso   1.00
H442   H     0.23301   0.34063   0.89239   0.00000  Uiso   1.00
H443   H     0.65766   0.31446   0.78085   0.00000  Uiso   1.00
H444   H     0.20909   0.68315   0.55439   0.00000  Uiso   1.00
H445   H     0.27005   0.34817   0.62905   0.00000  Uiso   1.00
H446   H     0.20385   0.29527   0.69676   0.00000  Uiso   1.00
H447   H     0.40526   0.28285   0.64387   0.00000  Uiso   1.00
H448   H     0.19253   0.45769   0.53647   0.00000  Uiso   1.00
H449   H     0.14399   0.25029   0.78770   0.00000  Uiso   1.00
H450   H     0.56865   0.22413   0.67616   0.00000  Uiso   1.00
H451   H     0.12007   0.59281   0.44970   0.00000  Uiso   1.00
O452   O     0.14685   0.26254   0.88680   0.00000  Uiso   1.00
O453   O     0.70398   0.22823   0.74046   0.00000  Uiso   1.00
O454   O     0.11546   0.71193   0.44335   0.00000  Uiso   1.00
N455   N     0.22113   0.32664   0.85846   0.00000  Uiso   1.00
N456   N     0.61816   0.30216   0.75418   0.00000  Uiso   1.00
N457   N     0.19880   0.64685   0.54245   0.00000  Uiso   1.00
N458   N     0.17322   0.27803   0.80212   0.00000  Uiso   1.00
N459   N     0.57026   0.25356   0.69785   0.00000  Uiso   1.00
N460   N     0.15090   0.59825   0.48612   0.00000  Uiso   1.00
C461   C     0.70213   0.22935   0.17927   0.00000  Uiso   1.00
C462   C     0.74501   0.23491   0.23699   0.00000  Uiso   1.00
C463   C     0.82068   0.19893   0.27648   0.00000  Uiso   1.00
C464   C     0.84935   0.21123   0.32677   0.00000  Uiso   1.00
C465   C     0.92284   0.21275   0.41483   0.00000  Uiso   1.00
C466   C     0.62979   0.21417   0.18401   0.00000  Uiso   1.00
C467   C     0.60858   0.16076   0.17894   0.00000  Uiso   1.00
C468   C     0.54026   0.15560   0.18463   0.00000  Uiso   1.00
C469   C     0.43484   0.12496   0.19039   0.00000  Uiso   1.00
C470   C     0.67426   0.29776   0.12990   0.00000  Uiso   1.00
C471   C     0.69042   0.31464   0.07933   0.00000  Uiso   1.00
C472   C     0.65951   0.37986   0.03945   0.00000  Uiso   1.00
C473   C     0.62314   0.47901   0.96120   0.00000  Uiso   1.00
C474   C     0.61850   0.31516   0.19836   0.00000  Uiso   1.00
C475   C     0.69959   0.28152   0.24736   0.00000  Uiso   1.00
C476   C     0.72816   0.29388   0.29760   0.00000  Uiso   1.00
C477   C     0.80385   0.25792   0.33716   0.00000  Uiso   1.00
C478   C     0.58437   0.26078   0.19438   0.00000  Uiso   1.00
C479   C     0.51606   0.25571   0.20007   0.00000  Uiso   1.00
C480   C     0.49475   0.20230   0.19502   0.00000  Uiso   1.00
C481   C     0.62884   0.34438   0.14027   0.00000  Uiso   1.00
C482   C     0.59790   0.40959   0.10046   0.00000  Uiso   1.00
C483   C     0.61401   0.42656   0.04984   0.00000  Uiso   1.00
H484   H     0.73748   0.19306   0.17119   0.00000  Uiso   1.00
H485   H     0.85581   0.16286   0.26843   0.00000  Uiso   1.00
H486   H     0.64374   0.12470   0.17091   0.00000  Uiso   1.00
H487   H     0.72557   0.27856   0.07131   0.00000  Uiso   1.00
H488   H     0.96695   0.14992   0.38083   0.00000  Uiso   1.00
H489   H     0.51979   0.06947   0.17517   0.00000  Uiso   1.00
H490   H     0.69233   0.39391   0.96516   0.00000  Uiso   1.00
H491   H     0.58313   0.35145   0.20644   0.00000  Uiso   1.00
H492   H     0.69299   0.32995   0.30562   0.00000  Uiso   1.00
H493   H     0.48092   0.29179   0.20809   0.00000  Uiso   1.00
H494   H     0.56275   0.44564   0.10850   0.00000  Uiso   1.00
H495   H     0.83480   0.28553   0.41102   0.00000  Uiso   1.00
H496   H     0.38763   0.20508   0.20535   0.00000  Uiso   1.00
H497   H     0.56018   0.52952   0.99534   0.00000  Uiso   1.00
O498   O     0.97592   0.20071   0.46054   0.00000  Uiso   1.00
O499   O     0.38925   0.09517   0.19071   0.00000  Uiso   1.00
O500   O     0.61563   0.52082   0.91518   0.00000  Uiso   1.00
N501   N     0.92078   0.18480   0.37432   0.00000  Uiso   1.00
N502   N     0.50271   0.10958   0.18205   0.00000  Uiso   1.00
N503   N     0.66401   0.41289   0.98569   0.00000  Uiso   1.00
N504   N     0.84967   0.25777   0.39056   0.00000  Uiso   1.00
N505   N     0.43160   0.18255   0.19829   0.00000  Uiso   1.00
N506   N     0.59290   0.48586   0.00194   0.00000  Uiso   1.00
C507   C     0.18507   0.24597   0.36092   0.00000  Uiso   1.00
C508   C     0.19368   0.23281   0.42462   0.00000  Uiso   1.00
C509   C     0.13682   0.22546   0.44629   0.00000  Uiso   1.00
C510   C     0.15608   0.21370   0.50590   0.00000  Uiso   1.00
C511   C     0.15825   0.19395   0.59924   0.00000  Uiso   1.00
C512   C     0.20528   0.30842   0.33852   0.00000  Uiso   1.00
C513   C     0.15818   0.36464   0.28780   0.00000  Uiso   1.00
C514   C     0.18722   0.41652   0.27493   0.00000  Uiso   1.00
C515   C     0.20743   0.51414   0.23458   0.00000  Uiso   1.00
C516   C     0.24898   0.19133   0.36574   0.00000  Uiso   1.00
C517   C     0.23862   0.14910   0.33789   0.00000  Uiso   1.00
C518   C     0.30445   0.10241   0.34792   0.00000  Uiso   1.00
C519   C     0.39250   0.01821   0.34983   0.00000  Uiso   1.00
C520   C     0.32039   0.23815   0.42824   0.00000  Uiso   1.00
C521   C     0.26718   0.22857   0.46118   0.00000  Uiso   1.00
C522   C     0.28653   0.21681   0.52077   0.00000  Uiso   1.00
C523   C     0.22971   0.20944   0.54253   0.00000  Uiso   1.00
C524   C     0.27878   0.30418   0.37509   0.00000  Uiso   1.00
C525   C     0.30789   0.35599   0.36228   0.00000  Uiso   1.00
C526   C     0.26085   0.41227   0.31156   0.00000  Uiso   1.00
C527   C     0.32248   0.18708   0.40231   0.00000  Uiso   1.00
C528   C     0.38833   0.14045   0.41238   0.00000  Uiso   1.00
C529   C     0.37808   0.09815   0.38455   0.00000  Uiso   1.00
H530   H     0.12785   0.24928   0.33245   0.00000  Uiso   1.00
H531   H     0.07994   0.22876   0.41798   0.00000  Uiso   1.00
H532   H     0.10131   0.36791   0.25951   0.00000  Uiso   1.00
H533   H     0.18174   0.15240   0.30960   0.00000  Uiso   1.00
H534   H     0.05924   0.20416   0.52892   0.00000  Uiso   1.00
H535   H     0.10430   0.49755   0.19477   0.00000  Uiso   1.00
H536   H     0.27389   0.04311   0.30039   0.00000  Uiso   1.00
H537   H     0.37761   0.23485   0.45671   0.00000  Uiso   1.00
H538   H     0.34341   0.21353   0.54906   0.00000  Uiso   1.00
H539   H     0.36477   0.35268   0.39059   0.00000  Uiso   1.00
H540   H     0.44520   0.13717   0.44068   0.00000  Uiso   1.00
H541   H     0.27307   0.19180   0.63531   0.00000  Uiso   1.00
H542   H     0.31813   0.48520   0.30116   0.00000  Uiso   1.00
H543   H     0.48773   0.03075   0.40678   0.00000  Uiso   1.00
O544   O     0.13914   0.18423   0.64062   0.00000  Uiso   1.00
O545   O     0.19827   0.56916   0.20223   0.00000  Uiso   1.00
O546   O     0.42076   0.97294   0.34079   0.00000  Uiso   1.00
N547   N     0.11426   0.20416   0.54129   0.00000  Uiso   1.00
N548   N     0.15639   0.47847   0.22889   0.00000  Uiso   1.00
N549   N     0.31494   0.05362   0.32761   0.00000  Uiso   1.00
N550   N     0.22932   0.19751   0.59854   0.00000  Uiso   1.00
N551   N     0.27145   0.47182   0.28613   0.00000  Uiso   1.00
N552   N     0.43000   0.04697   0.38486   0.00000  Uiso   1.00
