data_job_02300
_audit_creation_date              2018-12-19
_audit_creation_method            'Materials Studio'
_symmetry_space_group_name_H-M    'P1'
_symmetry_Int_Tables_number       1
_symmetry_cell_setting            triclinic
loop_
_symmetry_equiv_pos_as_xyz
  x,y,z
_cell_length_a                    16.1685
_cell_length_b                    21.6970
_cell_length_c                    13.6132
_cell_angle_alpha                 90.0000
_cell_angle_beta                  90.0000
_cell_angle_gamma                 90.0000
loop_
_atom_site_label
_atom_site_type_symbol
_atom_site_fract_x
_atom_site_fract_y
_atom_site_fract_z
_atom_site_U_iso_or_equiv
_atom_site_adp_type
_atom_site_occupancy
C1     C     0.47682   0.16736   0.48474   0.00000  Uiso   1.00
C2     C     0.44310   0.12492   0.56455   0.00000  Uiso   1.00
C3     C     0.39070   0.07514   0.54964   0.00000  Uiso   1.00
C4     C     0.36681   0.04206   0.63221   0.00000  Uiso   1.00
C5     C     0.31023   0.97373   0.74184   0.00000  Uiso   1.00
C6     C     0.45138   0.23248   0.51411   0.00000  Uiso   1.00
C7     C     0.40596   0.27313   0.45679   0.00000  Uiso   1.00
C8     C     0.38906   0.33060   0.49690   0.00000  Uiso   1.00
C9     C     0.34539   0.42926   0.52819   0.00000  Uiso   1.00
C10    C     0.57074   0.16510   0.49421   0.00000  Uiso   1.00
C11    C     0.62568   0.14910   0.42014   0.00000  Uiso   1.00
C12    C     0.70927   0.14986   0.44349   0.00000  Uiso   1.00
C13    C     0.85092   0.14390   0.44388   0.00000  Uiso   1.00
C14    C     0.52757   0.19715   0.65789   0.00000  Uiso   1.00
C15    C     0.47067   0.14111   0.65860   0.00000  Uiso   1.00
C16    C     0.44685   0.10810   0.74121   0.00000  Uiso   1.00
C17    C     0.39443   0.05827   0.72643   0.00000  Uiso   1.00
C18    C     0.47895   0.24866   0.60816   0.00000  Uiso   1.00
C19    C     0.46212   0.30609   0.64836   0.00000  Uiso   1.00
C20    C     0.41667   0.34681   0.59112   0.00000  Uiso   1.00
C21    C     0.59831   0.18128   0.58826   0.00000  Uiso   1.00
C22    C     0.68183   0.18206   0.61172   0.00000  Uiso   1.00
C23    C     0.73689   0.16607   0.53771   0.00000  Uiso   1.00
H24    H     0.45535   0.15476   0.41152   0.00000  Uiso   1.00
H25    H     0.36937   0.06263   0.47684   0.00000  Uiso   1.00
H26    H     0.38464   0.26059   0.38401   0.00000  Uiso   1.00
H27    H     0.60432   0.13658   0.34737   0.00000  Uiso   1.00
H28    H     0.28618   0.96763   0.59075   0.00000  Uiso   1.00
H29    H     0.31840   0.38505   0.39499   0.00000  Uiso   1.00
H30    H     0.78164   0.12356   0.31774   0.00000  Uiso   1.00
H31    H     0.54904   0.20976   0.73111   0.00000  Uiso   1.00
H32    H     0.46820   0.12064   0.81398   0.00000  Uiso   1.00
H33    H     0.48346   0.31860   0.72114   0.00000  Uiso   1.00
H34    H     0.70314   0.19459   0.68451   0.00000  Uiso   1.00
H35    H     0.36639   0.01471   0.86439   0.00000  Uiso   1.00
H36    H     0.39861   0.43214   0.66862   0.00000  Uiso   1.00
H37    H     0.86185   0.17064   0.59137   0.00000  Uiso   1.00
O38    O     0.27139   0.93157   0.77632   0.00000  Uiso   1.00
O39    O     0.31368   0.47921   0.51947   0.00000  Uiso   1.00
O40    O     0.92144   0.13613   0.41813   0.00000  Uiso   1.00
N41    N     0.31617   0.99094   0.64378   0.00000  Uiso   1.00
N42    N     0.34628   0.38120   0.46075   0.00000  Uiso   1.00
N43    N     0.77937   0.13674   0.38852   0.00000  Uiso   1.00
N44    N     0.35933   0.01627   0.79102   0.00000  Uiso   1.00
N45    N     0.38944   0.40653   0.60799   0.00000  Uiso   1.00
N46    N     0.82253   0.16207   0.53576   0.00000  Uiso   1.00
C47    C     0.02318   0.33264   0.48474   0.00000  Uiso   1.00
C48    C     0.05690   0.37508   0.56455   0.00000  Uiso   1.00
C49    C     0.10930   0.42486   0.54964   0.00000  Uiso   1.00
C50    C     0.13319   0.45794   0.63221   0.00000  Uiso   1.00
C51    C     0.18977   0.52627   0.74184   0.00000  Uiso   1.00
C52    C     0.04862   0.26752   0.51411   0.00000  Uiso   1.00
C53    C     0.09404   0.22687   0.45679   0.00000  Uiso   1.00
C54    C     0.11094   0.16940   0.49690   0.00000  Uiso   1.00
C55    C     0.15461   0.07074   0.52819   0.00000  Uiso   1.00
C56    C     0.92926   0.33490   0.49421   0.00000  Uiso   1.00
C57    C     0.87432   0.35090   0.42014   0.00000  Uiso   1.00
C58    C     0.79073   0.35014   0.44349   0.00000  Uiso   1.00
C59    C     0.64908   0.35610   0.44388   0.00000  Uiso   1.00
C60    C     0.97243   0.30285   0.65789   0.00000  Uiso   1.00
C61    C     0.02933   0.35889   0.65860   0.00000  Uiso   1.00
C62    C     0.05315   0.39190   0.74121   0.00000  Uiso   1.00
C63    C     0.10557   0.44173   0.72643   0.00000  Uiso   1.00
C64    C     0.02105   0.25134   0.60816   0.00000  Uiso   1.00
C65    C     0.03788   0.19391   0.64836   0.00000  Uiso   1.00
C66    C     0.08333   0.15319   0.59112   0.00000  Uiso   1.00
C67    C     0.90169   0.31872   0.58826   0.00000  Uiso   1.00
C68    C     0.81817   0.31794   0.61172   0.00000  Uiso   1.00
C69    C     0.76311   0.33393   0.53771   0.00000  Uiso   1.00
H70    H     0.04465   0.34524   0.41152   0.00000  Uiso   1.00
H71    H     0.13063   0.43737   0.47684   0.00000  Uiso   1.00
H72    H     0.11536   0.23941   0.38401   0.00000  Uiso   1.00
H73    H     0.89568   0.36342   0.34737   0.00000  Uiso   1.00
H74    H     0.21382   0.53237   0.59075   0.00000  Uiso   1.00
H75    H     0.18160   0.11495   0.39499   0.00000  Uiso   1.00
H76    H     0.71836   0.37644   0.31774   0.00000  Uiso   1.00
H77    H     0.95096   0.29024   0.73111   0.00000  Uiso   1.00
H78    H     0.03180   0.37936   0.81398   0.00000  Uiso   1.00
H79    H     0.01654   0.18140   0.72114   0.00000  Uiso   1.00
H80    H     0.79686   0.30541   0.68451   0.00000  Uiso   1.00
H81    H     0.13361   0.48529   0.86439   0.00000  Uiso   1.00
H82    H     0.10139   0.06786   0.66862   0.00000  Uiso   1.00
H83    H     0.63815   0.32936   0.59137   0.00000  Uiso   1.00
O84    O     0.22861   0.56843   0.77632   0.00000  Uiso   1.00
O85    O     0.18632   0.02079   0.51947   0.00000  Uiso   1.00
O86    O     0.57856   0.36387   0.41813   0.00000  Uiso   1.00
N87    N     0.18383   0.50906   0.64378   0.00000  Uiso   1.00
N88    N     0.15372   0.11880   0.46075   0.00000  Uiso   1.00
N89    N     0.72063   0.36326   0.38852   0.00000  Uiso   1.00
N90    N     0.14067   0.48373   0.79102   0.00000  Uiso   1.00
N91    N     0.11056   0.09347   0.60799   0.00000  Uiso   1.00
N92    N     0.67747   0.33793   0.53576   0.00000  Uiso   1.00
C93    C     0.52318   0.66736   0.01526   0.00000  Uiso   1.00
C94    C     0.55690   0.62492   0.93545   0.00000  Uiso   1.00
C95    C     0.60930   0.57514   0.95036   0.00000  Uiso   1.00
C96    C     0.63319   0.54206   0.86779   0.00000  Uiso   1.00
C97    C     0.68977   0.47373   0.75816   0.00000  Uiso   1.00
C98    C     0.54862   0.73248   0.98589   0.00000  Uiso   1.00
C99    C     0.59404   0.77313   0.04321   0.00000  Uiso   1.00
C100   C     0.61094   0.83060   0.00310   0.00000  Uiso   1.00
C101   C     0.65461   0.92926   0.97181   0.00000  Uiso   1.00
C102   C     0.42926   0.66510   0.00579   0.00000  Uiso   1.00
C103   C     0.37432   0.64910   0.07986   0.00000  Uiso   1.00
C104   C     0.29073   0.64986   0.05651   0.00000  Uiso   1.00
C105   C     0.14908   0.64390   0.05612   0.00000  Uiso   1.00
C106   C     0.47243   0.69715   0.84211   0.00000  Uiso   1.00
C107   C     0.52933   0.64111   0.84140   0.00000  Uiso   1.00
C108   C     0.55315   0.60810   0.75879   0.00000  Uiso   1.00
C109   C     0.60557   0.55827   0.77357   0.00000  Uiso   1.00
C110   C     0.52105   0.74866   0.89184   0.00000  Uiso   1.00
C111   C     0.53788   0.80609   0.85164   0.00000  Uiso   1.00
C112   C     0.58333   0.84681   0.90888   0.00000  Uiso   1.00
C113   C     0.40169   0.68128   0.91174   0.00000  Uiso   1.00
C114   C     0.31817   0.68206   0.88828   0.00000  Uiso   1.00
C115   C     0.26311   0.66607   0.96229   0.00000  Uiso   1.00
H116   H     0.54465   0.65476   0.08848   0.00000  Uiso   1.00
H117   H     0.63063   0.56263   0.02316   0.00000  Uiso   1.00
H118   H     0.61536   0.76059   0.11599   0.00000  Uiso   1.00
H119   H     0.39568   0.63658   0.15263   0.00000  Uiso   1.00
H120   H     0.71382   0.46763   0.90925   0.00000  Uiso   1.00
H121   H     0.68160   0.88505   0.10501   0.00000  Uiso   1.00
H122   H     0.21836   0.62356   0.18226   0.00000  Uiso   1.00
H123   H     0.45096   0.70976   0.76889   0.00000  Uiso   1.00
H124   H     0.53180   0.62064   0.68602   0.00000  Uiso   1.00
H125   H     0.51654   0.81860   0.77886   0.00000  Uiso   1.00
H126   H     0.29686   0.69459   0.81549   0.00000  Uiso   1.00
H127   H     0.63361   0.51471   0.63561   0.00000  Uiso   1.00
H128   H     0.60139   0.93214   0.83138   0.00000  Uiso   1.00
H129   H     0.13815   0.67064   0.90863   0.00000  Uiso   1.00
O130   O     0.72861   0.43157   0.72368   0.00000  Uiso   1.00
O131   O     0.68632   0.97921   0.98053   0.00000  Uiso   1.00
O132   O     0.07856   0.63613   0.08187   0.00000  Uiso   1.00
N133   N     0.68383   0.49094   0.85622   0.00000  Uiso   1.00
N134   N     0.65372   0.88120   0.03925   0.00000  Uiso   1.00
N135   N     0.22063   0.63674   0.11148   0.00000  Uiso   1.00
N136   N     0.64067   0.51627   0.70898   0.00000  Uiso   1.00
N137   N     0.61056   0.90653   0.89201   0.00000  Uiso   1.00
N138   N     0.17747   0.66207   0.96424   0.00000  Uiso   1.00
C139   C     0.97682   0.83264   0.01526   0.00000  Uiso   1.00
C140   C     0.94310   0.87508   0.93545   0.00000  Uiso   1.00
C141   C     0.89070   0.92486   0.95036   0.00000  Uiso   1.00
C142   C     0.86681   0.95794   0.86779   0.00000  Uiso   1.00
C143   C     0.81023   0.02627   0.75816   0.00000  Uiso   1.00
C144   C     0.95138   0.76752   0.98589   0.00000  Uiso   1.00
C145   C     0.90596   0.72687   0.04321   0.00000  Uiso   1.00
C146   C     0.88906   0.66940   0.00310   0.00000  Uiso   1.00
C147   C     0.84539   0.57074   0.97181   0.00000  Uiso   1.00
C148   C     0.07074   0.83490   0.00579   0.00000  Uiso   1.00
C149   C     0.12568   0.85090   0.07986   0.00000  Uiso   1.00
C150   C     0.20927   0.85014   0.05651   0.00000  Uiso   1.00
C151   C     0.35092   0.85610   0.05612   0.00000  Uiso   1.00
C152   C     0.02757   0.80285   0.84211   0.00000  Uiso   1.00
C153   C     0.97067   0.85889   0.84140   0.00000  Uiso   1.00
C154   C     0.94685   0.89190   0.75879   0.00000  Uiso   1.00
C155   C     0.89443   0.94173   0.77357   0.00000  Uiso   1.00
C156   C     0.97895   0.75134   0.89184   0.00000  Uiso   1.00
C157   C     0.96212   0.69391   0.85164   0.00000  Uiso   1.00
C158   C     0.91667   0.65319   0.90888   0.00000  Uiso   1.00
C159   C     0.09831   0.81872   0.91174   0.00000  Uiso   1.00
C160   C     0.18183   0.81794   0.88828   0.00000  Uiso   1.00
C161   C     0.23689   0.83393   0.96229   0.00000  Uiso   1.00
H162   H     0.95535   0.84524   0.08848   0.00000  Uiso   1.00
H163   H     0.86937   0.93737   0.02316   0.00000  Uiso   1.00
H164   H     0.88464   0.73941   0.11599   0.00000  Uiso   1.00
H165   H     0.10432   0.86342   0.15263   0.00000  Uiso   1.00
H166   H     0.78618   0.03237   0.90925   0.00000  Uiso   1.00
H167   H     0.81840   0.61495   0.10501   0.00000  Uiso   1.00
H168   H     0.28164   0.87644   0.18226   0.00000  Uiso   1.00
H169   H     0.04904   0.79024   0.76889   0.00000  Uiso   1.00
H170   H     0.96820   0.87936   0.68602   0.00000  Uiso   1.00
H171   H     0.98346   0.68140   0.77886   0.00000  Uiso   1.00
H172   H     0.20314   0.80541   0.81549   0.00000  Uiso   1.00
H173   H     0.86639   0.98529   0.63561   0.00000  Uiso   1.00
H174   H     0.89861   0.56786   0.83138   0.00000  Uiso   1.00
H175   H     0.36185   0.82936   0.90863   0.00000  Uiso   1.00
O176   O     0.77139   0.06843   0.72368   0.00000  Uiso   1.00
O177   O     0.81368   0.52079   0.98053   0.00000  Uiso   1.00
O178   O     0.42144   0.86387   0.08187   0.00000  Uiso   1.00
N179   N     0.81617   0.00906   0.85622   0.00000  Uiso   1.00
N180   N     0.84628   0.61880   0.03925   0.00000  Uiso   1.00
N181   N     0.27937   0.86326   0.11148   0.00000  Uiso   1.00
N182   N     0.85933   0.98373   0.70898   0.00000  Uiso   1.00
N183   N     0.88944   0.59347   0.89201   0.00000  Uiso   1.00
N184   N     0.32253   0.83793   0.96424   0.00000  Uiso   1.00
C185   C     0.52318   0.83264   0.51526   0.00000  Uiso   1.00
C186   C     0.55690   0.87508   0.43545   0.00000  Uiso   1.00
C187   C     0.60930   0.92486   0.45036   0.00000  Uiso   1.00
C188   C     0.63319   0.95794   0.36779   0.00000  Uiso   1.00
C189   C     0.68977   0.02627   0.25816   0.00000  Uiso   1.00
C190   C     0.54862   0.76752   0.48589   0.00000  Uiso   1.00
C191   C     0.59404   0.72687   0.54321   0.00000  Uiso   1.00
C192   C     0.61094   0.66940   0.50310   0.00000  Uiso   1.00
C193   C     0.65461   0.57074   0.47181   0.00000  Uiso   1.00
C194   C     0.42926   0.83490   0.50579   0.00000  Uiso   1.00
C195   C     0.37432   0.85090   0.57986   0.00000  Uiso   1.00
C196   C     0.29073   0.85014   0.55651   0.00000  Uiso   1.00
C197   C     0.14908   0.85610   0.55612   0.00000  Uiso   1.00
C198   C     0.47243   0.80285   0.34211   0.00000  Uiso   1.00
C199   C     0.52933   0.85889   0.34140   0.00000  Uiso   1.00
C200   C     0.55315   0.89190   0.25879   0.00000  Uiso   1.00
C201   C     0.60557   0.94173   0.27357   0.00000  Uiso   1.00
C202   C     0.52105   0.75134   0.39184   0.00000  Uiso   1.00
C203   C     0.53788   0.69391   0.35164   0.00000  Uiso   1.00
C204   C     0.58333   0.65319   0.40888   0.00000  Uiso   1.00
C205   C     0.40169   0.81872   0.41174   0.00000  Uiso   1.00
C206   C     0.31817   0.81794   0.38828   0.00000  Uiso   1.00
C207   C     0.26311   0.83393   0.46229   0.00000  Uiso   1.00
H208   H     0.54465   0.84524   0.58848   0.00000  Uiso   1.00
H209   H     0.63063   0.93737   0.52316   0.00000  Uiso   1.00
H210   H     0.61536   0.73941   0.61599   0.00000  Uiso   1.00
H211   H     0.39568   0.86342   0.65263   0.00000  Uiso   1.00
H212   H     0.71382   0.03237   0.40925   0.00000  Uiso   1.00
H213   H     0.68160   0.61495   0.60501   0.00000  Uiso   1.00
H214   H     0.21836   0.87644   0.68226   0.00000  Uiso   1.00
H215   H     0.45096   0.79024   0.26889   0.00000  Uiso   1.00
H216   H     0.53180   0.87936   0.18602   0.00000  Uiso   1.00
H217   H     0.51654   0.68140   0.27886   0.00000  Uiso   1.00
H218   H     0.29686   0.80541   0.31549   0.00000  Uiso   1.00
H219   H     0.63361   0.98529   0.13561   0.00000  Uiso   1.00
H220   H     0.60139   0.56786   0.33138   0.00000  Uiso   1.00
H221   H     0.13815   0.82936   0.40863   0.00000  Uiso   1.00
O222   O     0.72861   0.06843   0.22368   0.00000  Uiso   1.00
O223   O     0.68632   0.52079   0.48053   0.00000  Uiso   1.00
O224   O     0.07856   0.86387   0.58187   0.00000  Uiso   1.00
N225   N     0.68383   0.00906   0.35622   0.00000  Uiso   1.00
N226   N     0.65372   0.61880   0.53925   0.00000  Uiso   1.00
N227   N     0.22063   0.86326   0.61148   0.00000  Uiso   1.00
N228   N     0.64067   0.98373   0.20898   0.00000  Uiso   1.00
N229   N     0.61056   0.59347   0.39201   0.00000  Uiso   1.00
N230   N     0.17747   0.83793   0.46424   0.00000  Uiso   1.00
C231   C     0.97682   0.66736   0.51526   0.00000  Uiso   1.00
C232   C     0.94310   0.62492   0.43545   0.00000  Uiso   1.00
C233   C     0.89070   0.57514   0.45036   0.00000  Uiso   1.00
C234   C     0.86681   0.54206   0.36779   0.00000  Uiso   1.00
C235   C     0.81023   0.47373   0.25816   0.00000  Uiso   1.00
C236   C     0.95138   0.73248   0.48589   0.00000  Uiso   1.00
C237   C     0.90596   0.77313   0.54321   0.00000  Uiso   1.00
C238   C     0.88906   0.83060   0.50310   0.00000  Uiso   1.00
C239   C     0.84539   0.92926   0.47181   0.00000  Uiso   1.00
C240   C     0.07074   0.66510   0.50579   0.00000  Uiso   1.00
C241   C     0.12568   0.64910   0.57986   0.00000  Uiso   1.00
C242   C     0.20927   0.64986   0.55651   0.00000  Uiso   1.00
C243   C     0.35092   0.64390   0.55612   0.00000  Uiso   1.00
C244   C     0.02757   0.69715   0.34211   0.00000  Uiso   1.00
C245   C     0.97067   0.64111   0.34140   0.00000  Uiso   1.00
C246   C     0.94685   0.60810   0.25879   0.00000  Uiso   1.00
C247   C     0.89443   0.55827   0.27357   0.00000  Uiso   1.00
C248   C     0.97895   0.74866   0.39184   0.00000  Uiso   1.00
C249   C     0.96212   0.80609   0.35164   0.00000  Uiso   1.00
C250   C     0.91667   0.84681   0.40888   0.00000  Uiso   1.00
C251   C     0.09831   0.68128   0.41174   0.00000  Uiso   1.00
C252   C     0.18183   0.68206   0.38828   0.00000  Uiso   1.00
C253   C     0.23689   0.66607   0.46229   0.00000  Uiso   1.00
H254   H     0.95535   0.65476   0.58848   0.00000  Uiso   1.00
H255   H     0.86937   0.56263   0.52316   0.00000  Uiso   1.00
H256   H     0.88464   0.76059   0.61599   0.00000  Uiso   1.00
H257   H     0.10432   0.63658   0.65263   0.00000  Uiso   1.00
H258   H     0.78618   0.46763   0.40925   0.00000  Uiso   1.00
H259   H     0.81840   0.88505   0.60501   0.00000  Uiso   1.00
H260   H     0.28164   0.62356   0.68226   0.00000  Uiso   1.00
H261   H     0.04904   0.70976   0.26889   0.00000  Uiso   1.00
H262   H     0.96820   0.62064   0.18602   0.00000  Uiso   1.00
H263   H     0.98346   0.81860   0.27886   0.00000  Uiso   1.00
H264   H     0.20314   0.69459   0.31549   0.00000  Uiso   1.00
H265   H     0.86639   0.51471   0.13561   0.00000  Uiso   1.00
H266   H     0.89861   0.93214   0.33138   0.00000  Uiso   1.00
H267   H     0.36185   0.67064   0.40863   0.00000  Uiso   1.00
O268   O     0.77139   0.43157   0.22368   0.00000  Uiso   1.00
O269   O     0.81368   0.97921   0.48053   0.00000  Uiso   1.00
O270   O     0.42144   0.63613   0.58187   0.00000  Uiso   1.00
N271   N     0.81617   0.49094   0.35622   0.00000  Uiso   1.00
N272   N     0.84628   0.88120   0.53925   0.00000  Uiso   1.00
N273   N     0.27937   0.63674   0.61148   0.00000  Uiso   1.00
N274   N     0.85933   0.51627   0.20898   0.00000  Uiso   1.00
N275   N     0.88944   0.90653   0.39201   0.00000  Uiso   1.00
N276   N     0.32253   0.66207   0.46424   0.00000  Uiso   1.00
C277   C     0.47682   0.33264   0.98474   0.00000  Uiso   1.00
C278   C     0.44310   0.37508   0.06455   0.00000  Uiso   1.00
C279   C     0.39070   0.42486   0.04964   0.00000  Uiso   1.00
C280   C     0.36681   0.45794   0.13221   0.00000  Uiso   1.00
C281   C     0.31023   0.52627   0.24184   0.00000  Uiso   1.00
C282   C     0.45138   0.26752   0.01411   0.00000  Uiso   1.00
C283   C     0.40596   0.22687   0.95679   0.00000  Uiso   1.00
C284   C     0.38906   0.16940   0.99690   0.00000  Uiso   1.00
C285   C     0.34539   0.07074   0.02819   0.00000  Uiso   1.00
C286   C     0.57074   0.33490   0.99421   0.00000  Uiso   1.00
C287   C     0.62568   0.35090   0.92014   0.00000  Uiso   1.00
C288   C     0.70927   0.35014   0.94349   0.00000  Uiso   1.00
C289   C     0.85092   0.35610   0.94388   0.00000  Uiso   1.00
C290   C     0.52757   0.30285   0.15789   0.00000  Uiso   1.00
C291   C     0.47067   0.35889   0.15860   0.00000  Uiso   1.00
C292   C     0.44685   0.39190   0.24121   0.00000  Uiso   1.00
C293   C     0.39443   0.44173   0.22643   0.00000  Uiso   1.00
C294   C     0.47895   0.25134   0.10816   0.00000  Uiso   1.00
C295   C     0.46212   0.19391   0.14836   0.00000  Uiso   1.00
C296   C     0.41667   0.15319   0.09112   0.00000  Uiso   1.00
C297   C     0.59831   0.31872   0.08826   0.00000  Uiso   1.00
C298   C     0.68183   0.31794   0.11172   0.00000  Uiso   1.00
C299   C     0.73689   0.33393   0.03771   0.00000  Uiso   1.00
H300   H     0.45535   0.34524   0.91152   0.00000  Uiso   1.00
H301   H     0.36937   0.43737   0.97684   0.00000  Uiso   1.00
H302   H     0.38464   0.23941   0.88401   0.00000  Uiso   1.00
H303   H     0.60432   0.36342   0.84737   0.00000  Uiso   1.00
H304   H     0.28618   0.53237   0.09075   0.00000  Uiso   1.00
H305   H     0.31840   0.11495   0.89499   0.00000  Uiso   1.00
H306   H     0.78164   0.37644   0.81774   0.00000  Uiso   1.00
H307   H     0.54904   0.29024   0.23111   0.00000  Uiso   1.00
H308   H     0.46820   0.37936   0.31398   0.00000  Uiso   1.00
H309   H     0.48346   0.18140   0.22114   0.00000  Uiso   1.00
H310   H     0.70314   0.30541   0.18451   0.00000  Uiso   1.00
H311   H     0.36639   0.48529   0.36439   0.00000  Uiso   1.00
H312   H     0.39861   0.06786   0.16862   0.00000  Uiso   1.00
H313   H     0.86185   0.32936   0.09137   0.00000  Uiso   1.00
O314   O     0.27139   0.56843   0.27632   0.00000  Uiso   1.00
O315   O     0.31368   0.02079   0.01947   0.00000  Uiso   1.00
O316   O     0.92144   0.36387   0.91813   0.00000  Uiso   1.00
N317   N     0.31617   0.50906   0.14378   0.00000  Uiso   1.00
N318   N     0.34628   0.11880   0.96075   0.00000  Uiso   1.00
N319   N     0.77937   0.36326   0.88852   0.00000  Uiso   1.00
N320   N     0.35933   0.48373   0.29102   0.00000  Uiso   1.00
N321   N     0.38944   0.09347   0.10799   0.00000  Uiso   1.00
N322   N     0.82253   0.33793   0.03576   0.00000  Uiso   1.00
C323   C     0.02318   0.16736   0.98474   0.00000  Uiso   1.00
C324   C     0.05690   0.12492   0.06455   0.00000  Uiso   1.00
C325   C     0.10930   0.07514   0.04964   0.00000  Uiso   1.00
C326   C     0.13319   0.04206   0.13221   0.00000  Uiso   1.00
C327   C     0.18977   0.97373   0.24184   0.00000  Uiso   1.00
C328   C     0.04862   0.23248   0.01411   0.00000  Uiso   1.00
C329   C     0.09404   0.27313   0.95679   0.00000  Uiso   1.00
C330   C     0.11094   0.33060   0.99690   0.00000  Uiso   1.00
C331   C     0.15461   0.42926   0.02819   0.00000  Uiso   1.00
C332   C     0.92926   0.16510   0.99421   0.00000  Uiso   1.00
C333   C     0.87432   0.14910   0.92014   0.00000  Uiso   1.00
C334   C     0.79073   0.14986   0.94349   0.00000  Uiso   1.00
C335   C     0.64908   0.14390   0.94388   0.00000  Uiso   1.00
C336   C     0.97243   0.19715   0.15789   0.00000  Uiso   1.00
C337   C     0.02933   0.14111   0.15860   0.00000  Uiso   1.00
C338   C     0.05315   0.10810   0.24121   0.00000  Uiso   1.00
C339   C     0.10557   0.05827   0.22643   0.00000  Uiso   1.00
C340   C     0.02105   0.24866   0.10816   0.00000  Uiso   1.00
C341   C     0.03788   0.30609   0.14836   0.00000  Uiso   1.00
C342   C     0.08333   0.34681   0.09112   0.00000  Uiso   1.00
C343   C     0.90169   0.18128   0.08826   0.00000  Uiso   1.00
C344   C     0.81817   0.18206   0.11172   0.00000  Uiso   1.00
C345   C     0.76311   0.16607   0.03771   0.00000  Uiso   1.00
H346   H     0.04465   0.15476   0.91152   0.00000  Uiso   1.00
H347   H     0.13063   0.06263   0.97684   0.00000  Uiso   1.00
H348   H     0.11536   0.26059   0.88401   0.00000  Uiso   1.00
H349   H     0.89568   0.13658   0.84737   0.00000  Uiso   1.00
H350   H     0.21382   0.96763   0.09075   0.00000  Uiso   1.00
H351   H     0.18160   0.38505   0.89499   0.00000  Uiso   1.00
H352   H     0.71836   0.12356   0.81774   0.00000  Uiso   1.00
H353   H     0.95096   0.20976   0.23111   0.00000  Uiso   1.00
H354   H     0.03180   0.12064   0.31398   0.00000  Uiso   1.00
H355   H     0.01654   0.31860   0.22114   0.00000  Uiso   1.00
H356   H     0.79686   0.19459   0.18451   0.00000  Uiso   1.00
H357   H     0.13361   0.01471   0.36439   0.00000  Uiso   1.00
H358   H     0.10139   0.43214   0.16862   0.00000  Uiso   1.00
H359   H     0.63815   0.17064   0.09137   0.00000  Uiso   1.00
O360   O     0.22861   0.93157   0.27632   0.00000  Uiso   1.00
O361   O     0.18632   0.47921   0.01947   0.00000  Uiso   1.00
O362   O     0.57856   0.13613   0.91813   0.00000  Uiso   1.00
N363   N     0.18383   0.99094   0.14378   0.00000  Uiso   1.00
N364   N     0.15372   0.38120   0.96075   0.00000  Uiso   1.00
N365   N     0.72063   0.13674   0.88852   0.00000  Uiso   1.00
N366   N     0.14067   0.01627   0.29102   0.00000  Uiso   1.00
N367   N     0.11056   0.40653   0.10799   0.00000  Uiso   1.00
N368   N     0.67747   0.16207   0.03576   0.00000  Uiso   1.00
