data_job_03892
_audit_creation_date              2018-12-19
_audit_creation_method            'Materials Studio'
_symmetry_space_group_name_H-M    'P1'
_symmetry_Int_Tables_number       1
_symmetry_cell_setting            triclinic
loop_
_symmetry_equiv_pos_as_xyz
  x,y,z
_cell_length_a                    28.3378
_cell_length_b                    7.4855
_cell_length_c                    27.2844
_cell_angle_alpha                 90.0000
_cell_angle_beta                  46.0763
_cell_angle_gamma                 90.0000
loop_
_atom_site_label
_atom_site_type_symbol
_atom_site_fract_x
_atom_site_fract_y
_atom_site_fract_z
_atom_site_U_iso_or_equiv
_atom_site_adp_type
_atom_site_occupancy
C1     C     0.30635   0.77829   0.32743   0.00000  Uiso   1.00
C2     C     0.36043   0.74084   0.25130   0.00000  Uiso   1.00
C3     C     0.38400   0.86069   0.19975   0.00000  Uiso   1.00
C4     C     0.43362   0.80077   0.13332   0.00000  Uiso   1.00
C5     C     0.51375   0.76898   0.01728   0.00000  Uiso   1.00
C6     C     0.25435   0.63515   0.35663   0.00000  Uiso   1.00
C7     C     0.18873   0.66615   0.39365   0.00000  Uiso   1.00
C8     C     0.14906   0.51725   0.41589   0.00000  Uiso   1.00
C9     C     0.06449   0.32138   0.46342   0.00000  Uiso   1.00
C10    C     0.33594   0.73991   0.35633   0.00000  Uiso   1.00
C11    C     0.33891   0.85898   0.39312   0.00000  Uiso   1.00
C12    C     0.36792   0.79828   0.41514   0.00000  Uiso   1.00
C13    C     0.41003   0.76508   0.46221   0.00000  Uiso   1.00
C14    C     0.35258   0.45876   0.30112   0.00000  Uiso   1.00
C15    C     0.38553   0.56727   0.23701   0.00000  Uiso   1.00
C16    C     0.43514   0.50716   0.17064   0.00000  Uiso   1.00
C17    C     0.45877   0.62690   0.11900   0.00000  Uiso   1.00
C18    C     0.27946   0.46159   0.34234   0.00000  Uiso   1.00
C19    C     0.23987   0.31262   0.36454   0.00000  Uiso   1.00
C20    C     0.17421   0.34338   0.40158   0.00000  Uiso   1.00
C21    C     0.36105   0.56636   0.34204   0.00000  Uiso   1.00
C22    C     0.39005   0.50545   0.36401   0.00000  Uiso   1.00
C23    C     0.39307   0.62441   0.40082   0.00000  Uiso   1.00
H24    H     0.28680   0.91341   0.33856   0.00000  Uiso   1.00
H25    H     0.36455   0.99499   0.21083   0.00000  Uiso   1.00
H26    H     0.16932   0.80047   0.40470   0.00000  Uiso   1.00
H27    H     0.31948   0.99328   0.40417   0.00000  Uiso   1.00
H28    H     0.46180   0.00887   0.06292   0.00000  Uiso   1.00
H29    H     0.05014   0.59872   0.47173   0.00000  Uiso   1.00
H30    H     0.36677   0.00530   0.47062   0.00000  Uiso   1.00
H31    H     0.37212   0.32363   0.29000   0.00000  Uiso   1.00
H32    H     0.45456   0.37284   0.15960   0.00000  Uiso   1.00
H33    H     0.25932   0.17833   0.35347   0.00000  Uiso   1.00
H34    H     0.40948   0.37114   0.35294   0.00000  Uiso   1.00
H35    H     0.53485   0.50391   0.02133   0.00000  Uiso   1.00
H36    H     0.12319   0.09377   0.43015   0.00000  Uiso   1.00
H37    H     0.43982   0.50034   0.42904   0.00000  Uiso   1.00
O38    O     0.55100   0.79939   0.95722   0.00000  Uiso   1.00
O39    O     0.01091   0.26130   0.49358   0.00000  Uiso   1.00
O40    O     0.42633   0.79471   0.49212   0.00000  Uiso   1.00
N41    N     0.46769   0.88328   0.07102   0.00000  Uiso   1.00
N42    N     0.08281   0.49982   0.45323   0.00000  Uiso   1.00
N43    N     0.37882   0.87992   0.45221   0.00000  Uiso   1.00
N44    N     0.50700   0.61157   0.04865   0.00000  Uiso   1.00
N45    N     0.12212   0.22811   0.43086   0.00000  Uiso   1.00
N46    N     0.41813   0.60821   0.42983   0.00000  Uiso   1.00
C47    C     0.69365   0.27829   0.17257   0.00000  Uiso   1.00
C48    C     0.63957   0.24084   0.24870   0.00000  Uiso   1.00
C49    C     0.61600   0.36069   0.30025   0.00000  Uiso   1.00
C50    C     0.56638   0.30077   0.36668   0.00000  Uiso   1.00
C51    C     0.48625   0.26898   0.48272   0.00000  Uiso   1.00
C52    C     0.74565   0.13515   0.14337   0.00000  Uiso   1.00
C53    C     0.81127   0.16615   0.10635   0.00000  Uiso   1.00
C54    C     0.85094   0.01725   0.08411   0.00000  Uiso   1.00
C55    C     0.93551   0.82138   0.03658   0.00000  Uiso   1.00
C56    C     0.66406   0.23991   0.14367   0.00000  Uiso   1.00
C57    C     0.66109   0.35898   0.10688   0.00000  Uiso   1.00
C58    C     0.63208   0.29828   0.08486   0.00000  Uiso   1.00
C59    C     0.58997   0.26508   0.03779   0.00000  Uiso   1.00
C60    C     0.64742   0.95876   0.19888   0.00000  Uiso   1.00
C61    C     0.61447   0.06727   0.26299   0.00000  Uiso   1.00
C62    C     0.56486   0.00716   0.32936   0.00000  Uiso   1.00
C63    C     0.54123   0.12690   0.38100   0.00000  Uiso   1.00
C64    C     0.72054   0.96159   0.15766   0.00000  Uiso   1.00
C65    C     0.76013   0.81262   0.13546   0.00000  Uiso   1.00
C66    C     0.82579   0.84338   0.09842   0.00000  Uiso   1.00
C67    C     0.63895   0.06636   0.15796   0.00000  Uiso   1.00
C68    C     0.60995   0.00545   0.13599   0.00000  Uiso   1.00
C69    C     0.60693   0.12441   0.09918   0.00000  Uiso   1.00
H70    H     0.71320   0.41341   0.16144   0.00000  Uiso   1.00
H71    H     0.63545   0.49499   0.28917   0.00000  Uiso   1.00
H72    H     0.83068   0.30047   0.09530   0.00000  Uiso   1.00
H73    H     0.68052   0.49328   0.09583   0.00000  Uiso   1.00
H74    H     0.53820   0.50887   0.43708   0.00000  Uiso   1.00
H75    H     0.94986   0.09872   0.02827   0.00000  Uiso   1.00
H76    H     0.63323   0.50530   0.02938   0.00000  Uiso   1.00
H77    H     0.62788   0.82363   0.21000   0.00000  Uiso   1.00
H78    H     0.54544   0.87284   0.34040   0.00000  Uiso   1.00
H79    H     0.74068   0.67833   0.14653   0.00000  Uiso   1.00
H80    H     0.59052   0.87114   0.14706   0.00000  Uiso   1.00
H81    H     0.46515   0.00391   0.47867   0.00000  Uiso   1.00
H82    H     0.87681   0.59377   0.06985   0.00000  Uiso   1.00
H83    H     0.56018   0.00034   0.07096   0.00000  Uiso   1.00
O84    O     0.44900   0.29939   0.54278   0.00000  Uiso   1.00
O85    O     0.98909   0.76130   0.00642   0.00000  Uiso   1.00
O86    O     0.57367   0.29471   0.00788   0.00000  Uiso   1.00
N87    N     0.53231   0.38328   0.42898   0.00000  Uiso   1.00
N88    N     0.91719   0.99982   0.04677   0.00000  Uiso   1.00
N89    N     0.62118   0.37992   0.04779   0.00000  Uiso   1.00
N90    N     0.49300   0.11157   0.45135   0.00000  Uiso   1.00
N91    N     0.87788   0.72811   0.06914   0.00000  Uiso   1.00
N92    N     0.58187   0.10821   0.07017   0.00000  Uiso   1.00
C93    C     0.69365   0.22171   0.67257   0.00000  Uiso   1.00
C94    C     0.63957   0.25916   0.74870   0.00000  Uiso   1.00
C95    C     0.61600   0.13931   0.80025   0.00000  Uiso   1.00
C96    C     0.56638   0.19923   0.86668   0.00000  Uiso   1.00
C97    C     0.48625   0.23102   0.98272   0.00000  Uiso   1.00
C98    C     0.74565   0.36485   0.64337   0.00000  Uiso   1.00
C99    C     0.81127   0.33385   0.60635   0.00000  Uiso   1.00
C100   C     0.85094   0.48275   0.58411   0.00000  Uiso   1.00
C101   C     0.93551   0.67862   0.53658   0.00000  Uiso   1.00
C102   C     0.66406   0.26009   0.64367   0.00000  Uiso   1.00
C103   C     0.66109   0.14102   0.60688   0.00000  Uiso   1.00
C104   C     0.63208   0.20172   0.58486   0.00000  Uiso   1.00
C105   C     0.58997   0.23492   0.53779   0.00000  Uiso   1.00
C106   C     0.64742   0.54124   0.69888   0.00000  Uiso   1.00
C107   C     0.61447   0.43273   0.76299   0.00000  Uiso   1.00
C108   C     0.56486   0.49284   0.82936   0.00000  Uiso   1.00
C109   C     0.54123   0.37310   0.88100   0.00000  Uiso   1.00
C110   C     0.72054   0.53841   0.65766   0.00000  Uiso   1.00
C111   C     0.76013   0.68738   0.63546   0.00000  Uiso   1.00
C112   C     0.82579   0.65662   0.59842   0.00000  Uiso   1.00
C113   C     0.63895   0.43364   0.65796   0.00000  Uiso   1.00
C114   C     0.60995   0.49455   0.63599   0.00000  Uiso   1.00
C115   C     0.60693   0.37559   0.59918   0.00000  Uiso   1.00
H116   H     0.71320   0.08659   0.66144   0.00000  Uiso   1.00
H117   H     0.63545   0.00501   0.78917   0.00000  Uiso   1.00
H118   H     0.83068   0.19953   0.59530   0.00000  Uiso   1.00
H119   H     0.68052   0.00672   0.59583   0.00000  Uiso   1.00
H120   H     0.53820   0.99113   0.93708   0.00000  Uiso   1.00
H121   H     0.94986   0.40128   0.52827   0.00000  Uiso   1.00
H122   H     0.63323   0.99470   0.52938   0.00000  Uiso   1.00
H123   H     0.62788   0.67637   0.71000   0.00000  Uiso   1.00
H124   H     0.54544   0.62716   0.84040   0.00000  Uiso   1.00
H125   H     0.74068   0.82167   0.64653   0.00000  Uiso   1.00
H126   H     0.59052   0.62886   0.64706   0.00000  Uiso   1.00
H127   H     0.46515   0.49609   0.97867   0.00000  Uiso   1.00
H128   H     0.87681   0.90623   0.56985   0.00000  Uiso   1.00
H129   H     0.56018   0.49966   0.57096   0.00000  Uiso   1.00
O130   O     0.44900   0.20061   0.04278   0.00000  Uiso   1.00
O131   O     0.98909   0.73870   0.50642   0.00000  Uiso   1.00
O132   O     0.57367   0.20529   0.50788   0.00000  Uiso   1.00
N133   N     0.53231   0.11672   0.92898   0.00000  Uiso   1.00
N134   N     0.91719   0.50018   0.54677   0.00000  Uiso   1.00
N135   N     0.62118   0.12008   0.54779   0.00000  Uiso   1.00
N136   N     0.49300   0.38843   0.95135   0.00000  Uiso   1.00
N137   N     0.87788   0.77189   0.56914   0.00000  Uiso   1.00
N138   N     0.58187   0.39179   0.57017   0.00000  Uiso   1.00
C139   C     0.30635   0.72171   0.82743   0.00000  Uiso   1.00
C140   C     0.36043   0.75916   0.75130   0.00000  Uiso   1.00
C141   C     0.38400   0.63931   0.69975   0.00000  Uiso   1.00
C142   C     0.43362   0.69923   0.63332   0.00000  Uiso   1.00
C143   C     0.51375   0.73102   0.51728   0.00000  Uiso   1.00
C144   C     0.25435   0.86485   0.85663   0.00000  Uiso   1.00
C145   C     0.18873   0.83385   0.89365   0.00000  Uiso   1.00
C146   C     0.14906   0.98275   0.91589   0.00000  Uiso   1.00
C147   C     0.06449   0.17862   0.96342   0.00000  Uiso   1.00
C148   C     0.33594   0.76009   0.85633   0.00000  Uiso   1.00
C149   C     0.33891   0.64102   0.89312   0.00000  Uiso   1.00
C150   C     0.36792   0.70172   0.91514   0.00000  Uiso   1.00
C151   C     0.41003   0.73492   0.96221   0.00000  Uiso   1.00
C152   C     0.35258   0.04124   0.80112   0.00000  Uiso   1.00
C153   C     0.38553   0.93273   0.73701   0.00000  Uiso   1.00
C154   C     0.43514   0.99284   0.67064   0.00000  Uiso   1.00
C155   C     0.45877   0.87310   0.61900   0.00000  Uiso   1.00
C156   C     0.27946   0.03841   0.84234   0.00000  Uiso   1.00
C157   C     0.23987   0.18738   0.86454   0.00000  Uiso   1.00
C158   C     0.17421   0.15662   0.90158   0.00000  Uiso   1.00
C159   C     0.36105   0.93364   0.84204   0.00000  Uiso   1.00
C160   C     0.39005   0.99455   0.86401   0.00000  Uiso   1.00
C161   C     0.39307   0.87559   0.90082   0.00000  Uiso   1.00
H162   H     0.28680   0.58659   0.83856   0.00000  Uiso   1.00
H163   H     0.36455   0.50501   0.71083   0.00000  Uiso   1.00
H164   H     0.16932   0.69953   0.90470   0.00000  Uiso   1.00
H165   H     0.31948   0.50672   0.90417   0.00000  Uiso   1.00
H166   H     0.46180   0.49113   0.56292   0.00000  Uiso   1.00
H167   H     0.05014   0.90128   0.97173   0.00000  Uiso   1.00
H168   H     0.36677   0.49470   0.97062   0.00000  Uiso   1.00
H169   H     0.37212   0.17637   0.79000   0.00000  Uiso   1.00
H170   H     0.45456   0.12716   0.65960   0.00000  Uiso   1.00
H171   H     0.25932   0.32167   0.85347   0.00000  Uiso   1.00
H172   H     0.40948   0.12886   0.85294   0.00000  Uiso   1.00
H173   H     0.53485   0.99609   0.52133   0.00000  Uiso   1.00
H174   H     0.12319   0.40623   0.93015   0.00000  Uiso   1.00
H175   H     0.43982   0.99966   0.92904   0.00000  Uiso   1.00
O176   O     0.55100   0.70061   0.45722   0.00000  Uiso   1.00
O177   O     0.01091   0.23870   0.99358   0.00000  Uiso   1.00
O178   O     0.42633   0.70529   0.99212   0.00000  Uiso   1.00
N179   N     0.46769   0.61672   0.57102   0.00000  Uiso   1.00
N180   N     0.08281   0.00018   0.95323   0.00000  Uiso   1.00
N181   N     0.37882   0.62008   0.95221   0.00000  Uiso   1.00
N182   N     0.50700   0.88843   0.54865   0.00000  Uiso   1.00
N183   N     0.12212   0.27189   0.93086   0.00000  Uiso   1.00
N184   N     0.41813   0.89179   0.92983   0.00000  Uiso   1.00
