data_job_06679
_audit_creation_date              2018-12-19
_audit_creation_method            'Materials Studio'
_symmetry_space_group_name_H-M    'P1'
_symmetry_Int_Tables_number       1
_symmetry_cell_setting            triclinic
loop_
_symmetry_equiv_pos_as_xyz
  x,y,z
_cell_length_a                    22.6566
_cell_length_b                    20.8403
_cell_length_c                    15.6042
_cell_angle_alpha                 74.7349
_cell_angle_beta                  73.0378
_cell_angle_gamma                 84.3468
loop_
_atom_site_label
_atom_site_type_symbol
_atom_site_fract_x
_atom_site_fract_y
_atom_site_fract_z
_atom_site_U_iso_or_equiv
_atom_site_adp_type
_atom_site_occupancy
C1     C     0.99488   0.73550   0.03288   0.00000  Uiso   1.00
C2     C     0.96598   0.67981   0.01317   0.00000  Uiso   1.00
C3     C     0.96145   0.67721   0.92736   0.00000  Uiso   1.00
C4     C     0.93339   0.62204   0.92375   0.00000  Uiso   1.00
C5     C     0.89194   0.54331   0.88107   0.00000  Uiso   1.00
C6     C     0.94512   0.76039   0.10725   0.00000  Uiso   1.00
C7     C     0.92305   0.82554   0.10054   0.00000  Uiso   1.00
C8     C     0.87744   0.83821   0.17613   0.00000  Uiso   1.00
C9     C     0.80363   0.88458   0.27953   0.00000  Uiso   1.00
C10    C     0.04493   0.70233   0.07840   0.00000  Uiso   1.00
C11    C     0.10680   0.71867   0.04746   0.00000  Uiso   1.00
C12    C     0.14523   0.68246   0.09877   0.00000  Uiso   1.00
C13    C     0.22640   0.63869   0.15739   0.00000  Uiso   1.00
C14    C     0.95313   0.64217   0.17905   0.00000  Uiso   1.00
C15    C     0.94330   0.62912   0.09256   0.00000  Uiso   1.00
C16    C     0.91525   0.57395   0.08908   0.00000  Uiso   1.00
C17    C     0.91068   0.57126   0.00328   0.00000  Uiso   1.00
C18    C     0.92244   0.70970   0.18664   0.00000  Uiso   1.00
C19    C     0.87685   0.72228   0.26226   0.00000  Uiso   1.00
C20    C     0.85472   0.78742   0.25567   0.00000  Uiso   1.00
C21    C     0.02226   0.65163   0.15779   0.00000  Uiso   1.00
C22    C     0.06060   0.61540   0.20917   0.00000  Uiso   1.00
C23    C     0.12251   0.63168   0.17831   0.00000  Uiso   1.00
H24    H     0.01254   0.77496   0.97108   0.00000  Uiso   1.00
H25    H     0.97900   0.71645   0.86594   0.00000  Uiso   1.00
H26    H     0.94061   0.86476   0.03910   0.00000  Uiso   1.00
H27    H     0.12433   0.75790   0.98602   0.00000  Uiso   1.00
H28    H     0.93179   0.62923   0.78439   0.00000  Uiso   1.00
H29    H     0.85087   0.94195   0.14952   0.00000  Uiso   1.00
H30    H     0.23827   0.71662   0.03759   0.00000  Uiso   1.00
H31    H     0.93547   0.60270   0.24086   0.00000  Uiso   1.00
H32    H     0.89770   0.53473   0.15053   0.00000  Uiso   1.00
H33    H     0.85932   0.68304   0.32368   0.00000  Uiso   1.00
H34    H     0.04303   0.57618   0.27061   0.00000  Uiso   1.00
H35    H     0.86581   0.48174   0.01538   0.00000  Uiso   1.00
H36    H     0.78489   0.79446   0.38050   0.00000  Uiso   1.00
H37    H     0.17229   0.56913   0.26857   0.00000  Uiso   1.00
O38    O     0.87532   0.51389   0.83560   0.00000  Uiso   1.00
O39    O     0.76917   0.92417   0.31463   0.00000  Uiso   1.00
O40    O     0.27743   0.62854   0.16778   0.00000  Uiso   1.00
N41    N     0.92146   0.60384   0.85115   0.00000  Uiso   1.00
N42    N     0.84579   0.89621   0.19251   0.00000  Uiso   1.00
N43    N     0.20798   0.68556   0.08789   0.00000  Uiso   1.00
N44    N     0.88595   0.52447   0.97544   0.00000  Uiso   1.00
N45    N     0.81029   0.81685   0.31680   0.00000  Uiso   1.00
N46    N     0.17247   0.60620   0.21217   0.00000  Uiso   1.00
C47    C     0.02613   0.96024   0.80951   0.00000  Uiso   1.00
C48    C     0.00840   0.92181   0.75030   0.00000  Uiso   1.00
C49    C     0.95668   0.88300   0.77689   0.00000  Uiso   1.00
C50    C     0.94867   0.85186   0.71273   0.00000  Uiso   1.00
C51    C     0.91474   0.79104   0.63414   0.00000  Uiso   1.00
C52    C     0.09109   0.93581   0.81412   0.00000  Uiso   1.00
C53    C     0.10889   0.90879   0.89436   0.00000  Uiso   1.00
C54    C     0.17048   0.88944   0.88393   0.00000  Uiso   1.00
C55    C     0.26493   0.85040   0.90441   0.00000  Uiso   1.00
C56    C     0.03217   0.03248   0.75364   0.00000  Uiso   1.00
C57    C     0.00044   0.08673   0.78303   0.00000  Uiso   1.00
C58    C     0.01244   0.14877   0.72167   0.00000  Uiso   1.00
C59    C     0.01541   0.25982   0.64825   0.00000  Uiso   1.00
C60    C     0.10387   0.97395   0.64830   0.00000  Uiso   1.00
C61    C     0.05064   0.92926   0.66274   0.00000  Uiso   1.00
C62    C     0.04270   0.89817   0.59853   0.00000  Uiso   1.00
C63    C     0.99097   0.85933   0.62501   0.00000  Uiso   1.00
C64    C     0.13332   0.94326   0.72656   0.00000  Uiso   1.00
C65    C     0.19490   0.92396   0.71600   0.00000  Uiso   1.00
C66    C     0.21279   0.89690   0.79621   0.00000  Uiso   1.00
C67    C     0.07440   0.03993   0.66607   0.00000  Uiso   1.00
C68    C     0.08646   0.10190   0.60467   0.00000  Uiso   1.00
C69    C     0.05475   0.15624   0.63396   0.00000  Uiso   1.00
H70    H     0.99325   0.95444   0.87768   0.00000  Uiso   1.00
H71    H     0.92402   0.87725   0.84466   0.00000  Uiso   1.00
H72    H     0.07620   0.90303   0.96211   0.00000  Uiso   1.00
H73    H     0.96777   0.08095   0.85079   0.00000  Uiso   1.00
H74    H     0.86589   0.79493   0.76945   0.00000  Uiso   1.00
H75    H     0.18677   0.84932   0.01710   0.00000  Uiso   1.00
H76    H     0.95813   0.22449   0.78237   0.00000  Uiso   1.00
H77    H     0.13675   0.97975   0.58013   0.00000  Uiso   1.00
H78    H     0.07539   0.90395   0.53077   0.00000  Uiso   1.00
H79    H     0.22757   0.92973   0.64823   0.00000  Uiso   1.00
H80    H     0.11914   0.10765   0.53691   0.00000  Uiso   1.00
H81    H     0.98875   0.81660   0.51468   0.00000  Uiso   1.00
H82    H     0.30964   0.87099   0.76235   0.00000  Uiso   1.00
H83    H     0.08099   0.24616   0.52761   0.00000  Uiso   1.00
O84    O     0.88437   0.75542   0.61498   0.00000  Uiso   1.00
O85    O     0.30536   0.82680   0.93990   0.00000  Uiso   1.00
O86    O     0.00538   0.31901   0.63193   0.00000  Uiso   1.00
N87    N     0.90322   0.81044   0.71625   0.00000  Uiso   1.00
N88    N     0.20323   0.86129   0.94780   0.00000  Uiso   1.00
N89    N     0.98947   0.21204   0.72835   0.00000  Uiso   1.00
N90    N     0.96933   0.82210   0.57917   0.00000  Uiso   1.00
N91    N     0.26934   0.87295   0.81072   0.00000  Uiso   1.00
N92    N     0.05558   0.22370   0.59126   0.00000  Uiso   1.00
C93    C     0.74924   0.93014   0.94138   0.00000  Uiso   1.00
C94    C     0.70689   0.89288   0.91196   0.00000  Uiso   1.00
C95    C     0.71387   0.82664   0.90846   0.00000  Uiso   1.00
C96    C     0.67025   0.80182   0.87969   0.00000  Uiso   1.00
C97    C     0.61194   0.73789   0.83766   0.00000  Uiso   1.00
C98    C     0.77125   0.99029   0.86093   0.00000  Uiso   1.00
C99    C     0.83234   0.00594   0.81453   0.00000  Uiso   1.00
C100   C     0.84289   0.06313   0.74281   0.00000  Uiso   1.00
C101   C     0.88451   0.15044   0.62160   0.00000  Uiso   1.00
C102   C     0.70797   0.95778   0.02051   0.00000  Uiso   1.00
C103   C     0.71587   0.94611   0.10829   0.00000  Uiso   1.00
C104   C     0.67315   0.97595   0.17092   0.00000  Uiso   1.00
C105   C     0.61652   0.01279   0.29748   0.00000  Uiso   1.00
C106   C     0.65936   0.00388   0.89652   0.00000  Uiso   1.00
C107   C     0.65807   0.93294   0.88759   0.00000  Uiso   1.00
C108   C     0.61443   0.90822   0.85882   0.00000  Uiso   1.00
C109   C     0.62134   0.84195   0.85528   0.00000  Uiso   1.00
C110   C     0.72244   0.03034   0.83656   0.00000  Uiso   1.00
C111   C     0.73290   0.08753   0.76490   0.00000  Uiso   1.00
C112   C     0.79399   0.10325   0.71840   0.00000  Uiso   1.00
C113   C     0.65915   0.99784   0.99614   0.00000  Uiso   1.00
C114   C     0.61642   0.02770   0.05865   0.00000  Uiso   1.00
C115   C     0.62424   0.01608   0.14650   0.00000  Uiso   1.00
H116   H     0.78725   0.89896   0.96035   0.00000  Uiso   1.00
H117   H     0.75166   0.79565   0.92731   0.00000  Uiso   1.00
H118   H     0.87011   0.97493   0.83341   0.00000  Uiso   1.00
H119   H     0.75365   0.91512   0.12712   0.00000  Uiso   1.00
H120   H     0.69069   0.69880   0.87991   0.00000  Uiso   1.00
H121   H     0.94045   0.07683   0.68193   0.00000  Uiso   1.00
H122   H     0.69487   0.95069   0.30127   0.00000  Uiso   1.00
H123   H     0.62135   0.03507   0.87755   0.00000  Uiso   1.00
H124   H     0.57665   0.93923   0.83997   0.00000  Uiso   1.00
H125   H     0.69511   0.11851   0.74606   0.00000  Uiso   1.00
H126   H     0.57865   0.05869   0.03977   0.00000  Uiso   1.00
H127   H     0.54865   0.81533   0.80901   0.00000  Uiso   1.00
H128   H     0.79841   0.19336   0.61103   0.00000  Uiso   1.00
H129   H     0.55283   0.06722   0.23037   0.00000  Uiso   1.00
O130   O     0.59327   0.69157   0.82120   0.00000  Uiso   1.00
O131   O     0.92095   0.18754   0.56147   0.00000  Uiso   1.00
O132   O     0.59876   0.02204   0.37403   0.00000  Uiso   1.00
N133   N     0.66339   0.73937   0.86840   0.00000  Uiso   1.00
N134   N     0.89690   0.09280   0.68329   0.00000  Uiso   1.00
N135   N     0.66731   0.97489   0.26231   0.00000  Uiso   1.00
N136   N     0.58695   0.80207   0.83025   0.00000  Uiso   1.00
N137   N     0.82047   0.15551   0.64514   0.00000  Uiso   1.00
N138   N     0.59088   0.03759   0.22416   0.00000  Uiso   1.00
C139   C     0.47073   0.50943   0.32474   0.00000  Uiso   1.00
C140   C     0.43203   0.50282   0.26242   0.00000  Uiso   1.00
C141   C     0.39028   0.45308   0.28130   0.00000  Uiso   1.00
C142   C     0.35941   0.45581   0.21548   0.00000  Uiso   1.00
C143   C     0.29769   0.43786   0.13116   0.00000  Uiso   1.00
C144   C     0.45573   0.57855   0.34245   0.00000  Uiso   1.00
C145   C     0.43392   0.59249   0.42862   0.00000  Uiso   1.00
C146   C     0.42302   0.65897   0.43017   0.00000  Uiso   1.00
C147   C     0.39815   0.75859   0.47011   0.00000  Uiso   1.00
C148   C     0.53774   0.51085   0.26625   0.00000  Uiso   1.00
C149   C     0.58489   0.46787   0.28835   0.00000  Uiso   1.00
C150   C     0.64304   0.47735   0.22575   0.00000  Uiso   1.00
C151   C     0.74550   0.47186   0.14736   0.00000  Uiso   1.00
C152   C     0.49017   0.60271   0.17428   0.00000  Uiso   1.00
C153   C     0.44259   0.55349   0.18070   0.00000  Uiso   1.00
C154   C     0.41178   0.55629   0.11483   0.00000  Uiso   1.00
C155   C     0.36999   0.50656   0.13360   0.00000  Uiso   1.00
C156   C     0.46629   0.62922   0.26073   0.00000  Uiso   1.00
C157   C     0.45543   0.69569   0.26215   0.00000  Uiso   1.00
C158   C     0.43360   0.70973   0.34830   0.00000  Uiso   1.00
C159   C     0.54830   0.56151   0.18452   0.00000  Uiso   1.00
C160   C     0.60639   0.57107   0.12188   0.00000  Uiso   1.00
C161   C     0.65362   0.52811   0.14387   0.00000  Uiso   1.00
H162   H     0.46251   0.46999   0.38837   0.00000  Uiso   1.00
H163   H     0.38211   0.41388   0.34456   0.00000  Uiso   1.00
H164   H     0.42576   0.55327   0.49186   0.00000  Uiso   1.00
H165   H     0.57670   0.42866   0.35160   0.00000  Uiso   1.00
H166   H     0.29762   0.37404   0.25995   0.00000  Uiso   1.00
H167   H     0.38967   0.66794   0.57054   0.00000  Uiso   1.00
H168   H     0.70796   0.40519   0.27479   0.00000  Uiso   1.00
H169   H     0.49839   0.64216   0.11065   0.00000  Uiso   1.00
H170   H     0.41996   0.59551   0.05159   0.00000  Uiso   1.00
H171   H     0.46361   0.73489   0.19890   0.00000  Uiso   1.00
H172   H     0.61455   0.61029   0.05864   0.00000  Uiso   1.00
H173   H     0.32834   0.52146   0.02217   0.00000  Uiso   1.00
H174   H     0.42039   0.81536   0.33277   0.00000  Uiso   1.00
H175   H     0.73868   0.55261   0.03701   0.00000  Uiso   1.00
O176   O     0.26072   0.41396   0.10723   0.00000  Uiso   1.00
O177   O     0.38150   0.79955   0.51472   0.00000  Uiso   1.00
O178   O     0.79909   0.45482   0.12670   0.00000  Uiso   1.00
N179   N     0.31562   0.41513   0.21208   0.00000  Uiso   1.00
N180   N     0.40167   0.68991   0.50247   0.00000  Uiso   1.00
N181   N     0.69925   0.44427   0.22598   0.00000  Uiso   1.00
N182   N     0.33215   0.49445   0.08414   0.00000  Uiso   1.00
N183   N     0.41820   0.76923   0.37453   0.00000  Uiso   1.00
N184   N     0.71578   0.52359   0.09803   0.00000  Uiso   1.00
C185   C     0.41368   0.23536   0.44834   0.00000  Uiso   1.00
C186   C     0.37453   0.18916   0.42734   0.00000  Uiso   1.00
C187   C     0.31345   0.20082   0.42573   0.00000  Uiso   1.00
C188   C     0.28577   0.15246   0.40502   0.00000  Uiso   1.00
C189   C     0.22008   0.08955   0.37516   0.00000  Uiso   1.00
C190   C     0.47055   0.24979   0.36535   0.00000  Uiso   1.00
C191   C     0.49020   0.31245   0.31163   0.00000  Uiso   1.00
C192   C     0.54336   0.31513   0.23875   0.00000  Uiso   1.00
C193   C     0.62676   0.34636   0.11269   0.00000  Uiso   1.00
C194   C     0.43672   0.19405   0.52909   0.00000  Uiso   1.00
C195   C     0.42794   0.20985   0.61304   0.00000  Uiso   1.00
C196   C     0.45263   0.16561   0.67801   0.00000  Uiso   1.00
C197   C     0.48351   0.11029   0.80619   0.00000  Uiso   1.00
C198   C     0.47316   0.12872   0.41443   0.00000  Uiso   1.00
C199   C     0.40684   0.13124   0.40892   0.00000  Uiso   1.00
C200   C     0.37925   0.08284   0.38821   0.00000  Uiso   1.00
C201   C     0.31813   0.09444   0.38657   0.00000  Uiso   1.00
C202   C     0.50286   0.19188   0.34693   0.00000  Uiso   1.00
C203   C     0.55600   0.19447   0.27411   0.00000  Uiso   1.00
C204   C     0.57572   0.25711   0.22029   0.00000  Uiso   1.00
C205   C     0.46902   0.13613   0.51068   0.00000  Uiso   1.00
C206   C     0.49374   0.09186   0.57552   0.00000  Uiso   1.00
C207   C     0.48500   0.10758   0.65956   0.00000  Uiso   1.00
H208   H     0.38854   0.28046   0.46268   0.00000  Uiso   1.00
H209   H     0.28847   0.24566   0.43998   0.00000  Uiso   1.00
H210   H     0.46520   0.35726   0.32591   0.00000  Uiso   1.00
H211   H     0.40294   0.25467   0.62727   0.00000  Uiso   1.00
H212   H     0.19177   0.18155   0.40665   0.00000  Uiso   1.00
H213   H     0.56443   0.41687   0.16615   0.00000  Uiso   1.00
H214   H     0.43316   0.20055   0.80164   0.00000  Uiso   1.00
H215   H     0.49831   0.08363   0.40009   0.00000  Uiso   1.00
H216   H     0.40426   0.03803   0.37396   0.00000  Uiso   1.00
H217   H     0.58099   0.14964   0.25988   0.00000  Uiso   1.00
H218   H     0.51873   0.04705   0.56125   0.00000  Uiso   1.00
H219   H     0.28575   0.01303   0.35306   0.00000  Uiso   1.00
H220   H     0.65841   0.24835   0.11256   0.00000  Uiso   1.00
H221   H     0.52714   0.03203   0.74804   0.00000  Uiso   1.00
O222   O     0.17492   0.07085   0.36376   0.00000  Uiso   1.00
O223   O     0.66384   0.37959   0.04824   0.00000  Uiso   1.00
O224   O     0.49161   0.09577   0.88199   0.00000  Uiso   1.00
N225   N     0.22679   0.14814   0.39764   0.00000  Uiso   1.00
N226   N     0.57520   0.36815   0.17278   0.00000  Uiso   1.00
N227   N     0.45249   0.16591   0.76690   0.00000  Uiso   1.00
N228   N     0.27737   0.05746   0.36881   0.00000  Uiso   1.00
N229   N     0.62577   0.27747   0.14394   0.00000  Uiso   1.00
N230   N     0.50306   0.07524   0.73806   0.00000  Uiso   1.00
C231   C     0.26305   0.51308   0.49597   0.00000  Uiso   1.00
C232   C     0.20810   0.48431   0.48226   0.00000  Uiso   1.00
C233   C     0.20584   0.46938   0.40171   0.00000  Uiso   1.00
C234   C     0.15135   0.44341   0.40311   0.00000  Uiso   1.00
C235   C     0.07370   0.40031   0.36980   0.00000  Uiso   1.00
C236   C     0.27836   0.46468   0.57911   0.00000  Uiso   1.00
C237   C     0.33519   0.43326   0.57999   0.00000  Uiso   1.00
C238   C     0.33984   0.39077   0.66293   0.00000  Uiso   1.00
C239   C     0.37129   0.31725   0.77999   0.00000  Uiso   1.00
C240   C     0.23911   0.57684   0.52642   0.00000  Uiso   1.00
C241   C     0.26294   0.63971   0.48301   0.00000  Uiso   1.00
C242   C     0.23456   0.69165   0.52159   0.00000  Uiso   1.00
C243   C     0.20506   0.79226   0.55684   0.00000  Uiso   1.00
C244   C     0.17027   0.49351   0.64171   0.00000  Uiso   1.00
C245   C     0.15771   0.47368   0.56142   0.00000  Uiso   1.00
C246   C     0.10320   0.44772   0.56295   0.00000  Uiso   1.00
C247   C     0.10086   0.43276   0.48241   0.00000  Uiso   1.00
C248   C     0.22797   0.45405   0.65827   0.00000  Uiso   1.00
C249   C     0.23254   0.41161   0.74123   0.00000  Uiso   1.00
C250   C     0.28936   0.38012   0.74223   0.00000  Uiso   1.00
C251   C     0.18872   0.56621   0.60558   0.00000  Uiso   1.00
C252   C     0.16029   0.61806   0.64424   0.00000  Uiso   1.00
C253   C     0.18407   0.68100   0.60089   0.00000  Uiso   1.00
H254   H     0.30228   0.52136   0.43435   0.00000  Uiso   1.00
H255   H     0.24486   0.47761   0.34047   0.00000  Uiso   1.00
H256   H     0.37418   0.44150   0.51873   0.00000  Uiso   1.00
H257   H     0.30194   0.64792   0.42175   0.00000  Uiso   1.00
H258   H     0.15897   0.42439   0.27130   0.00000  Uiso   1.00
H259   H     0.43166   0.34828   0.64717   0.00000  Uiso   1.00
H260   H     0.27934   0.78355   0.44269   0.00000  Uiso   1.00
H261   H     0.13104   0.48523   0.70334   0.00000  Uiso   1.00
H262   H     0.06421   0.43950   0.62421   0.00000  Uiso   1.00
H263   H     0.19353   0.40340   0.80247   0.00000  Uiso   1.00
H264   H     0.12130   0.60981   0.70550   0.00000  Uiso   1.00
H265   H     0.01235   0.39346   0.50160   0.00000  Uiso   1.00
H266   H     0.28504   0.31735   0.87747   0.00000  Uiso   1.00
H267   H     0.13272   0.75262   0.67299   0.00000  Uiso   1.00
O268   O     0.04480   0.37947   0.32956   0.00000  Uiso   1.00
O269   O     0.40256   0.27963   0.82269   0.00000  Uiso   1.00
O270   O     0.20271   0.85070   0.55441   0.00000  Uiso   1.00
N271   N     0.13363   0.42340   0.33636   0.00000  Uiso   1.00
N272   N     0.38858   0.35223   0.68777   0.00000  Uiso   1.00
N273   N     0.24618   0.75917   0.49661   0.00000  Uiso   1.00
N274   N     0.05473   0.40676   0.46028   0.00000  Uiso   1.00
N275   N     0.30968   0.33559   0.81169   0.00000  Uiso   1.00
N276   N     0.16728   0.74253   0.62053   0.00000  Uiso   1.00
C277   C     0.00512   0.26450   0.96712   0.00000  Uiso   1.00
C278   C     0.03402   0.32019   0.98683   0.00000  Uiso   1.00
C279   C     0.03855   0.32279   0.07264   0.00000  Uiso   1.00
C280   C     0.06661   0.37796   0.07625   0.00000  Uiso   1.00
C281   C     0.10806   0.45669   0.11893   0.00000  Uiso   1.00
C282   C     0.05488   0.23961   0.89275   0.00000  Uiso   1.00
C283   C     0.07695   0.17446   0.89946   0.00000  Uiso   1.00
C284   C     0.12256   0.16179   0.82387   0.00000  Uiso   1.00
C285   C     0.19637   0.11542   0.72047   0.00000  Uiso   1.00
C286   C     0.95507   0.29767   0.92160   0.00000  Uiso   1.00
C287   C     0.89320   0.28133   0.95254   0.00000  Uiso   1.00
C288   C     0.85477   0.31754   0.90123   0.00000  Uiso   1.00
C289   C     0.77360   0.36131   0.84261   0.00000  Uiso   1.00
C290   C     0.04687   0.35783   0.82095   0.00000  Uiso   1.00
C291   C     0.05670   0.37088   0.90744   0.00000  Uiso   1.00
C292   C     0.08475   0.42605   0.91092   0.00000  Uiso   1.00
C293   C     0.08932   0.42874   0.99672   0.00000  Uiso   1.00
C294   C     0.07756   0.29030   0.81336   0.00000  Uiso   1.00
C295   C     0.12315   0.27772   0.73774   0.00000  Uiso   1.00
C296   C     0.14528   0.21258   0.74433   0.00000  Uiso   1.00
C297   C     0.97774   0.34837   0.84221   0.00000  Uiso   1.00
C298   C     0.93940   0.38460   0.79083   0.00000  Uiso   1.00
C299   C     0.87749   0.36832   0.82169   0.00000  Uiso   1.00
H300   H     0.98746   0.22504   0.02892   0.00000  Uiso   1.00
H301   H     0.02100   0.28355   0.13406   0.00000  Uiso   1.00
H302   H     0.05939   0.13524   0.96090   0.00000  Uiso   1.00
H303   H     0.87567   0.24210   0.01398   0.00000  Uiso   1.00
H304   H     0.06821   0.37077   0.21561   0.00000  Uiso   1.00
H305   H     0.14913   0.05805   0.85048   0.00000  Uiso   1.00
H306   H     0.76173   0.28338   0.96241   0.00000  Uiso   1.00
H307   H     0.06453   0.39730   0.75914   0.00000  Uiso   1.00
H308   H     0.10230   0.46527   0.84947   0.00000  Uiso   1.00
H309   H     0.14068   0.31696   0.67632   0.00000  Uiso   1.00
H310   H     0.95697   0.42382   0.72939   0.00000  Uiso   1.00
H311   H     0.13419   0.51826   0.98462   0.00000  Uiso   1.00
H312   H     0.21511   0.20554   0.61950   0.00000  Uiso   1.00
H313   H     0.82771   0.43087   0.73143   0.00000  Uiso   1.00
O314   O     0.12468   0.48611   0.16440   0.00000  Uiso   1.00
O315   O     0.23083   0.07583   0.68537   0.00000  Uiso   1.00
O316   O     0.72257   0.37146   0.83222   0.00000  Uiso   1.00
N317   N     0.07854   0.39616   0.14885   0.00000  Uiso   1.00
N318   N     0.15421   0.10379   0.80749   0.00000  Uiso   1.00
N319   N     0.79202   0.31444   0.91211   0.00000  Uiso   1.00
N320   N     0.11405   0.47553   0.02456   0.00000  Uiso   1.00
N321   N     0.18971   0.18315   0.68320   0.00000  Uiso   1.00
N322   N     0.82753   0.39380   0.78783   0.00000  Uiso   1.00
C323   C     0.97387   0.03976   0.19049   0.00000  Uiso   1.00
C324   C     0.99160   0.07819   0.24970   0.00000  Uiso   1.00
C325   C     0.04332   0.11700   0.22311   0.00000  Uiso   1.00
C326   C     0.05133   0.14814   0.28727   0.00000  Uiso   1.00
C327   C     0.08526   0.20896   0.36586   0.00000  Uiso   1.00
C328   C     0.90891   0.06419   0.18588   0.00000  Uiso   1.00
C329   C     0.89111   0.09121   0.10564   0.00000  Uiso   1.00
C330   C     0.82952   0.11056   0.11607   0.00000  Uiso   1.00
C331   C     0.73507   0.14960   0.09559   0.00000  Uiso   1.00
C332   C     0.96783   0.96752   0.24636   0.00000  Uiso   1.00
C333   C     0.99956   0.91327   0.21697   0.00000  Uiso   1.00
C334   C     0.98756   0.85123   0.27833   0.00000  Uiso   1.00
C335   C     0.98459   0.74018   0.35175   0.00000  Uiso   1.00
C336   C     0.89613   0.02605   0.35170   0.00000  Uiso   1.00
C337   C     0.94936   0.07074   0.33726   0.00000  Uiso   1.00
C338   C     0.95730   0.10183   0.40147   0.00000  Uiso   1.00
C339   C     0.00903   0.14067   0.37499   0.00000  Uiso   1.00
C340   C     0.86668   0.05674   0.27344   0.00000  Uiso   1.00
C341   C     0.80510   0.07604   0.28400   0.00000  Uiso   1.00
C342   C     0.78721   0.10310   0.20379   0.00000  Uiso   1.00
C343   C     0.92560   0.96007   0.33393   0.00000  Uiso   1.00
C344   C     0.91354   0.89810   0.39533   0.00000  Uiso   1.00
C345   C     0.94525   0.84376   0.36604   0.00000  Uiso   1.00
H346   H     0.00675   0.04556   0.12232   0.00000  Uiso   1.00
H347   H     0.07598   0.12275   0.15534   0.00000  Uiso   1.00
H348   H     0.92380   0.09697   0.03789   0.00000  Uiso   1.00
H349   H     0.03223   0.91905   0.14921   0.00000  Uiso   1.00
H350   H     0.13411   0.20507   0.23055   0.00000  Uiso   1.00
H351   H     0.81323   0.15068   0.98290   0.00000  Uiso   1.00
H352   H     0.04187   0.77551   0.21763   0.00000  Uiso   1.00
H353   H     0.86325   0.02025   0.41987   0.00000  Uiso   1.00
H354   H     0.92461   0.09605   0.46923   0.00000  Uiso   1.00
H355   H     0.77243   0.07027   0.35177   0.00000  Uiso   1.00
H356   H     0.88086   0.89235   0.46309   0.00000  Uiso   1.00
H357   H     0.01125   0.18340   0.48532   0.00000  Uiso   1.00
H358   H     0.69036   0.12901   0.23765   0.00000  Uiso   1.00
H359   H     0.91901   0.75384   0.47239   0.00000  Uiso   1.00
O360   O     0.11563   0.24458   0.38502   0.00000  Uiso   1.00
O361   O     0.69464   0.17320   0.06010   0.00000  Uiso   1.00
O362   O     0.99462   0.68099   0.36807   0.00000  Uiso   1.00
N363   N     0.09678   0.18956   0.28375   0.00000  Uiso   1.00
N364   N     0.79677   0.13871   0.05220   0.00000  Uiso   1.00
N365   N     0.01053   0.78796   0.27165   0.00000  Uiso   1.00
N366   N     0.03067   0.17790   0.42083   0.00000  Uiso   1.00
N367   N     0.73066   0.12705   0.18928   0.00000  Uiso   1.00
N368   N     0.94442   0.77630   0.40874   0.00000  Uiso   1.00
C369   C     0.25076   0.06986   0.05862   0.00000  Uiso   1.00
C370   C     0.29311   0.10712   0.08804   0.00000  Uiso   1.00
C371   C     0.28613   0.17336   0.09154   0.00000  Uiso   1.00
C372   C     0.32975   0.19818   0.12031   0.00000  Uiso   1.00
C373   C     0.38806   0.26211   0.16234   0.00000  Uiso   1.00
C374   C     0.22875   0.00971   0.13907   0.00000  Uiso   1.00
C375   C     0.16766   0.99406   0.18547   0.00000  Uiso   1.00
C376   C     0.15711   0.93687   0.25719   0.00000  Uiso   1.00
C377   C     0.11549   0.84956   0.37840   0.00000  Uiso   1.00
C378   C     0.29203   0.04222   0.97949   0.00000  Uiso   1.00
C379   C     0.28413   0.05389   0.89171   0.00000  Uiso   1.00
C380   C     0.32685   0.02405   0.82908   0.00000  Uiso   1.00
C381   C     0.38348   0.98721   0.70252   0.00000  Uiso   1.00
C382   C     0.34064   0.99612   0.10348   0.00000  Uiso   1.00
C383   C     0.34193   0.06706   0.11241   0.00000  Uiso   1.00
C384   C     0.38557   0.09178   0.14118   0.00000  Uiso   1.00
C385   C     0.37866   0.15805   0.14472   0.00000  Uiso   1.00
C386   C     0.27756   0.96966   0.16344   0.00000  Uiso   1.00
C387   C     0.26710   0.91247   0.23510   0.00000  Uiso   1.00
C388   C     0.20601   0.89675   0.28160   0.00000  Uiso   1.00
C389   C     0.34085   0.00216   0.00386   0.00000  Uiso   1.00
C390   C     0.38358   0.97230   0.94135   0.00000  Uiso   1.00
C391   C     0.37576   0.98392   0.85350   0.00000  Uiso   1.00
H392   H     0.21275   0.10104   0.03965   0.00000  Uiso   1.00
H393   H     0.24834   0.20435   0.07269   0.00000  Uiso   1.00
H394   H     0.12989   0.02507   0.16659   0.00000  Uiso   1.00
H395   H     0.24635   0.08488   0.87288   0.00000  Uiso   1.00
H396   H     0.30931   0.30120   0.12009   0.00000  Uiso   1.00
H397   H     0.05955   0.92317   0.31807   0.00000  Uiso   1.00
H398   H     0.30513   0.04931   0.69873   0.00000  Uiso   1.00
H399   H     0.37865   0.96493   0.12245   0.00000  Uiso   1.00
H400   H     0.42335   0.06077   0.16003   0.00000  Uiso   1.00
H401   H     0.30489   0.88149   0.25394   0.00000  Uiso   1.00
H402   H     0.42135   0.94131   0.96023   0.00000  Uiso   1.00
H403   H     0.45135   0.18467   0.19099   0.00000  Uiso   1.00
H404   H     0.20159   0.80664   0.38897   0.00000  Uiso   1.00
H405   H     0.44717   0.93278   0.76963   0.00000  Uiso   1.00
O406   O     0.40673   0.30843   0.17880   0.00000  Uiso   1.00
O407   O     0.07905   0.81246   0.43853   0.00000  Uiso   1.00
O408   O     0.40124   0.97796   0.62597   0.00000  Uiso   1.00
N409   N     0.33661   0.26063   0.13160   0.00000  Uiso   1.00
N410   N     0.10310   0.90720   0.31671   0.00000  Uiso   1.00
N411   N     0.33269   0.02511   0.73769   0.00000  Uiso   1.00
N412   N     0.41305   0.19793   0.16975   0.00000  Uiso   1.00
N413   N     0.17953   0.84449   0.35486   0.00000  Uiso   1.00
N414   N     0.40912   0.96241   0.77584   0.00000  Uiso   1.00
C415   C     0.52927   0.49057   0.67526   0.00000  Uiso   1.00
C416   C     0.56797   0.49718   0.73758   0.00000  Uiso   1.00
C417   C     0.60972   0.54692   0.71870   0.00000  Uiso   1.00
C418   C     0.64059   0.54419   0.78452   0.00000  Uiso   1.00
C419   C     0.70231   0.56214   0.86884   0.00000  Uiso   1.00
C420   C     0.54427   0.42145   0.65755   0.00000  Uiso   1.00
C421   C     0.56608   0.40751   0.57138   0.00000  Uiso   1.00
C422   C     0.57698   0.34103   0.56983   0.00000  Uiso   1.00
C423   C     0.60185   0.24141   0.52989   0.00000  Uiso   1.00
C424   C     0.46226   0.48915   0.73375   0.00000  Uiso   1.00
C425   C     0.41511   0.53213   0.71165   0.00000  Uiso   1.00
C426   C     0.35696   0.52265   0.77425   0.00000  Uiso   1.00
C427   C     0.25450   0.52814   0.85264   0.00000  Uiso   1.00
C428   C     0.50983   0.39729   0.82572   0.00000  Uiso   1.00
C429   C     0.55741   0.44651   0.81930   0.00000  Uiso   1.00
C430   C     0.58822   0.44371   0.88517   0.00000  Uiso   1.00
C431   C     0.63001   0.49344   0.86640   0.00000  Uiso   1.00
C432   C     0.53371   0.37078   0.73927   0.00000  Uiso   1.00
C433   C     0.54457   0.30431   0.73785   0.00000  Uiso   1.00
C434   C     0.56640   0.29027   0.65170   0.00000  Uiso   1.00
C435   C     0.45170   0.43849   0.81548   0.00000  Uiso   1.00
C436   C     0.39361   0.42893   0.87812   0.00000  Uiso   1.00
C437   C     0.34638   0.47189   0.85613   0.00000  Uiso   1.00
H438   H     0.53749   0.53001   0.61163   0.00000  Uiso   1.00
H439   H     0.61789   0.58612   0.65544   0.00000  Uiso   1.00
H440   H     0.57424   0.44673   0.50814   0.00000  Uiso   1.00
H441   H     0.42330   0.57134   0.64840   0.00000  Uiso   1.00
H442   H     0.70238   0.62596   0.74005   0.00000  Uiso   1.00
H443   H     0.61033   0.33206   0.42946   0.00000  Uiso   1.00
H444   H     0.29204   0.59481   0.72521   0.00000  Uiso   1.00
H445   H     0.50161   0.35784   0.88935   0.00000  Uiso   1.00
H446   H     0.58004   0.40449   0.94841   0.00000  Uiso   1.00
H447   H     0.53639   0.26511   0.80110   0.00000  Uiso   1.00
H448   H     0.38545   0.38971   0.94136   0.00000  Uiso   1.00
H449   H     0.67166   0.47854   0.97783   0.00000  Uiso   1.00
H450   H     0.57961   0.18464   0.66723   0.00000  Uiso   1.00
H451   H     0.26132   0.44739   0.96299   0.00000  Uiso   1.00
O452   O     0.73928   0.58604   0.89277   0.00000  Uiso   1.00
O453   O     0.61850   0.20045   0.48528   0.00000  Uiso   1.00
O454   O     0.20091   0.54518   0.87330   0.00000  Uiso   1.00
N455   N     0.68438   0.58487   0.78792   0.00000  Uiso   1.00
N456   N     0.59833   0.31009   0.49753   0.00000  Uiso   1.00
N457   N     0.30075   0.55573   0.77402   0.00000  Uiso   1.00
N458   N     0.66785   0.50555   0.91586   0.00000  Uiso   1.00
N459   N     0.58180   0.23077   0.62547   0.00000  Uiso   1.00
N460   N     0.28422   0.47641   0.90197   0.00000  Uiso   1.00
C461   C     0.58632   0.76464   0.55166   0.00000  Uiso   1.00
C462   C     0.62547   0.81084   0.57266   0.00000  Uiso   1.00
C463   C     0.68655   0.79918   0.57427   0.00000  Uiso   1.00
C464   C     0.71423   0.84754   0.59498   0.00000  Uiso   1.00
C465   C     0.77992   0.91045   0.62484   0.00000  Uiso   1.00
C466   C     0.52945   0.75021   0.63465   0.00000  Uiso   1.00
C467   C     0.50980   0.68755   0.68837   0.00000  Uiso   1.00
C468   C     0.45664   0.68487   0.76125   0.00000  Uiso   1.00
C469   C     0.37324   0.65364   0.88731   0.00000  Uiso   1.00
C470   C     0.56328   0.80595   0.47091   0.00000  Uiso   1.00
C471   C     0.57206   0.79015   0.38696   0.00000  Uiso   1.00
C472   C     0.54737   0.83439   0.32199   0.00000  Uiso   1.00
C473   C     0.51649   0.88971   0.19381   0.00000  Uiso   1.00
C474   C     0.52684   0.87128   0.58557   0.00000  Uiso   1.00
C475   C     0.59316   0.86876   0.59108   0.00000  Uiso   1.00
C476   C     0.62075   0.91716   0.61179   0.00000  Uiso   1.00
C477   C     0.68187   0.90556   0.61343   0.00000  Uiso   1.00
C478   C     0.49714   0.80812   0.65307   0.00000  Uiso   1.00
C479   C     0.44400   0.80553   0.72589   0.00000  Uiso   1.00
C480   C     0.42428   0.74289   0.77971   0.00000  Uiso   1.00
C481   C     0.53098   0.86387   0.48932   0.00000  Uiso   1.00
C482   C     0.50626   0.90814   0.42448   0.00000  Uiso   1.00
C483   C     0.51500   0.89242   0.34044   0.00000  Uiso   1.00
H484   H     0.61146   0.71954   0.53732   0.00000  Uiso   1.00
H485   H     0.71153   0.75434   0.56002   0.00000  Uiso   1.00
H486   H     0.53480   0.64274   0.67409   0.00000  Uiso   1.00
H487   H     0.59706   0.74533   0.37273   0.00000  Uiso   1.00
H488   H     0.80823   0.81845   0.59335   0.00000  Uiso   1.00
H489   H     0.43557   0.58313   0.83385   0.00000  Uiso   1.00
H490   H     0.56684   0.79945   0.19836   0.00000  Uiso   1.00
H491   H     0.50169   0.91637   0.59991   0.00000  Uiso   1.00
H492   H     0.59574   0.96197   0.62604   0.00000  Uiso   1.00
H493   H     0.41901   0.85036   0.74012   0.00000  Uiso   1.00
H494   H     0.48127   0.95295   0.43875   0.00000  Uiso   1.00
H495   H     0.71425   0.98697   0.64694   0.00000  Uiso   1.00
H496   H     0.34159   0.75165   0.88744   0.00000  Uiso   1.00
H497   H     0.47286   0.96797   0.25196   0.00000  Uiso   1.00
O498   O     0.82508   0.92915   0.63624   0.00000  Uiso   1.00
O499   O     0.33616   0.62041   0.95176   0.00000  Uiso   1.00
O500   O     0.50839   0.90423   0.11801   0.00000  Uiso   1.00
N501   N     0.77321   0.85186   0.60236   0.00000  Uiso   1.00
N502   N     0.42480   0.63185   0.82722   0.00000  Uiso   1.00
N503   N     0.54751   0.83409   0.23310   0.00000  Uiso   1.00
N504   N     0.72263   0.94254   0.63119   0.00000  Uiso   1.00
N505   N     0.37423   0.72253   0.85606   0.00000  Uiso   1.00
N506   N     0.49694   0.92476   0.26194   0.00000  Uiso   1.00
C507   C     0.73695   0.48692   0.50403   0.00000  Uiso   1.00
C508   C     0.79190   0.51569   0.51774   0.00000  Uiso   1.00
C509   C     0.79416   0.53062   0.59829   0.00000  Uiso   1.00
C510   C     0.84865   0.55659   0.59689   0.00000  Uiso   1.00
C511   C     0.92630   0.59969   0.63020   0.00000  Uiso   1.00
C512   C     0.72164   0.53532   0.42089   0.00000  Uiso   1.00
C513   C     0.66481   0.56674   0.42001   0.00000  Uiso   1.00
C514   C     0.66016   0.60923   0.33707   0.00000  Uiso   1.00
C515   C     0.62871   0.68275   0.22001   0.00000  Uiso   1.00
C516   C     0.76089   0.42316   0.47358   0.00000  Uiso   1.00
C517   C     0.73706   0.36029   0.51699   0.00000  Uiso   1.00
C518   C     0.76544   0.30835   0.47841   0.00000  Uiso   1.00
C519   C     0.79494   0.20774   0.44316   0.00000  Uiso   1.00
C520   C     0.82973   0.50649   0.35829   0.00000  Uiso   1.00
C521   C     0.84229   0.52632   0.43858   0.00000  Uiso   1.00
C522   C     0.89680   0.55228   0.43705   0.00000  Uiso   1.00
C523   C     0.89914   0.56724   0.51759   0.00000  Uiso   1.00
C524   C     0.77203   0.54595   0.34173   0.00000  Uiso   1.00
C525   C     0.76746   0.58839   0.25877   0.00000  Uiso   1.00
C526   C     0.71064   0.61988   0.25777   0.00000  Uiso   1.00
C527   C     0.81128   0.43379   0.39442   0.00000  Uiso   1.00
C528   C     0.83971   0.38194   0.35576   0.00000  Uiso   1.00
C529   C     0.81593   0.31900   0.39911   0.00000  Uiso   1.00
H530   H     0.69772   0.47864   0.56565   0.00000  Uiso   1.00
H531   H     0.75514   0.52239   0.65953   0.00000  Uiso   1.00
H532   H     0.62582   0.55850   0.48127   0.00000  Uiso   1.00
H533   H     0.69806   0.35208   0.57825   0.00000  Uiso   1.00
H534   H     0.84103   0.57561   0.72870   0.00000  Uiso   1.00
H535   H     0.56834   0.65172   0.35283   0.00000  Uiso   1.00
H536   H     0.72066   0.21645   0.55731   0.00000  Uiso   1.00
H537   H     0.86896   0.51477   0.29666   0.00000  Uiso   1.00
H538   H     0.93579   0.56050   0.37579   0.00000  Uiso   1.00
H539   H     0.80647   0.59660   0.19753   0.00000  Uiso   1.00
H540   H     0.87870   0.39019   0.29450   0.00000  Uiso   1.00
H541   H     0.98765   0.60654   0.49840   0.00000  Uiso   1.00
H542   H     0.71496   0.68265   0.12253   0.00000  Uiso   1.00
H543   H     0.86728   0.24738   0.32701   0.00000  Uiso   1.00
O544   O     0.95520   0.62053   0.67044   0.00000  Uiso   1.00
O545   O     0.59744   0.72037   0.17731   0.00000  Uiso   1.00
O546   O     0.79729   0.14930   0.44559   0.00000  Uiso   1.00
N547   N     0.86637   0.57660   0.66364   0.00000  Uiso   1.00
N548   N     0.61142   0.64777   0.31223   0.00000  Uiso   1.00
N549   N     0.75382   0.24083   0.50339   0.00000  Uiso   1.00
N550   N     0.94527   0.59324   0.53972   0.00000  Uiso   1.00
N551   N     0.69032   0.66441   0.18831   0.00000  Uiso   1.00
N552   N     0.83272   0.25747   0.37947   0.00000  Uiso   1.00
