data_job_01713
_audit_creation_date              2018-12-19
_audit_creation_method            'Materials Studio'
_symmetry_space_group_name_H-M    'P1'
_symmetry_Int_Tables_number       1
_symmetry_cell_setting            triclinic
loop_
_symmetry_equiv_pos_as_xyz
  x,y,z
_cell_length_a                    10.0545
_cell_length_b                    12.6403
_cell_length_c                    9.8893
_cell_angle_alpha                 90.0000
_cell_angle_beta                  103.7193
_cell_angle_gamma                 90.0000
loop_
_atom_site_label
_atom_site_type_symbol
_atom_site_fract_x
_atom_site_fract_y
_atom_site_fract_z
_atom_site_U_iso_or_equiv
_atom_site_adp_type
_atom_site_occupancy
C1     C     0.19735   0.54028   0.15899   0.00000  Uiso   1.00
C2     C     0.16282   0.43163   0.20836   0.00000  Uiso   1.00
C3     C     0.05872   0.36563   0.13848   0.00000  Uiso   1.00
C4     C     0.04370   0.26942   0.20093   0.00000  Uiso   1.00
C5     C     0.97695   0.10516   0.25819   0.00000  Uiso   1.00
C6     C     0.19018   0.61718   0.27586   0.00000  Uiso   1.00
C7     C     0.10911   0.70721   0.26272   0.00000  Uiso   1.00
C8     C     0.11714   0.76720   0.38200   0.00000  Uiso   1.00
C9     C     0.09295   0.89106   0.54403   0.00000  Uiso   1.00
C10    C     0.34763   0.53535   0.15394   0.00000  Uiso   1.00
C11    C     0.39894   0.55660   0.03829   0.00000  Uiso   1.00
C12    C     0.53954   0.54772   0.05493   0.00000  Uiso   1.00
C13    C     0.75980   0.54452   0.02765   0.00000  Uiso   1.00
C14    C     0.35581   0.48676   0.39418   0.00000  Uiso   1.00
C15    C     0.24889   0.40256   0.33610   0.00000  Uiso   1.00
C16    C     0.23403   0.30642   0.39868   0.00000  Uiso   1.00
C17    C     0.12992   0.24029   0.32890   0.00000  Uiso   1.00
C18    C     0.27625   0.58812   0.40360   0.00000  Uiso   1.00
C19    C     0.28441   0.64799   0.52292   0.00000  Uiso   1.00
C20    C     0.20336   0.73808   0.50997   0.00000  Uiso   1.00
C21    C     0.43370   0.50628   0.28168   0.00000  Uiso   1.00
C22    C     0.57425   0.49738   0.29850   0.00000  Uiso   1.00
C23    C     0.62576   0.51860   0.18290   0.00000  Uiso   1.00
H24    H     0.13035   0.56292   0.05955   0.00000  Uiso   1.00
H25    H     0.99213   0.38816   0.03963   0.00000  Uiso   1.00
H26    H     0.04252   0.72969   0.16385   0.00000  Uiso   1.00
H27    H     0.33231   0.57909   0.93946   0.00000  Uiso   1.00
H28    H     0.87681   0.18162   0.07390   0.00000  Uiso   1.00
H29    H     0.98310   0.90176   0.33583   0.00000  Uiso   1.00
H30    H     0.59418   0.58421   0.86265   0.00000  Uiso   1.00
H31    H     0.42281   0.46413   0.49363   0.00000  Uiso   1.00
H32    H     0.30065   0.28394   0.49753   0.00000  Uiso   1.00
H33    H     0.35103   0.62547   0.62176   0.00000  Uiso   1.00
H34    H     0.64082   0.47488   0.39736   0.00000  Uiso   1.00
H35    H     0.12721   0.09703   0.44556   0.00000  Uiso   1.00
H36    H     0.23350   0.81718   0.70748   0.00000  Uiso   1.00
H37    H     0.84458   0.49962   0.23430   0.00000  Uiso   1.00
O38    O     0.91634   0.02259   0.25449   0.00000  Uiso   1.00
O39    O     0.05581   0.96740   0.59811   0.00000  Uiso   1.00
O40    O     0.85752   0.55077   0.97731   0.00000  Uiso   1.00
N41    N     0.95253   0.18643   0.16082   0.00000  Uiso   1.00
N42    N     0.05188   0.85971   0.40571   0.00000  Uiso   1.00
N43    N     0.62319   0.56285   0.96334   0.00000  Uiso   1.00
N44    N     0.08726   0.14091   0.36081   0.00000  Uiso   1.00
N45    N     0.18662   0.81419   0.60570   0.00000  Uiso   1.00
N46    N     0.75793   0.51733   0.16332   0.00000  Uiso   1.00
C47    C     0.80265   0.04028   0.84101   0.00000  Uiso   1.00
C48    C     0.83718   0.93163   0.79164   0.00000  Uiso   1.00
C49    C     0.94128   0.86563   0.86152   0.00000  Uiso   1.00
C50    C     0.95630   0.76942   0.79907   0.00000  Uiso   1.00
C51    C     0.02305   0.60516   0.74181   0.00000  Uiso   1.00
C52    C     0.80982   0.11718   0.72414   0.00000  Uiso   1.00
C53    C     0.89089   0.20721   0.73728   0.00000  Uiso   1.00
C54    C     0.88286   0.26720   0.61800   0.00000  Uiso   1.00
C55    C     0.90705   0.39106   0.45597   0.00000  Uiso   1.00
C56    C     0.65237   0.03535   0.84606   0.00000  Uiso   1.00
C57    C     0.60106   0.05660   0.96171   0.00000  Uiso   1.00
C58    C     0.46046   0.04772   0.94507   0.00000  Uiso   1.00
C59    C     0.24020   0.04452   0.97235   0.00000  Uiso   1.00
C60    C     0.64419   0.98676   0.60582   0.00000  Uiso   1.00
C61    C     0.75111   0.90256   0.66390   0.00000  Uiso   1.00
C62    C     0.76597   0.80642   0.60132   0.00000  Uiso   1.00
C63    C     0.87008   0.74029   0.67110   0.00000  Uiso   1.00
C64    C     0.72375   0.08812   0.59640   0.00000  Uiso   1.00
C65    C     0.71559   0.14799   0.47708   0.00000  Uiso   1.00
C66    C     0.79664   0.23808   0.49003   0.00000  Uiso   1.00
C67    C     0.56630   0.00628   0.71832   0.00000  Uiso   1.00
C68    C     0.42575   0.99738   0.70150   0.00000  Uiso   1.00
C69    C     0.37424   0.01860   0.81710   0.00000  Uiso   1.00
H70    H     0.86965   0.06292   0.94045   0.00000  Uiso   1.00
H71    H     0.00787   0.88816   0.96037   0.00000  Uiso   1.00
H72    H     0.95748   0.22969   0.83615   0.00000  Uiso   1.00
H73    H     0.66769   0.07909   0.06054   0.00000  Uiso   1.00
H74    H     0.12319   0.68162   0.92610   0.00000  Uiso   1.00
H75    H     0.01690   0.40176   0.66417   0.00000  Uiso   1.00
H76    H     0.40582   0.08421   0.13735   0.00000  Uiso   1.00
H77    H     0.57719   0.96413   0.50637   0.00000  Uiso   1.00
H78    H     0.69935   0.78394   0.50247   0.00000  Uiso   1.00
H79    H     0.64897   0.12547   0.37824   0.00000  Uiso   1.00
H80    H     0.35918   0.97488   0.60264   0.00000  Uiso   1.00
H81    H     0.87279   0.59703   0.55444   0.00000  Uiso   1.00
H82    H     0.76650   0.31718   0.29252   0.00000  Uiso   1.00
H83    H     0.15542   0.99962   0.76570   0.00000  Uiso   1.00
O84    O     0.08366   0.52259   0.74551   0.00000  Uiso   1.00
O85    O     0.94419   0.46740   0.40189   0.00000  Uiso   1.00
O86    O     0.14248   0.05077   0.02269   0.00000  Uiso   1.00
N87    N     0.04747   0.68643   0.83918   0.00000  Uiso   1.00
N88    N     0.94812   0.35971   0.59429   0.00000  Uiso   1.00
N89    N     0.37681   0.06285   0.03666   0.00000  Uiso   1.00
N90    N     0.91274   0.64091   0.63919   0.00000  Uiso   1.00
N91    N     0.81338   0.31419   0.39430   0.00000  Uiso   1.00
N92    N     0.24207   0.01733   0.83668   0.00000  Uiso   1.00
