data_job_04855
_audit_creation_date              2018-12-19
_audit_creation_method            'Materials Studio'
_symmetry_space_group_name_H-M    'P1'
_symmetry_Int_Tables_number       1
_symmetry_cell_setting            triclinic
loop_
_symmetry_equiv_pos_as_xyz
  x,y,z
_cell_length_a                    24.1084
_cell_length_b                    24.1084
_cell_length_c                    7.6894
_cell_angle_alpha                 90.0000
_cell_angle_beta                  90.0000
_cell_angle_gamma                 120.0000
loop_
_atom_site_label
_atom_site_type_symbol
_atom_site_fract_x
_atom_site_fract_y
_atom_site_fract_z
_atom_site_U_iso_or_equiv
_atom_site_adp_type
_atom_site_occupancy
C1     C     0.61040   0.88379   0.65637   0.00000  Uiso   1.00
C2     C     0.56857   0.88723   0.79988   0.00000  Uiso   1.00
C3     C     0.51631   0.89580   0.77535   0.00000  Uiso   1.00
C4     C     0.48431   0.89765   0.92339   0.00000  Uiso   1.00
C5     C     0.41639   0.90401   0.12091   0.00000  Uiso   1.00
C6     C     0.67879   0.93580   0.69792   0.00000  Uiso   1.00
C7     C     0.71921   0.98519   0.58764   0.00000  Uiso   1.00
C8     C     0.77999   0.02792   0.64985   0.00000  Uiso   1.00
C9     C     0.88321   0.10965   0.68902   0.00000  Uiso   1.00
C10    C     0.60858   0.82015   0.68138   0.00000  Uiso   1.00
C11    C     0.58998   0.77232   0.55718   0.00000  Uiso   1.00
C12    C     0.59166   0.71768   0.60545   0.00000  Uiso   1.00
C13    C     0.58587   0.61986   0.61894   0.00000  Uiso   1.00
C14    C     0.64650   0.87183   0.96292   0.00000  Uiso   1.00
C15    C     0.58818   0.88074   0.96639   0.00000  Uiso   1.00
C16    C     0.55624   0.88257   0.11452   0.00000  Uiso   1.00
C17    C     0.50394   0.89114   0.09020   0.00000  Uiso   1.00
C18    C     0.69840   0.92931   0.86442   0.00000  Uiso   1.00
C19    C     0.75914   0.97196   0.92681   0.00000  Uiso   1.00
C20    C     0.79963   0.02141   0.81666   0.00000  Uiso   1.00
C21    C     0.62819   0.81366   0.84789   0.00000  Uiso   1.00
C22    C     0.62991   0.75909   0.89636   0.00000  Uiso   1.00
C23    C     0.61130   0.71118   0.77226   0.00000  Uiso   1.00
H24    H     0.59515   0.88885   0.52673   0.00000  Uiso   1.00
H25    H     0.50116   0.90083   0.64646   0.00000  Uiso   1.00
H26    H     0.70402   0.99020   0.45879   0.00000  Uiso   1.00
H27    H     0.57481   0.77736   0.42834   0.00000  Uiso   1.00
H28    H     0.40562   0.91127   0.85264   0.00000  Uiso   1.00
H29    H     0.83338   0.09970   0.45689   0.00000  Uiso   1.00
H30    H     0.56091   0.65089   0.39268   0.00000  Uiso   1.00
H31    H     0.66176   0.86678   0.09256   0.00000  Uiso   1.00
H32    H     0.57143   0.87755   0.24335   0.00000  Uiso   1.00
H33    H     0.77429   0.96692   0.05567   0.00000  Uiso   1.00
H34    H     0.64508   0.75408   0.02522   0.00000  Uiso   1.00
H35    H     0.46265   0.89238   0.33710   0.00000  Uiso   1.00
H36    H     0.89041   0.08081   0.94134   0.00000  Uiso   1.00
H37    H     0.61794   0.63199   0.87714   0.00000  Uiso   1.00
O38    O     0.37352   0.90933   0.18386   0.00000  Uiso   1.00
O39    O     0.93473   0.15654   0.66463   0.00000  Uiso   1.00
O40    O     0.57725   0.56770   0.58039   0.00000  Uiso   1.00
N41    N     0.43143   0.90533   0.94597   0.00000  Uiso   1.00
N42    N     0.83136   0.08151   0.57597   0.00000  Uiso   1.00
N43    N     0.57663   0.66191   0.51592   0.00000  Uiso   1.00
N44    N     0.46212   0.89516   0.20665   0.00000  Uiso   1.00
N45    N     0.86205   0.07135   0.83665   0.00000  Uiso   1.00
N46    N     0.60732   0.65175   0.77660   0.00000  Uiso   1.00
C47    C     0.11621   0.72661   0.65637   0.00000  Uiso   1.00
C48    C     0.11277   0.68134   0.79988   0.00000  Uiso   1.00
C49    C     0.10420   0.62051   0.77535   0.00000  Uiso   1.00
C50    C     0.10235   0.58666   0.92339   0.00000  Uiso   1.00
C51    C     0.09599   0.51238   0.12091   0.00000  Uiso   1.00
C52    C     0.06420   0.74300   0.69792   0.00000  Uiso   1.00
C53    C     0.01481   0.73402   0.58764   0.00000  Uiso   1.00
C54    C     0.97208   0.75208   0.64985   0.00000  Uiso   1.00
C55    C     0.89035   0.77356   0.68902   0.00000  Uiso   1.00
C56    C     0.17985   0.78843   0.68138   0.00000  Uiso   1.00
C57    C     0.22768   0.81766   0.55718   0.00000  Uiso   1.00
C58    C     0.28232   0.87398   0.60545   0.00000  Uiso   1.00
C59    C     0.38014   0.96601   0.61894   0.00000  Uiso   1.00
C60    C     0.12817   0.77466   0.96292   0.00000  Uiso   1.00
C61    C     0.11926   0.70744   0.96639   0.00000  Uiso   1.00
C62    C     0.11743   0.67367   0.11452   0.00000  Uiso   1.00
C63    C     0.10886   0.61281   0.09020   0.00000  Uiso   1.00
C64    C     0.07069   0.76909   0.86442   0.00000  Uiso   1.00
C65    C     0.02804   0.78718   0.92681   0.00000  Uiso   1.00
C66    C     0.97859   0.77822   0.81666   0.00000  Uiso   1.00
C67    C     0.18634   0.81453   0.84789   0.00000  Uiso   1.00
C68    C     0.24091   0.87082   0.89636   0.00000  Uiso   1.00
C69    C     0.28882   0.90013   0.77226   0.00000  Uiso   1.00
H70    H     0.11115   0.70630   0.52673   0.00000  Uiso   1.00
H71    H     0.09917   0.60033   0.64646   0.00000  Uiso   1.00
H72    H     0.00980   0.71382   0.45879   0.00000  Uiso   1.00
H73    H     0.22264   0.79745   0.42834   0.00000  Uiso   1.00
H74    H     0.08873   0.49435   0.85264   0.00000  Uiso   1.00
H75    H     0.90030   0.73367   0.45689   0.00000  Uiso   1.00
H76    H     0.34911   0.91002   0.39268   0.00000  Uiso   1.00
H77    H     0.13322   0.79498   0.09256   0.00000  Uiso   1.00
H78    H     0.12245   0.69388   0.24335   0.00000  Uiso   1.00
H79    H     0.03308   0.80737   0.05567   0.00000  Uiso   1.00
H80    H     0.24592   0.89100   0.02522   0.00000  Uiso   1.00
H81    H     0.10762   0.57028   0.33710   0.00000  Uiso   1.00
H82    H     0.91919   0.80960   0.94134   0.00000  Uiso   1.00
H83    H     0.36801   0.98595   0.87714   0.00000  Uiso   1.00
O84    O     0.09067   0.46420   0.18386   0.00000  Uiso   1.00
O85    O     0.84346   0.77819   0.66463   0.00000  Uiso   1.00
O86    O     0.43230   0.00955   0.58039   0.00000  Uiso   1.00
N87    N     0.09467   0.52610   0.94597   0.00000  Uiso   1.00
N88    N     0.91849   0.74984   0.57597   0.00000  Uiso   1.00
N89    N     0.33809   0.91472   0.51592   0.00000  Uiso   1.00
N90    N     0.10484   0.56695   0.20665   0.00000  Uiso   1.00
N91    N     0.92865   0.79070   0.83665   0.00000  Uiso   1.00
N92    N     0.34825   0.95558   0.77660   0.00000  Uiso   1.00
C93    C     0.27339   0.38960   0.65637   0.00000  Uiso   1.00
C94    C     0.31866   0.43143   0.79988   0.00000  Uiso   1.00
C95    C     0.37949   0.48369   0.77535   0.00000  Uiso   1.00
C96    C     0.41334   0.51569   0.92339   0.00000  Uiso   1.00
C97    C     0.48762   0.58361   0.12091   0.00000  Uiso   1.00
C98    C     0.25700   0.32121   0.69792   0.00000  Uiso   1.00
C99    C     0.26598   0.28079   0.58764   0.00000  Uiso   1.00
C100   C     0.24792   0.22001   0.64985   0.00000  Uiso   1.00
C101   C     0.22644   0.11679   0.68902   0.00000  Uiso   1.00
C102   C     0.21157   0.39142   0.68138   0.00000  Uiso   1.00
C103   C     0.18234   0.41002   0.55718   0.00000  Uiso   1.00
C104   C     0.12602   0.40834   0.60545   0.00000  Uiso   1.00
C105   C     0.03399   0.41413   0.61894   0.00000  Uiso   1.00
C106   C     0.22534   0.35350   0.96292   0.00000  Uiso   1.00
C107   C     0.29256   0.41182   0.96639   0.00000  Uiso   1.00
C108   C     0.32633   0.44376   0.11452   0.00000  Uiso   1.00
C109   C     0.38719   0.49606   0.09020   0.00000  Uiso   1.00
C110   C     0.23091   0.30160   0.86442   0.00000  Uiso   1.00
C111   C     0.21282   0.24086   0.92681   0.00000  Uiso   1.00
C112   C     0.22178   0.20037   0.81666   0.00000  Uiso   1.00
C113   C     0.18547   0.37181   0.84789   0.00000  Uiso   1.00
C114   C     0.12918   0.37009   0.89636   0.00000  Uiso   1.00
C115   C     0.09987   0.38870   0.77226   0.00000  Uiso   1.00
H116   H     0.29370   0.40485   0.52673   0.00000  Uiso   1.00
H117   H     0.39967   0.49884   0.64646   0.00000  Uiso   1.00
H118   H     0.28618   0.29598   0.45879   0.00000  Uiso   1.00
H119   H     0.20255   0.42519   0.42834   0.00000  Uiso   1.00
H120   H     0.50565   0.59438   0.85264   0.00000  Uiso   1.00
H121   H     0.26633   0.16662   0.45689   0.00000  Uiso   1.00
H122   H     0.08998   0.43909   0.39268   0.00000  Uiso   1.00
H123   H     0.20502   0.33824   0.09256   0.00000  Uiso   1.00
H124   H     0.30612   0.42857   0.24335   0.00000  Uiso   1.00
H125   H     0.19263   0.22571   0.05567   0.00000  Uiso   1.00
H126   H     0.10900   0.35492   0.02522   0.00000  Uiso   1.00
H127   H     0.42972   0.53735   0.33710   0.00000  Uiso   1.00
H128   H     0.19040   0.10959   0.94134   0.00000  Uiso   1.00
H129   H     0.01405   0.38206   0.87714   0.00000  Uiso   1.00
O130   O     0.53580   0.62648   0.18386   0.00000  Uiso   1.00
O131   O     0.22181   0.06527   0.66463   0.00000  Uiso   1.00
O132   O     0.99045   0.42275   0.58039   0.00000  Uiso   1.00
N133   N     0.47390   0.56857   0.94597   0.00000  Uiso   1.00
N134   N     0.25016   0.16864   0.57597   0.00000  Uiso   1.00
N135   N     0.08528   0.42337   0.51592   0.00000  Uiso   1.00
N136   N     0.43305   0.53788   0.20665   0.00000  Uiso   1.00
N137   N     0.20930   0.13795   0.83665   0.00000  Uiso   1.00
N138   N     0.04442   0.39268   0.77660   0.00000  Uiso   1.00
C139   C     0.38960   0.11621   0.34363   0.00000  Uiso   1.00
C140   C     0.43143   0.11277   0.20012   0.00000  Uiso   1.00
C141   C     0.48369   0.10420   0.22465   0.00000  Uiso   1.00
C142   C     0.51569   0.10235   0.07661   0.00000  Uiso   1.00
C143   C     0.58361   0.09599   0.87909   0.00000  Uiso   1.00
C144   C     0.32121   0.06420   0.30208   0.00000  Uiso   1.00
C145   C     0.28079   0.01481   0.41236   0.00000  Uiso   1.00
C146   C     0.22001   0.97208   0.35015   0.00000  Uiso   1.00
C147   C     0.11679   0.89035   0.31098   0.00000  Uiso   1.00
C148   C     0.39142   0.17985   0.31862   0.00000  Uiso   1.00
C149   C     0.41002   0.22768   0.44282   0.00000  Uiso   1.00
C150   C     0.40834   0.28232   0.39455   0.00000  Uiso   1.00
C151   C     0.41413   0.38014   0.38106   0.00000  Uiso   1.00
C152   C     0.35350   0.12817   0.03708   0.00000  Uiso   1.00
C153   C     0.41182   0.11926   0.03361   0.00000  Uiso   1.00
C154   C     0.44376   0.11743   0.88548   0.00000  Uiso   1.00
C155   C     0.49606   0.10886   0.90980   0.00000  Uiso   1.00
C156   C     0.30160   0.07069   0.13558   0.00000  Uiso   1.00
C157   C     0.24086   0.02804   0.07319   0.00000  Uiso   1.00
C158   C     0.20037   0.97859   0.18334   0.00000  Uiso   1.00
C159   C     0.37181   0.18634   0.15211   0.00000  Uiso   1.00
C160   C     0.37009   0.24091   0.10364   0.00000  Uiso   1.00
C161   C     0.38870   0.28882   0.22774   0.00000  Uiso   1.00
H162   H     0.40485   0.11115   0.47327   0.00000  Uiso   1.00
H163   H     0.49884   0.09917   0.35354   0.00000  Uiso   1.00
H164   H     0.29598   0.00980   0.54121   0.00000  Uiso   1.00
H165   H     0.42519   0.22264   0.57166   0.00000  Uiso   1.00
H166   H     0.59438   0.08873   0.14736   0.00000  Uiso   1.00
H167   H     0.16662   0.90030   0.54311   0.00000  Uiso   1.00
H168   H     0.43909   0.34911   0.60732   0.00000  Uiso   1.00
H169   H     0.33824   0.13322   0.90744   0.00000  Uiso   1.00
H170   H     0.42857   0.12245   0.75665   0.00000  Uiso   1.00
H171   H     0.22571   0.03308   0.94433   0.00000  Uiso   1.00
H172   H     0.35492   0.24592   0.97478   0.00000  Uiso   1.00
H173   H     0.53735   0.10762   0.66290   0.00000  Uiso   1.00
H174   H     0.10959   0.91919   0.05866   0.00000  Uiso   1.00
H175   H     0.38206   0.36801   0.12286   0.00000  Uiso   1.00
O176   O     0.62648   0.09067   0.81614   0.00000  Uiso   1.00
O177   O     0.06527   0.84346   0.33537   0.00000  Uiso   1.00
O178   O     0.42275   0.43230   0.41961   0.00000  Uiso   1.00
N179   N     0.56857   0.09467   0.05403   0.00000  Uiso   1.00
N180   N     0.16864   0.91849   0.42403   0.00000  Uiso   1.00
N181   N     0.42337   0.33809   0.48408   0.00000  Uiso   1.00
N182   N     0.53788   0.10484   0.79335   0.00000  Uiso   1.00
N183   N     0.13795   0.92865   0.16335   0.00000  Uiso   1.00
N184   N     0.39268   0.34825   0.22340   0.00000  Uiso   1.00
C185   C     0.88379   0.27339   0.34363   0.00000  Uiso   1.00
C186   C     0.88723   0.31866   0.20012   0.00000  Uiso   1.00
C187   C     0.89580   0.37949   0.22465   0.00000  Uiso   1.00
C188   C     0.89765   0.41334   0.07661   0.00000  Uiso   1.00
C189   C     0.90401   0.48762   0.87909   0.00000  Uiso   1.00
C190   C     0.93580   0.25700   0.30208   0.00000  Uiso   1.00
C191   C     0.98519   0.26598   0.41236   0.00000  Uiso   1.00
C192   C     0.02792   0.24792   0.35015   0.00000  Uiso   1.00
C193   C     0.10965   0.22644   0.31098   0.00000  Uiso   1.00
C194   C     0.82015   0.21157   0.31862   0.00000  Uiso   1.00
C195   C     0.77232   0.18234   0.44282   0.00000  Uiso   1.00
C196   C     0.71768   0.12602   0.39455   0.00000  Uiso   1.00
C197   C     0.61986   0.03399   0.38106   0.00000  Uiso   1.00
C198   C     0.87183   0.22534   0.03708   0.00000  Uiso   1.00
C199   C     0.88074   0.29256   0.03361   0.00000  Uiso   1.00
C200   C     0.88257   0.32633   0.88548   0.00000  Uiso   1.00
C201   C     0.89114   0.38719   0.90980   0.00000  Uiso   1.00
C202   C     0.92931   0.23091   0.13558   0.00000  Uiso   1.00
C203   C     0.97196   0.21282   0.07319   0.00000  Uiso   1.00
C204   C     0.02141   0.22178   0.18334   0.00000  Uiso   1.00
C205   C     0.81366   0.18547   0.15211   0.00000  Uiso   1.00
C206   C     0.75909   0.12918   0.10364   0.00000  Uiso   1.00
C207   C     0.71118   0.09987   0.22774   0.00000  Uiso   1.00
H208   H     0.88885   0.29370   0.47327   0.00000  Uiso   1.00
H209   H     0.90083   0.39967   0.35354   0.00000  Uiso   1.00
H210   H     0.99020   0.28618   0.54121   0.00000  Uiso   1.00
H211   H     0.77736   0.20255   0.57166   0.00000  Uiso   1.00
H212   H     0.91127   0.50565   0.14736   0.00000  Uiso   1.00
H213   H     0.09970   0.26633   0.54311   0.00000  Uiso   1.00
H214   H     0.65089   0.08998   0.60732   0.00000  Uiso   1.00
H215   H     0.86678   0.20502   0.90744   0.00000  Uiso   1.00
H216   H     0.87755   0.30612   0.75665   0.00000  Uiso   1.00
H217   H     0.96692   0.19263   0.94433   0.00000  Uiso   1.00
H218   H     0.75408   0.10900   0.97478   0.00000  Uiso   1.00
H219   H     0.89238   0.42972   0.66290   0.00000  Uiso   1.00
H220   H     0.08081   0.19040   0.05866   0.00000  Uiso   1.00
H221   H     0.63199   0.01405   0.12286   0.00000  Uiso   1.00
O222   O     0.90933   0.53580   0.81614   0.00000  Uiso   1.00
O223   O     0.15654   0.22181   0.33537   0.00000  Uiso   1.00
O224   O     0.56770   0.99045   0.41961   0.00000  Uiso   1.00
N225   N     0.90533   0.47390   0.05403   0.00000  Uiso   1.00
N226   N     0.08151   0.25016   0.42403   0.00000  Uiso   1.00
N227   N     0.66191   0.08528   0.48408   0.00000  Uiso   1.00
N228   N     0.89516   0.43305   0.79335   0.00000  Uiso   1.00
N229   N     0.07135   0.20930   0.16335   0.00000  Uiso   1.00
N230   N     0.65175   0.04442   0.22340   0.00000  Uiso   1.00
C231   C     0.72661   0.61040   0.34363   0.00000  Uiso   1.00
C232   C     0.68134   0.56857   0.20012   0.00000  Uiso   1.00
C233   C     0.62051   0.51631   0.22465   0.00000  Uiso   1.00
C234   C     0.58666   0.48431   0.07661   0.00000  Uiso   1.00
C235   C     0.51238   0.41639   0.87909   0.00000  Uiso   1.00
C236   C     0.74300   0.67879   0.30208   0.00000  Uiso   1.00
C237   C     0.73402   0.71921   0.41236   0.00000  Uiso   1.00
C238   C     0.75208   0.77999   0.35015   0.00000  Uiso   1.00
C239   C     0.77356   0.88321   0.31098   0.00000  Uiso   1.00
C240   C     0.78843   0.60858   0.31862   0.00000  Uiso   1.00
C241   C     0.81766   0.58998   0.44282   0.00000  Uiso   1.00
C242   C     0.87398   0.59166   0.39455   0.00000  Uiso   1.00
C243   C     0.96601   0.58587   0.38106   0.00000  Uiso   1.00
C244   C     0.77466   0.64650   0.03708   0.00000  Uiso   1.00
C245   C     0.70744   0.58818   0.03361   0.00000  Uiso   1.00
C246   C     0.67367   0.55624   0.88548   0.00000  Uiso   1.00
C247   C     0.61281   0.50394   0.90980   0.00000  Uiso   1.00
C248   C     0.76909   0.69840   0.13558   0.00000  Uiso   1.00
C249   C     0.78718   0.75914   0.07319   0.00000  Uiso   1.00
C250   C     0.77822   0.79963   0.18334   0.00000  Uiso   1.00
C251   C     0.81453   0.62819   0.15211   0.00000  Uiso   1.00
C252   C     0.87082   0.62991   0.10364   0.00000  Uiso   1.00
C253   C     0.90013   0.61130   0.22774   0.00000  Uiso   1.00
H254   H     0.70630   0.59515   0.47327   0.00000  Uiso   1.00
H255   H     0.60033   0.50116   0.35354   0.00000  Uiso   1.00
H256   H     0.71382   0.70402   0.54121   0.00000  Uiso   1.00
H257   H     0.79745   0.57481   0.57166   0.00000  Uiso   1.00
H258   H     0.49435   0.40562   0.14736   0.00000  Uiso   1.00
H259   H     0.73367   0.83338   0.54311   0.00000  Uiso   1.00
H260   H     0.91002   0.56091   0.60732   0.00000  Uiso   1.00
H261   H     0.79498   0.66176   0.90744   0.00000  Uiso   1.00
H262   H     0.69388   0.57143   0.75665   0.00000  Uiso   1.00
H263   H     0.80737   0.77429   0.94433   0.00000  Uiso   1.00
H264   H     0.89100   0.64508   0.97478   0.00000  Uiso   1.00
H265   H     0.57028   0.46265   0.66290   0.00000  Uiso   1.00
H266   H     0.80960   0.89041   0.05866   0.00000  Uiso   1.00
H267   H     0.98595   0.61794   0.12286   0.00000  Uiso   1.00
O268   O     0.46420   0.37352   0.81614   0.00000  Uiso   1.00
O269   O     0.77819   0.93473   0.33537   0.00000  Uiso   1.00
O270   O     0.00955   0.57725   0.41961   0.00000  Uiso   1.00
N271   N     0.52610   0.43143   0.05403   0.00000  Uiso   1.00
N272   N     0.74984   0.83136   0.42403   0.00000  Uiso   1.00
N273   N     0.91472   0.57663   0.48408   0.00000  Uiso   1.00
N274   N     0.56695   0.46212   0.79335   0.00000  Uiso   1.00
N275   N     0.79070   0.86205   0.16335   0.00000  Uiso   1.00
N276   N     0.95558   0.60732   0.22340   0.00000  Uiso   1.00
