data_job_04553
_audit_creation_date              2018-12-19
_audit_creation_method            'Materials Studio'
_symmetry_space_group_name_H-M    'P1'
_symmetry_Int_Tables_number       1
_symmetry_cell_setting            triclinic
loop_
_symmetry_equiv_pos_as_xyz
  x,y,z
_cell_length_a                    16.3674
_cell_length_b                    18.9091
_cell_length_c                    16.5568
_cell_angle_alpha                 90.0000
_cell_angle_beta                  90.0000
_cell_angle_gamma                 90.0000
loop_
_atom_site_label
_atom_site_type_symbol
_atom_site_fract_x
_atom_site_fract_y
_atom_site_fract_z
_atom_site_U_iso_or_equiv
_atom_site_adp_type
_atom_site_occupancy
C1     C     0.26254   0.42909   0.78168   0.00000  Uiso   1.00
C2     C     0.22193   0.38378   0.84644   0.00000  Uiso   1.00
C3     C     0.25271   0.32113   0.87776   0.00000  Uiso   1.00
C4     C     0.20635   0.28758   0.93660   0.00000  Uiso   1.00
C5     C     0.15460   0.21293   0.03309   0.00000  Uiso   1.00
C6     C     0.20010   0.43631   0.71383   0.00000  Uiso   1.00
C7     C     0.21253   0.41784   0.63364   0.00000  Uiso   1.00
C8     C     0.14778   0.42852   0.58084   0.00000  Uiso   1.00
C9     C     0.06216   0.43546   0.47144   0.00000  Uiso   1.00
C10    C     0.27164   0.50269   0.81823   0.00000  Uiso   1.00
C11    C     0.34423   0.54004   0.82581   0.00000  Uiso   1.00
C12    C     0.33972   0.60662   0.86091   0.00000  Uiso   1.00
C13    C     0.36519   0.71663   0.91361   0.00000  Uiso   1.00
C14    C     0.12546   0.48091   0.83051   0.00000  Uiso   1.00
C15    C     0.14747   0.41193   0.87296   0.00000  Uiso   1.00
C16    C     0.10105   0.37847   0.93178   0.00000  Uiso   1.00
C17    C     0.13176   0.31578   0.96317   0.00000  Uiso   1.00
C18    C     0.12564   0.46446   0.74034   0.00000  Uiso   1.00
C19    C     0.06086   0.47517   0.68766   0.00000  Uiso   1.00
C20    C     0.07319   0.45671   0.60741   0.00000  Uiso   1.00
C21    C     0.19719   0.53084   0.84476   0.00000  Uiso   1.00
C22    C     0.19257   0.59737   0.87984   0.00000  Uiso   1.00
C23    C     0.26513   0.63482   0.88747   0.00000  Uiso   1.00
H24    H     0.32050   0.40718   0.76103   0.00000  Uiso   1.00
H25    H     0.31033   0.29936   0.85721   0.00000  Uiso   1.00
H26    H     0.27015   0.39606   0.61313   0.00000  Uiso   1.00
H27    H     0.40184   0.51824   0.80528   0.00000  Uiso   1.00
H28    H     0.26621   0.19223   0.97552   0.00000  Uiso   1.00
H29    H     0.18150   0.39615   0.46086   0.00000  Uiso   1.00
H30    H     0.45918   0.65379   0.86604   0.00000  Uiso   1.00
H31    H     0.06749   0.50283   0.85115   0.00000  Uiso   1.00
H32    H     0.04343   0.40026   0.95229   0.00000  Uiso   1.00
H33    H     0.00325   0.49696   0.70820   0.00000  Uiso   1.00
H34    H     0.13494   0.61914   0.90035   0.00000  Uiso   1.00
H35    H     0.04958   0.27412   0.05268   0.00000  Uiso   1.00
H36    H     0.96487   0.47804   0.53801   0.00000  Uiso   1.00
H37    H     0.24255   0.73568   0.94320   0.00000  Uiso   1.00
O38    O     0.14662   0.16397   0.07898   0.00000  Uiso   1.00
O39    O     0.03550   0.43151   0.40376   0.00000  Uiso   1.00
O40    O     0.39980   0.76953   0.93536   0.00000  Uiso   1.00
N41    N     0.21853   0.22559   0.97981   0.00000  Uiso   1.00
N42    N     0.13933   0.41623   0.49863   0.00000  Uiso   1.00
N43    N     0.39893   0.65711   0.87743   0.00000  Uiso   1.00
N44    N     0.10197   0.26965   0.02133   0.00000  Uiso   1.00
N45    N     0.02277   0.46029   0.54016   0.00000  Uiso   1.00
N46    N     0.28237   0.70117   0.91895   0.00000  Uiso   1.00
C47    C     0.74480   0.14597   0.25464   0.00000  Uiso   1.00
C48    C     0.78245   0.09497   0.19378   0.00000  Uiso   1.00
C49    C     0.74730   0.03253   0.16671   0.00000  Uiso   1.00
C50    C     0.79152   0.99325   0.11096   0.00000  Uiso   1.00
C51    C     0.83834   0.91062   0.02068   0.00000  Uiso   1.00
C52    C     0.80713   0.15352   0.32256   0.00000  Uiso   1.00
C53    C     0.79273   0.14031   0.40378   0.00000  Uiso   1.00
C54    C     0.85772   0.15033   0.45644   0.00000  Uiso   1.00
C55    C     0.94284   0.15865   0.56611   0.00000  Uiso   1.00
C56    C     0.74148   0.21772   0.21273   0.00000  Uiso   1.00
C57    C     0.67189   0.25851   0.20162   0.00000  Uiso   1.00
C58    C     0.68162   0.32260   0.16183   0.00000  Uiso   1.00
C59    C     0.66481   0.43061   0.10097   0.00000  Uiso   1.00
C60    C     0.88583   0.18726   0.20376   0.00000  Uiso   1.00
C61    C     0.85905   0.11740   0.16614   0.00000  Uiso   1.00
C62    C     0.90334   0.07821   0.11041   0.00000  Uiso   1.00
C63    C     0.86826   0.01572   0.08326   0.00000  Uiso   1.00
C64    C     0.88373   0.17594   0.29492   0.00000  Uiso   1.00
C65    C     0.94876   0.18599   0.34748   0.00000  Uiso   1.00
C66    C     0.93446   0.17279   0.42875   0.00000  Uiso   1.00
C67    C     0.81808   0.24015   0.18509   0.00000  Uiso   1.00
C68    C     0.82792   0.30419   0.14531   0.00000  Uiso   1.00
C69    C     0.75836   0.34506   0.13414   0.00000  Uiso   1.00
H70    H     0.68517   0.12852   0.27617   0.00000  Uiso   1.00
H71    H     0.68802   0.01519   0.18812   0.00000  Uiso   1.00
H72    H     0.73344   0.12296   0.42515   0.00000  Uiso   1.00
H73    H     0.61262   0.24114   0.22302   0.00000  Uiso   1.00
H74    H     0.72499   0.89942   0.07834   0.00000  Uiso   1.00
H75    H     0.82074   0.12669   0.57813   0.00000  Uiso   1.00
H76    H     0.56597   0.37589   0.15190   0.00000  Uiso   1.00
H77    H     0.94547   0.20473   0.18224   0.00000  Uiso   1.00
H78    H     0.96261   0.09558   0.08903   0.00000  Uiso   1.00
H79    H     0.00803   0.20335   0.32606   0.00000  Uiso   1.00
H80    H     0.88721   0.32153   0.12393   0.00000  Uiso   1.00
H81    H     0.94786   0.96466   0.99791   0.00000  Uiso   1.00
H82    H     0.04361   0.19193   0.49771   0.00000  Uiso   1.00
H83    H     0.78884   0.44114   0.07147   0.00000  Uiso   1.00
O84    O     0.84301   0.85885   0.97853   0.00000  Uiso   1.00
O85    O     0.96863   0.15703   0.63424   0.00000  Uiso   1.00
O86    O     0.63438   0.48398   0.07503   0.00000  Uiso   1.00
N87    N     0.77508   0.92976   0.07219   0.00000  Uiso   1.00
N88    N     0.86461   0.14223   0.53947   0.00000  Uiso   1.00
N89    N     0.62642   0.37523   0.14099   0.00000  Uiso   1.00
N90    N     0.89500   0.96487   0.02891   0.00000  Uiso   1.00
N91    N     0.98453   0.17734   0.49619   0.00000  Uiso   1.00
N92    N     0.74635   0.41034   0.09771   0.00000  Uiso   1.00
C93    C     0.73746   0.57091   0.28168   0.00000  Uiso   1.00
C94    C     0.77807   0.61622   0.34644   0.00000  Uiso   1.00
C95    C     0.74729   0.67887   0.37776   0.00000  Uiso   1.00
C96    C     0.79365   0.71242   0.43660   0.00000  Uiso   1.00
C97    C     0.84540   0.78707   0.53309   0.00000  Uiso   1.00
C98    C     0.79990   0.56369   0.21383   0.00000  Uiso   1.00
C99    C     0.78747   0.58216   0.13364   0.00000  Uiso   1.00
C100   C     0.85222   0.57148   0.08084   0.00000  Uiso   1.00
C101   C     0.93784   0.56454   0.97144   0.00000  Uiso   1.00
C102   C     0.72836   0.49731   0.31823   0.00000  Uiso   1.00
C103   C     0.65577   0.45996   0.32581   0.00000  Uiso   1.00
C104   C     0.66028   0.39338   0.36091   0.00000  Uiso   1.00
C105   C     0.63481   0.28337   0.41361   0.00000  Uiso   1.00
C106   C     0.87454   0.51909   0.33051   0.00000  Uiso   1.00
C107   C     0.85253   0.58807   0.37296   0.00000  Uiso   1.00
C108   C     0.89895   0.62153   0.43178   0.00000  Uiso   1.00
C109   C     0.86824   0.68422   0.46317   0.00000  Uiso   1.00
C110   C     0.87436   0.53554   0.24034   0.00000  Uiso   1.00
C111   C     0.93914   0.52483   0.18766   0.00000  Uiso   1.00
C112   C     0.92681   0.54329   0.10741   0.00000  Uiso   1.00
C113   C     0.80281   0.46916   0.34476   0.00000  Uiso   1.00
C114   C     0.80743   0.40263   0.37984   0.00000  Uiso   1.00
C115   C     0.73487   0.36518   0.38747   0.00000  Uiso   1.00
H116   H     0.67950   0.59282   0.26103   0.00000  Uiso   1.00
H117   H     0.68967   0.70064   0.35721   0.00000  Uiso   1.00
H118   H     0.72985   0.60394   0.11313   0.00000  Uiso   1.00
H119   H     0.59816   0.48176   0.30528   0.00000  Uiso   1.00
H120   H     0.73379   0.80777   0.47552   0.00000  Uiso   1.00
H121   H     0.81850   0.60385   0.96086   0.00000  Uiso   1.00
H122   H     0.54082   0.34621   0.36604   0.00000  Uiso   1.00
H123   H     0.93251   0.49717   0.35115   0.00000  Uiso   1.00
H124   H     0.95657   0.59974   0.45229   0.00000  Uiso   1.00
H125   H     0.99675   0.50304   0.20820   0.00000  Uiso   1.00
H126   H     0.86506   0.38086   0.40035   0.00000  Uiso   1.00
H127   H     0.95042   0.72588   0.55268   0.00000  Uiso   1.00
H128   H     0.03513   0.52196   0.03801   0.00000  Uiso   1.00
H129   H     0.75745   0.26432   0.44320   0.00000  Uiso   1.00
O130   O     0.85338   0.83603   0.57898   0.00000  Uiso   1.00
O131   O     0.96450   0.56849   0.90376   0.00000  Uiso   1.00
O132   O     0.60020   0.23047   0.43536   0.00000  Uiso   1.00
N133   N     0.78147   0.77441   0.47981   0.00000  Uiso   1.00
N134   N     0.86067   0.58377   0.99863   0.00000  Uiso   1.00
N135   N     0.60107   0.34289   0.37743   0.00000  Uiso   1.00
N136   N     0.89803   0.73035   0.52133   0.00000  Uiso   1.00
N137   N     0.97723   0.53971   0.04016   0.00000  Uiso   1.00
N138   N     0.71763   0.29883   0.41895   0.00000  Uiso   1.00
C139   C     0.25520   0.85403   0.75464   0.00000  Uiso   1.00
C140   C     0.21755   0.90503   0.69378   0.00000  Uiso   1.00
C141   C     0.25270   0.96747   0.66671   0.00000  Uiso   1.00
C142   C     0.20848   0.00675   0.61096   0.00000  Uiso   1.00
C143   C     0.16166   0.08938   0.52068   0.00000  Uiso   1.00
C144   C     0.19287   0.84648   0.82256   0.00000  Uiso   1.00
C145   C     0.20727   0.85969   0.90378   0.00000  Uiso   1.00
C146   C     0.14228   0.84967   0.95644   0.00000  Uiso   1.00
C147   C     0.05716   0.84135   0.06611   0.00000  Uiso   1.00
C148   C     0.25852   0.78228   0.71273   0.00000  Uiso   1.00
C149   C     0.32811   0.74149   0.70162   0.00000  Uiso   1.00
C150   C     0.31838   0.67740   0.66183   0.00000  Uiso   1.00
C151   C     0.33519   0.56939   0.60097   0.00000  Uiso   1.00
C152   C     0.11417   0.81274   0.70376   0.00000  Uiso   1.00
C153   C     0.14095   0.88260   0.66614   0.00000  Uiso   1.00
C154   C     0.09666   0.92179   0.61041   0.00000  Uiso   1.00
C155   C     0.13174   0.98428   0.58326   0.00000  Uiso   1.00
C156   C     0.11627   0.82406   0.79492   0.00000  Uiso   1.00
C157   C     0.05124   0.81401   0.84748   0.00000  Uiso   1.00
C158   C     0.06554   0.82721   0.92875   0.00000  Uiso   1.00
C159   C     0.18192   0.75985   0.68509   0.00000  Uiso   1.00
C160   C     0.17208   0.69581   0.64531   0.00000  Uiso   1.00
C161   C     0.24164   0.65494   0.63414   0.00000  Uiso   1.00
H162   H     0.31483   0.87148   0.77617   0.00000  Uiso   1.00
H163   H     0.31198   0.98481   0.68812   0.00000  Uiso   1.00
H164   H     0.26656   0.87704   0.92515   0.00000  Uiso   1.00
H165   H     0.38738   0.75886   0.72302   0.00000  Uiso   1.00
H166   H     0.27501   0.10058   0.57834   0.00000  Uiso   1.00
H167   H     0.17926   0.87331   0.07813   0.00000  Uiso   1.00
H168   H     0.43403   0.62411   0.65190   0.00000  Uiso   1.00
H169   H     0.05453   0.79527   0.68224   0.00000  Uiso   1.00
H170   H     0.03739   0.90442   0.58903   0.00000  Uiso   1.00
H171   H     0.99197   0.79665   0.82606   0.00000  Uiso   1.00
H172   H     0.11279   0.67847   0.62393   0.00000  Uiso   1.00
H173   H     0.05214   0.03534   0.49791   0.00000  Uiso   1.00
H174   H     0.95639   0.80807   0.99771   0.00000  Uiso   1.00
H175   H     0.21116   0.55886   0.57147   0.00000  Uiso   1.00
O176   O     0.15699   0.14115   0.47853   0.00000  Uiso   1.00
O177   O     0.03137   0.84297   0.13424   0.00000  Uiso   1.00
O178   O     0.36562   0.51602   0.57503   0.00000  Uiso   1.00
N179   N     0.22492   0.07024   0.57219   0.00000  Uiso   1.00
N180   N     0.13539   0.85777   0.03947   0.00000  Uiso   1.00
N181   N     0.37358   0.62477   0.64099   0.00000  Uiso   1.00
N182   N     0.10500   0.03513   0.52891   0.00000  Uiso   1.00
N183   N     0.01547   0.82266   0.99619   0.00000  Uiso   1.00
N184   N     0.25365   0.58966   0.59771   0.00000  Uiso   1.00
C185   C     0.76254   0.57091   0.78168   0.00000  Uiso   1.00
C186   C     0.72193   0.61622   0.84644   0.00000  Uiso   1.00
C187   C     0.75271   0.67887   0.87776   0.00000  Uiso   1.00
C188   C     0.70635   0.71242   0.93660   0.00000  Uiso   1.00
C189   C     0.65460   0.78707   0.03309   0.00000  Uiso   1.00
C190   C     0.70010   0.56369   0.71383   0.00000  Uiso   1.00
C191   C     0.71253   0.58216   0.63364   0.00000  Uiso   1.00
C192   C     0.64778   0.57148   0.58084   0.00000  Uiso   1.00
C193   C     0.56216   0.56454   0.47144   0.00000  Uiso   1.00
C194   C     0.77164   0.49731   0.81823   0.00000  Uiso   1.00
C195   C     0.84423   0.45996   0.82581   0.00000  Uiso   1.00
C196   C     0.83972   0.39338   0.86091   0.00000  Uiso   1.00
C197   C     0.86519   0.28337   0.91361   0.00000  Uiso   1.00
C198   C     0.62546   0.51909   0.83051   0.00000  Uiso   1.00
C199   C     0.64747   0.58807   0.87296   0.00000  Uiso   1.00
C200   C     0.60105   0.62153   0.93178   0.00000  Uiso   1.00
C201   C     0.63176   0.68422   0.96317   0.00000  Uiso   1.00
C202   C     0.62564   0.53554   0.74034   0.00000  Uiso   1.00
C203   C     0.56086   0.52483   0.68766   0.00000  Uiso   1.00
C204   C     0.57319   0.54329   0.60741   0.00000  Uiso   1.00
C205   C     0.69719   0.46916   0.84476   0.00000  Uiso   1.00
C206   C     0.69257   0.40263   0.87984   0.00000  Uiso   1.00
C207   C     0.76513   0.36518   0.88747   0.00000  Uiso   1.00
H208   H     0.82050   0.59282   0.76103   0.00000  Uiso   1.00
H209   H     0.81033   0.70064   0.85721   0.00000  Uiso   1.00
H210   H     0.77015   0.60394   0.61313   0.00000  Uiso   1.00
H211   H     0.90184   0.48176   0.80528   0.00000  Uiso   1.00
H212   H     0.76621   0.80777   0.97552   0.00000  Uiso   1.00
H213   H     0.68150   0.60385   0.46086   0.00000  Uiso   1.00
H214   H     0.95918   0.34621   0.86604   0.00000  Uiso   1.00
H215   H     0.56749   0.49717   0.85115   0.00000  Uiso   1.00
H216   H     0.54343   0.59974   0.95229   0.00000  Uiso   1.00
H217   H     0.50325   0.50304   0.70820   0.00000  Uiso   1.00
H218   H     0.63494   0.38086   0.90035   0.00000  Uiso   1.00
H219   H     0.54958   0.72588   0.05268   0.00000  Uiso   1.00
H220   H     0.46487   0.52196   0.53801   0.00000  Uiso   1.00
H221   H     0.74255   0.26432   0.94320   0.00000  Uiso   1.00
O222   O     0.64662   0.83603   0.07898   0.00000  Uiso   1.00
O223   O     0.53550   0.56849   0.40376   0.00000  Uiso   1.00
O224   O     0.89980   0.23047   0.93536   0.00000  Uiso   1.00
N225   N     0.71853   0.77441   0.97981   0.00000  Uiso   1.00
N226   N     0.63933   0.58377   0.49863   0.00000  Uiso   1.00
N227   N     0.89893   0.34289   0.87743   0.00000  Uiso   1.00
N228   N     0.60197   0.73035   0.02133   0.00000  Uiso   1.00
N229   N     0.52277   0.53971   0.54016   0.00000  Uiso   1.00
N230   N     0.78237   0.29883   0.91895   0.00000  Uiso   1.00
C231   C     0.24480   0.85403   0.25464   0.00000  Uiso   1.00
C232   C     0.28245   0.90503   0.19378   0.00000  Uiso   1.00
C233   C     0.24730   0.96747   0.16671   0.00000  Uiso   1.00
C234   C     0.29152   0.00675   0.11096   0.00000  Uiso   1.00
C235   C     0.33834   0.08938   0.02068   0.00000  Uiso   1.00
C236   C     0.30713   0.84648   0.32256   0.00000  Uiso   1.00
C237   C     0.29273   0.85969   0.40378   0.00000  Uiso   1.00
C238   C     0.35772   0.84967   0.45644   0.00000  Uiso   1.00
C239   C     0.44284   0.84135   0.56611   0.00000  Uiso   1.00
C240   C     0.24148   0.78228   0.21273   0.00000  Uiso   1.00
C241   C     0.17189   0.74149   0.20162   0.00000  Uiso   1.00
C242   C     0.18162   0.67740   0.16183   0.00000  Uiso   1.00
C243   C     0.16481   0.56939   0.10097   0.00000  Uiso   1.00
C244   C     0.38583   0.81274   0.20376   0.00000  Uiso   1.00
C245   C     0.35905   0.88260   0.16614   0.00000  Uiso   1.00
C246   C     0.40334   0.92179   0.11041   0.00000  Uiso   1.00
C247   C     0.36826   0.98428   0.08326   0.00000  Uiso   1.00
C248   C     0.38373   0.82406   0.29492   0.00000  Uiso   1.00
C249   C     0.44876   0.81401   0.34748   0.00000  Uiso   1.00
C250   C     0.43446   0.82721   0.42875   0.00000  Uiso   1.00
C251   C     0.31808   0.75985   0.18509   0.00000  Uiso   1.00
C252   C     0.32792   0.69581   0.14531   0.00000  Uiso   1.00
C253   C     0.25836   0.65494   0.13414   0.00000  Uiso   1.00
H254   H     0.18517   0.87148   0.27617   0.00000  Uiso   1.00
H255   H     0.18802   0.98481   0.18812   0.00000  Uiso   1.00
H256   H     0.23344   0.87704   0.42515   0.00000  Uiso   1.00
H257   H     0.11262   0.75886   0.22302   0.00000  Uiso   1.00
H258   H     0.22499   0.10058   0.07834   0.00000  Uiso   1.00
H259   H     0.32074   0.87331   0.57813   0.00000  Uiso   1.00
H260   H     0.06597   0.62411   0.15190   0.00000  Uiso   1.00
H261   H     0.44547   0.79527   0.18224   0.00000  Uiso   1.00
H262   H     0.46261   0.90442   0.08903   0.00000  Uiso   1.00
H263   H     0.50803   0.79665   0.32606   0.00000  Uiso   1.00
H264   H     0.38721   0.67847   0.12393   0.00000  Uiso   1.00
H265   H     0.44786   0.03534   0.99791   0.00000  Uiso   1.00
H266   H     0.54361   0.80807   0.49771   0.00000  Uiso   1.00
H267   H     0.28884   0.55886   0.07147   0.00000  Uiso   1.00
O268   O     0.34301   0.14115   0.97853   0.00000  Uiso   1.00
O269   O     0.46863   0.84297   0.63424   0.00000  Uiso   1.00
O270   O     0.13438   0.51602   0.07503   0.00000  Uiso   1.00
N271   N     0.27508   0.07024   0.07219   0.00000  Uiso   1.00
N272   N     0.36461   0.85777   0.53947   0.00000  Uiso   1.00
N273   N     0.12642   0.62477   0.14099   0.00000  Uiso   1.00
N274   N     0.39500   0.03513   0.02891   0.00000  Uiso   1.00
N275   N     0.48453   0.82266   0.49619   0.00000  Uiso   1.00
N276   N     0.24635   0.58966   0.09771   0.00000  Uiso   1.00
C277   C     0.23746   0.42909   0.28168   0.00000  Uiso   1.00
C278   C     0.27807   0.38378   0.34644   0.00000  Uiso   1.00
C279   C     0.24729   0.32113   0.37776   0.00000  Uiso   1.00
C280   C     0.29365   0.28758   0.43660   0.00000  Uiso   1.00
C281   C     0.34540   0.21293   0.53309   0.00000  Uiso   1.00
C282   C     0.29990   0.43631   0.21383   0.00000  Uiso   1.00
C283   C     0.28747   0.41784   0.13364   0.00000  Uiso   1.00
C284   C     0.35222   0.42852   0.08084   0.00000  Uiso   1.00
C285   C     0.43784   0.43546   0.97144   0.00000  Uiso   1.00
C286   C     0.22836   0.50269   0.31823   0.00000  Uiso   1.00
C287   C     0.15577   0.54004   0.32581   0.00000  Uiso   1.00
C288   C     0.16028   0.60662   0.36091   0.00000  Uiso   1.00
C289   C     0.13481   0.71663   0.41361   0.00000  Uiso   1.00
C290   C     0.37454   0.48091   0.33051   0.00000  Uiso   1.00
C291   C     0.35253   0.41193   0.37296   0.00000  Uiso   1.00
C292   C     0.39895   0.37847   0.43178   0.00000  Uiso   1.00
C293   C     0.36824   0.31578   0.46317   0.00000  Uiso   1.00
C294   C     0.37436   0.46446   0.24034   0.00000  Uiso   1.00
C295   C     0.43914   0.47517   0.18766   0.00000  Uiso   1.00
C296   C     0.42681   0.45671   0.10741   0.00000  Uiso   1.00
C297   C     0.30281   0.53084   0.34476   0.00000  Uiso   1.00
C298   C     0.30743   0.59737   0.37984   0.00000  Uiso   1.00
C299   C     0.23487   0.63482   0.38747   0.00000  Uiso   1.00
H300   H     0.17950   0.40718   0.26103   0.00000  Uiso   1.00
H301   H     0.18967   0.29936   0.35721   0.00000  Uiso   1.00
H302   H     0.22985   0.39606   0.11313   0.00000  Uiso   1.00
H303   H     0.09816   0.51824   0.30528   0.00000  Uiso   1.00
H304   H     0.23379   0.19223   0.47552   0.00000  Uiso   1.00
H305   H     0.31850   0.39615   0.96086   0.00000  Uiso   1.00
H306   H     0.04082   0.65379   0.36604   0.00000  Uiso   1.00
H307   H     0.43251   0.50283   0.35115   0.00000  Uiso   1.00
H308   H     0.45657   0.40026   0.45229   0.00000  Uiso   1.00
H309   H     0.49675   0.49696   0.20820   0.00000  Uiso   1.00
H310   H     0.36506   0.61914   0.40035   0.00000  Uiso   1.00
H311   H     0.45042   0.27412   0.55268   0.00000  Uiso   1.00
H312   H     0.53513   0.47804   0.03801   0.00000  Uiso   1.00
H313   H     0.25745   0.73568   0.44320   0.00000  Uiso   1.00
O314   O     0.35338   0.16397   0.57898   0.00000  Uiso   1.00
O315   O     0.46450   0.43151   0.90376   0.00000  Uiso   1.00
O316   O     0.10020   0.76953   0.43536   0.00000  Uiso   1.00
N317   N     0.28147   0.22559   0.47981   0.00000  Uiso   1.00
N318   N     0.36067   0.41623   0.99863   0.00000  Uiso   1.00
N319   N     0.10107   0.65711   0.37743   0.00000  Uiso   1.00
N320   N     0.39803   0.26965   0.52133   0.00000  Uiso   1.00
N321   N     0.47723   0.46029   0.04016   0.00000  Uiso   1.00
N322   N     0.21763   0.70117   0.41895   0.00000  Uiso   1.00
C323   C     0.75520   0.14597   0.75464   0.00000  Uiso   1.00
C324   C     0.71755   0.09497   0.69378   0.00000  Uiso   1.00
C325   C     0.75270   0.03253   0.66671   0.00000  Uiso   1.00
C326   C     0.70848   0.99325   0.61096   0.00000  Uiso   1.00
C327   C     0.66166   0.91062   0.52068   0.00000  Uiso   1.00
C328   C     0.69287   0.15352   0.82256   0.00000  Uiso   1.00
C329   C     0.70727   0.14031   0.90378   0.00000  Uiso   1.00
C330   C     0.64228   0.15033   0.95644   0.00000  Uiso   1.00
C331   C     0.55716   0.15865   0.06611   0.00000  Uiso   1.00
C332   C     0.75852   0.21772   0.71273   0.00000  Uiso   1.00
C333   C     0.82811   0.25851   0.70162   0.00000  Uiso   1.00
C334   C     0.81838   0.32260   0.66183   0.00000  Uiso   1.00
C335   C     0.83519   0.43061   0.60097   0.00000  Uiso   1.00
C336   C     0.61417   0.18726   0.70376   0.00000  Uiso   1.00
C337   C     0.64095   0.11740   0.66614   0.00000  Uiso   1.00
C338   C     0.59666   0.07821   0.61041   0.00000  Uiso   1.00
C339   C     0.63174   0.01572   0.58326   0.00000  Uiso   1.00
C340   C     0.61627   0.17594   0.79492   0.00000  Uiso   1.00
C341   C     0.55124   0.18599   0.84748   0.00000  Uiso   1.00
C342   C     0.56554   0.17279   0.92875   0.00000  Uiso   1.00
C343   C     0.68192   0.24015   0.68509   0.00000  Uiso   1.00
C344   C     0.67208   0.30419   0.64531   0.00000  Uiso   1.00
C345   C     0.74164   0.34506   0.63414   0.00000  Uiso   1.00
H346   H     0.81483   0.12852   0.77617   0.00000  Uiso   1.00
H347   H     0.81198   0.01519   0.68812   0.00000  Uiso   1.00
H348   H     0.76656   0.12296   0.92515   0.00000  Uiso   1.00
H349   H     0.88738   0.24114   0.72302   0.00000  Uiso   1.00
H350   H     0.77501   0.89942   0.57834   0.00000  Uiso   1.00
H351   H     0.67926   0.12669   0.07813   0.00000  Uiso   1.00
H352   H     0.93403   0.37589   0.65190   0.00000  Uiso   1.00
H353   H     0.55453   0.20473   0.68224   0.00000  Uiso   1.00
H354   H     0.53739   0.09558   0.58903   0.00000  Uiso   1.00
H355   H     0.49197   0.20335   0.82606   0.00000  Uiso   1.00
H356   H     0.61279   0.32153   0.62393   0.00000  Uiso   1.00
H357   H     0.55214   0.96466   0.49791   0.00000  Uiso   1.00
H358   H     0.45639   0.19193   0.99771   0.00000  Uiso   1.00
H359   H     0.71116   0.44114   0.57147   0.00000  Uiso   1.00
O360   O     0.65699   0.85885   0.47853   0.00000  Uiso   1.00
O361   O     0.53137   0.15703   0.13424   0.00000  Uiso   1.00
O362   O     0.86562   0.48398   0.57503   0.00000  Uiso   1.00
N363   N     0.72492   0.92976   0.57219   0.00000  Uiso   1.00
N364   N     0.63539   0.14223   0.03947   0.00000  Uiso   1.00
N365   N     0.87358   0.37523   0.64099   0.00000  Uiso   1.00
N366   N     0.60500   0.96487   0.52891   0.00000  Uiso   1.00
N367   N     0.51547   0.17734   0.99619   0.00000  Uiso   1.00
N368   N     0.75365   0.41034   0.59771   0.00000  Uiso   1.00
