data_job_02304
_audit_creation_date              2018-12-19
_audit_creation_method            'Materials Studio'
_symmetry_space_group_name_H-M    'P1'
_symmetry_Int_Tables_number       1
_symmetry_cell_setting            triclinic
loop_
_symmetry_equiv_pos_as_xyz
  x,y,z
_cell_length_a                    12.5952
_cell_length_b                    12.5444
_cell_length_c                    33.5974
_cell_angle_alpha                 90.0000
_cell_angle_beta                  90.0000
_cell_angle_gamma                 90.0000
loop_
_atom_site_label
_atom_site_type_symbol
_atom_site_fract_x
_atom_site_fract_y
_atom_site_fract_z
_atom_site_U_iso_or_equiv
_atom_site_adp_type
_atom_site_occupancy
C1     C     0.84698   0.23864   0.35125   0.00000  Uiso   1.00
C2     C     0.77076   0.19218   0.38195   0.00000  Uiso   1.00
C3     C     0.68024   0.24178   0.39650   0.00000  Uiso   1.00
C4     C     0.62105   0.18606   0.42447   0.00000  Uiso   1.00
C5     C     0.49812   0.12941   0.47019   0.00000  Uiso   1.00
C6     C     0.95638   0.23774   0.37068   0.00000  Uiso   1.00
C7     C     0.02192   0.32563   0.37575   0.00000  Uiso   1.00
C8     C     0.11899   0.30824   0.39423   0.00000  Uiso   1.00
C9     C     0.28427   0.32230   0.42243   0.00000  Uiso   1.00
C10    C     0.85207   0.15775   0.31742   0.00000  Uiso   1.00
C11    C     0.82993   0.17840   0.27770   0.00000  Uiso   1.00
C12    C     0.83920   0.09368   0.25133   0.00000  Uiso   1.00
C13    C     0.84252   0.98355   0.19684   0.00000  Uiso   1.00
C14    C     0.90283   0.05148   0.37506   0.00000  Uiso   1.00
C15    C     0.80111   0.09052   0.39489   0.00000  Uiso   1.00
C16    C     0.74203   0.03470   0.42284   0.00000  Uiso   1.00
C17    C     0.65144   0.08421   0.43742   0.00000  Uiso   1.00
C18    C     0.98672   0.13608   0.38362   0.00000  Uiso   1.00
C19    C     0.08372   0.11855   0.40209   0.00000  Uiso   1.00
C20    C     0.14938   0.20640   0.40718   0.00000  Uiso   1.00
C21    C     0.88240   0.05609   0.33035   0.00000  Uiso   1.00
C22    C     0.89172   0.97132   0.30404   0.00000  Uiso   1.00
C23    C     0.86959   0.99183   0.26429   0.00000  Uiso   1.00
H24    H     0.82337   0.31779   0.34118   0.00000  Uiso   1.00
H25    H     0.65679   0.32047   0.38648   0.00000  Uiso   1.00
H26    H     0.99843   0.40429   0.36573   0.00000  Uiso   1.00
H27    H     0.80646   0.25708   0.26770   0.00000  Uiso   1.00
H28    H     0.48552   0.27861   0.44243   0.00000  Uiso   1.00
H29    H     0.20588   0.45536   0.39866   0.00000  Uiso   1.00
H30    H     0.80109   0.14494   0.19194   0.00000  Uiso   1.00
H31    H     0.92645   0.97232   0.38513   0.00000  Uiso   1.00
H32    H     0.76553   0.95603   0.43284   0.00000  Uiso   1.00
H33    H     0.10717   0.03987   0.41209   0.00000  Uiso   1.00
H34    H     0.91520   0.89266   0.31406   0.00000  Uiso   1.00
H35    H     0.57378   0.98282   0.48006   0.00000  Uiso   1.00
H36    H     0.29415   0.15958   0.43629   0.00000  Uiso   1.00
H37    H     0.88935   0.84916   0.22957   0.00000  Uiso   1.00
O38    O     0.42195   0.12625   0.49185   0.00000  Uiso   1.00
O39    O     0.36705   0.35814   0.43442   0.00000  Uiso   1.00
O40    O     0.83596   0.95088   0.16321   0.00000  Uiso   1.00
N41    N     0.52836   0.21122   0.44473   0.00000  Uiso   1.00
N42    N     0.20185   0.37648   0.40382   0.00000  Uiso   1.00
N43    N     0.82343   0.08627   0.21055   0.00000  Uiso   1.00
N44    N     0.57585   0.05206   0.46498   0.00000  Uiso   1.00
N45    N     0.24935   0.21732   0.42406   0.00000  Uiso   1.00
N46    N     0.87092   0.92711   0.23080   0.00000  Uiso   1.00
C47    C     0.65302   0.26136   0.85125   0.00000  Uiso   1.00
C48    C     0.72924   0.30782   0.88195   0.00000  Uiso   1.00
C49    C     0.81976   0.25822   0.89650   0.00000  Uiso   1.00
C50    C     0.87895   0.31394   0.92447   0.00000  Uiso   1.00
C51    C     0.00188   0.37059   0.97019   0.00000  Uiso   1.00
C52    C     0.54362   0.26226   0.87068   0.00000  Uiso   1.00
C53    C     0.47808   0.17437   0.87575   0.00000  Uiso   1.00
C54    C     0.38101   0.19176   0.89423   0.00000  Uiso   1.00
C55    C     0.21573   0.17770   0.92243   0.00000  Uiso   1.00
C56    C     0.64793   0.34225   0.81742   0.00000  Uiso   1.00
C57    C     0.67007   0.32160   0.77770   0.00000  Uiso   1.00
C58    C     0.66080   0.40632   0.75133   0.00000  Uiso   1.00
C59    C     0.65748   0.51645   0.69684   0.00000  Uiso   1.00
C60    C     0.59717   0.44852   0.87506   0.00000  Uiso   1.00
C61    C     0.69889   0.40948   0.89489   0.00000  Uiso   1.00
C62    C     0.75797   0.46530   0.92284   0.00000  Uiso   1.00
C63    C     0.84856   0.41579   0.93742   0.00000  Uiso   1.00
C64    C     0.51328   0.36392   0.88362   0.00000  Uiso   1.00
C65    C     0.41628   0.38145   0.90209   0.00000  Uiso   1.00
C66    C     0.35062   0.29360   0.90718   0.00000  Uiso   1.00
C67    C     0.61760   0.44391   0.83035   0.00000  Uiso   1.00
C68    C     0.60828   0.52868   0.80404   0.00000  Uiso   1.00
C69    C     0.63041   0.50817   0.76429   0.00000  Uiso   1.00
H70    H     0.67663   0.18221   0.84118   0.00000  Uiso   1.00
H71    H     0.84321   0.17953   0.88648   0.00000  Uiso   1.00
H72    H     0.50157   0.09571   0.86573   0.00000  Uiso   1.00
H73    H     0.69354   0.24292   0.76770   0.00000  Uiso   1.00
H74    H     0.01448   0.22139   0.94243   0.00000  Uiso   1.00
H75    H     0.29412   0.04464   0.89866   0.00000  Uiso   1.00
H76    H     0.69891   0.35506   0.69194   0.00000  Uiso   1.00
H77    H     0.57355   0.52768   0.88513   0.00000  Uiso   1.00
H78    H     0.73447   0.54397   0.93284   0.00000  Uiso   1.00
H79    H     0.39283   0.46013   0.91209   0.00000  Uiso   1.00
H80    H     0.58480   0.60734   0.81406   0.00000  Uiso   1.00
H81    H     0.92622   0.51718   0.98006   0.00000  Uiso   1.00
H82    H     0.20585   0.34042   0.93629   0.00000  Uiso   1.00
H83    H     0.61065   0.65084   0.72957   0.00000  Uiso   1.00
O84    O     0.07805   0.37375   0.99185   0.00000  Uiso   1.00
O85    O     0.13295   0.14186   0.93442   0.00000  Uiso   1.00
O86    O     0.66404   0.54912   0.66321   0.00000  Uiso   1.00
N87    N     0.97164   0.28878   0.94473   0.00000  Uiso   1.00
N88    N     0.29815   0.12352   0.90382   0.00000  Uiso   1.00
N89    N     0.67657   0.41373   0.71055   0.00000  Uiso   1.00
N90    N     0.92415   0.44794   0.96498   0.00000  Uiso   1.00
N91    N     0.25065   0.28268   0.92406   0.00000  Uiso   1.00
N92    N     0.62908   0.57289   0.73080   0.00000  Uiso   1.00
C93    C     0.15302   0.23864   0.14875   0.00000  Uiso   1.00
C94    C     0.22924   0.19218   0.11805   0.00000  Uiso   1.00
C95    C     0.31976   0.24178   0.10350   0.00000  Uiso   1.00
C96    C     0.37895   0.18606   0.07553   0.00000  Uiso   1.00
C97    C     0.50188   0.12941   0.02981   0.00000  Uiso   1.00
C98    C     0.04362   0.23774   0.12932   0.00000  Uiso   1.00
C99    C     0.97808   0.32563   0.12425   0.00000  Uiso   1.00
C100   C     0.88101   0.30824   0.10577   0.00000  Uiso   1.00
C101   C     0.71573   0.32230   0.07757   0.00000  Uiso   1.00
C102   C     0.14793   0.15775   0.18258   0.00000  Uiso   1.00
C103   C     0.17007   0.17840   0.22230   0.00000  Uiso   1.00
C104   C     0.16080   0.09368   0.24867   0.00000  Uiso   1.00
C105   C     0.15748   0.98355   0.30316   0.00000  Uiso   1.00
C106   C     0.09717   0.05148   0.12494   0.00000  Uiso   1.00
C107   C     0.19889   0.09052   0.10511   0.00000  Uiso   1.00
C108   C     0.25797   0.03470   0.07716   0.00000  Uiso   1.00
C109   C     0.34856   0.08421   0.06258   0.00000  Uiso   1.00
C110   C     0.01328   0.13608   0.11638   0.00000  Uiso   1.00
C111   C     0.91628   0.11855   0.09791   0.00000  Uiso   1.00
C112   C     0.85062   0.20640   0.09282   0.00000  Uiso   1.00
C113   C     0.11760   0.05609   0.16965   0.00000  Uiso   1.00
C114   C     0.10828   0.97132   0.19596   0.00000  Uiso   1.00
C115   C     0.13041   0.99183   0.23571   0.00000  Uiso   1.00
H116   H     0.17663   0.31779   0.15882   0.00000  Uiso   1.00
H117   H     0.34321   0.32047   0.11352   0.00000  Uiso   1.00
H118   H     0.00157   0.40429   0.13427   0.00000  Uiso   1.00
H119   H     0.19354   0.25708   0.23230   0.00000  Uiso   1.00
H120   H     0.51448   0.27861   0.05757   0.00000  Uiso   1.00
H121   H     0.79412   0.45536   0.10134   0.00000  Uiso   1.00
H122   H     0.19891   0.14494   0.30806   0.00000  Uiso   1.00
H123   H     0.07355   0.97232   0.11487   0.00000  Uiso   1.00
H124   H     0.23447   0.95603   0.06716   0.00000  Uiso   1.00
H125   H     0.89283   0.03987   0.08791   0.00000  Uiso   1.00
H126   H     0.08480   0.89266   0.18594   0.00000  Uiso   1.00
H127   H     0.42622   0.98282   0.01994   0.00000  Uiso   1.00
H128   H     0.70585   0.15958   0.06371   0.00000  Uiso   1.00
H129   H     0.11065   0.84916   0.27043   0.00000  Uiso   1.00
O130   O     0.57805   0.12625   0.00815   0.00000  Uiso   1.00
O131   O     0.63295   0.35814   0.06558   0.00000  Uiso   1.00
O132   O     0.16404   0.95088   0.33679   0.00000  Uiso   1.00
N133   N     0.47164   0.21122   0.05527   0.00000  Uiso   1.00
N134   N     0.79815   0.37648   0.09618   0.00000  Uiso   1.00
N135   N     0.17657   0.08627   0.28945   0.00000  Uiso   1.00
N136   N     0.42415   0.05206   0.03502   0.00000  Uiso   1.00
N137   N     0.75065   0.21732   0.07594   0.00000  Uiso   1.00
N138   N     0.12908   0.92711   0.26920   0.00000  Uiso   1.00
C139   C     0.34698   0.26136   0.64875   0.00000  Uiso   1.00
C140   C     0.27076   0.30782   0.61805   0.00000  Uiso   1.00
C141   C     0.18024   0.25822   0.60350   0.00000  Uiso   1.00
C142   C     0.12105   0.31394   0.57553   0.00000  Uiso   1.00
C143   C     0.99812   0.37059   0.52981   0.00000  Uiso   1.00
C144   C     0.45638   0.26226   0.62932   0.00000  Uiso   1.00
C145   C     0.52192   0.17437   0.62425   0.00000  Uiso   1.00
C146   C     0.61899   0.19176   0.60577   0.00000  Uiso   1.00
C147   C     0.78427   0.17770   0.57757   0.00000  Uiso   1.00
C148   C     0.35207   0.34225   0.68258   0.00000  Uiso   1.00
C149   C     0.32993   0.32160   0.72230   0.00000  Uiso   1.00
C150   C     0.33920   0.40632   0.74867   0.00000  Uiso   1.00
C151   C     0.34252   0.51645   0.80316   0.00000  Uiso   1.00
C152   C     0.40283   0.44852   0.62494   0.00000  Uiso   1.00
C153   C     0.30111   0.40948   0.60511   0.00000  Uiso   1.00
C154   C     0.24203   0.46530   0.57716   0.00000  Uiso   1.00
C155   C     0.15144   0.41579   0.56258   0.00000  Uiso   1.00
C156   C     0.48672   0.36392   0.61638   0.00000  Uiso   1.00
C157   C     0.58372   0.38145   0.59791   0.00000  Uiso   1.00
C158   C     0.64938   0.29360   0.59282   0.00000  Uiso   1.00
C159   C     0.38240   0.44391   0.66965   0.00000  Uiso   1.00
C160   C     0.39172   0.52868   0.69596   0.00000  Uiso   1.00
C161   C     0.36959   0.50817   0.73571   0.00000  Uiso   1.00
H162   H     0.32337   0.18221   0.65882   0.00000  Uiso   1.00
H163   H     0.15679   0.17953   0.61352   0.00000  Uiso   1.00
H164   H     0.49843   0.09571   0.63427   0.00000  Uiso   1.00
H165   H     0.30646   0.24292   0.73230   0.00000  Uiso   1.00
H166   H     0.98552   0.22139   0.55757   0.00000  Uiso   1.00
H167   H     0.70588   0.04464   0.60134   0.00000  Uiso   1.00
H168   H     0.30109   0.35506   0.80806   0.00000  Uiso   1.00
H169   H     0.42645   0.52768   0.61487   0.00000  Uiso   1.00
H170   H     0.26553   0.54397   0.56716   0.00000  Uiso   1.00
H171   H     0.60717   0.46013   0.58791   0.00000  Uiso   1.00
H172   H     0.41520   0.60734   0.68594   0.00000  Uiso   1.00
H173   H     0.07378   0.51718   0.51994   0.00000  Uiso   1.00
H174   H     0.79415   0.34042   0.56371   0.00000  Uiso   1.00
H175   H     0.38935   0.65084   0.77043   0.00000  Uiso   1.00
O176   O     0.92195   0.37375   0.50815   0.00000  Uiso   1.00
O177   O     0.86705   0.14186   0.56558   0.00000  Uiso   1.00
O178   O     0.33596   0.54912   0.83679   0.00000  Uiso   1.00
N179   N     0.02836   0.28878   0.55527   0.00000  Uiso   1.00
N180   N     0.70185   0.12352   0.59618   0.00000  Uiso   1.00
N181   N     0.32343   0.41373   0.78945   0.00000  Uiso   1.00
N182   N     0.07585   0.44794   0.53502   0.00000  Uiso   1.00
N183   N     0.74935   0.28268   0.57594   0.00000  Uiso   1.00
N184   N     0.37092   0.57289   0.76920   0.00000  Uiso   1.00
C185   C     0.15302   0.76136   0.64875   0.00000  Uiso   1.00
C186   C     0.22924   0.80782   0.61805   0.00000  Uiso   1.00
C187   C     0.31976   0.75822   0.60350   0.00000  Uiso   1.00
C188   C     0.37895   0.81394   0.57553   0.00000  Uiso   1.00
C189   C     0.50188   0.87059   0.52981   0.00000  Uiso   1.00
C190   C     0.04362   0.76226   0.62932   0.00000  Uiso   1.00
C191   C     0.97808   0.67437   0.62425   0.00000  Uiso   1.00
C192   C     0.88101   0.69176   0.60577   0.00000  Uiso   1.00
C193   C     0.71573   0.67770   0.57757   0.00000  Uiso   1.00
C194   C     0.14793   0.84225   0.68258   0.00000  Uiso   1.00
C195   C     0.17007   0.82160   0.72230   0.00000  Uiso   1.00
C196   C     0.16080   0.90632   0.74867   0.00000  Uiso   1.00
C197   C     0.15748   0.01645   0.80316   0.00000  Uiso   1.00
C198   C     0.09717   0.94852   0.62494   0.00000  Uiso   1.00
C199   C     0.19889   0.90948   0.60511   0.00000  Uiso   1.00
C200   C     0.25797   0.96530   0.57716   0.00000  Uiso   1.00
C201   C     0.34856   0.91579   0.56258   0.00000  Uiso   1.00
C202   C     0.01328   0.86392   0.61638   0.00000  Uiso   1.00
C203   C     0.91628   0.88145   0.59791   0.00000  Uiso   1.00
C204   C     0.85062   0.79360   0.59282   0.00000  Uiso   1.00
C205   C     0.11760   0.94391   0.66965   0.00000  Uiso   1.00
C206   C     0.10828   0.02868   0.69596   0.00000  Uiso   1.00
C207   C     0.13041   0.00817   0.73571   0.00000  Uiso   1.00
H208   H     0.17663   0.68221   0.65882   0.00000  Uiso   1.00
H209   H     0.34321   0.67953   0.61352   0.00000  Uiso   1.00
H210   H     0.00157   0.59571   0.63427   0.00000  Uiso   1.00
H211   H     0.19354   0.74292   0.73230   0.00000  Uiso   1.00
H212   H     0.51448   0.72139   0.55757   0.00000  Uiso   1.00
H213   H     0.79412   0.54464   0.60134   0.00000  Uiso   1.00
H214   H     0.19891   0.85506   0.80806   0.00000  Uiso   1.00
H215   H     0.07355   0.02768   0.61487   0.00000  Uiso   1.00
H216   H     0.23447   0.04397   0.56716   0.00000  Uiso   1.00
H217   H     0.89283   0.96013   0.58791   0.00000  Uiso   1.00
H218   H     0.08480   0.10734   0.68594   0.00000  Uiso   1.00
H219   H     0.42622   0.01718   0.51994   0.00000  Uiso   1.00
H220   H     0.70585   0.84042   0.56371   0.00000  Uiso   1.00
H221   H     0.11065   0.15084   0.77043   0.00000  Uiso   1.00
O222   O     0.57805   0.87375   0.50815   0.00000  Uiso   1.00
O223   O     0.63295   0.64186   0.56558   0.00000  Uiso   1.00
O224   O     0.16404   0.04912   0.83679   0.00000  Uiso   1.00
N225   N     0.47164   0.78878   0.55527   0.00000  Uiso   1.00
N226   N     0.79815   0.62352   0.59618   0.00000  Uiso   1.00
N227   N     0.17657   0.91373   0.78945   0.00000  Uiso   1.00
N228   N     0.42415   0.94794   0.53502   0.00000  Uiso   1.00
N229   N     0.75065   0.78268   0.57594   0.00000  Uiso   1.00
N230   N     0.12908   0.07289   0.76920   0.00000  Uiso   1.00
C231   C     0.34698   0.73864   0.14875   0.00000  Uiso   1.00
C232   C     0.27076   0.69218   0.11805   0.00000  Uiso   1.00
C233   C     0.18024   0.74178   0.10350   0.00000  Uiso   1.00
C234   C     0.12105   0.68606   0.07553   0.00000  Uiso   1.00
C235   C     0.99812   0.62941   0.02981   0.00000  Uiso   1.00
C236   C     0.45638   0.73774   0.12932   0.00000  Uiso   1.00
C237   C     0.52192   0.82563   0.12425   0.00000  Uiso   1.00
C238   C     0.61899   0.80824   0.10577   0.00000  Uiso   1.00
C239   C     0.78427   0.82230   0.07757   0.00000  Uiso   1.00
C240   C     0.35207   0.65775   0.18258   0.00000  Uiso   1.00
C241   C     0.32993   0.67840   0.22230   0.00000  Uiso   1.00
C242   C     0.33920   0.59368   0.24867   0.00000  Uiso   1.00
C243   C     0.34252   0.48355   0.30316   0.00000  Uiso   1.00
C244   C     0.40283   0.55148   0.12494   0.00000  Uiso   1.00
C245   C     0.30111   0.59052   0.10511   0.00000  Uiso   1.00
C246   C     0.24203   0.53470   0.07716   0.00000  Uiso   1.00
C247   C     0.15144   0.58421   0.06258   0.00000  Uiso   1.00
C248   C     0.48672   0.63608   0.11638   0.00000  Uiso   1.00
C249   C     0.58372   0.61855   0.09791   0.00000  Uiso   1.00
C250   C     0.64938   0.70640   0.09282   0.00000  Uiso   1.00
C251   C     0.38240   0.55609   0.16965   0.00000  Uiso   1.00
C252   C     0.39172   0.47132   0.19596   0.00000  Uiso   1.00
C253   C     0.36959   0.49183   0.23571   0.00000  Uiso   1.00
H254   H     0.32337   0.81779   0.15882   0.00000  Uiso   1.00
H255   H     0.15679   0.82047   0.11352   0.00000  Uiso   1.00
H256   H     0.49843   0.90429   0.13427   0.00000  Uiso   1.00
H257   H     0.30646   0.75708   0.23230   0.00000  Uiso   1.00
H258   H     0.98552   0.77861   0.05757   0.00000  Uiso   1.00
H259   H     0.70588   0.95536   0.10134   0.00000  Uiso   1.00
H260   H     0.30109   0.64494   0.30806   0.00000  Uiso   1.00
H261   H     0.42645   0.47232   0.11487   0.00000  Uiso   1.00
H262   H     0.26553   0.45603   0.06716   0.00000  Uiso   1.00
H263   H     0.60717   0.53987   0.08791   0.00000  Uiso   1.00
H264   H     0.41520   0.39266   0.18594   0.00000  Uiso   1.00
H265   H     0.07378   0.48282   0.01994   0.00000  Uiso   1.00
H266   H     0.79415   0.65958   0.06371   0.00000  Uiso   1.00
H267   H     0.38935   0.34916   0.27043   0.00000  Uiso   1.00
O268   O     0.92195   0.62625   0.00815   0.00000  Uiso   1.00
O269   O     0.86705   0.85814   0.06558   0.00000  Uiso   1.00
O270   O     0.33596   0.45088   0.33679   0.00000  Uiso   1.00
N271   N     0.02836   0.71122   0.05527   0.00000  Uiso   1.00
N272   N     0.70185   0.87648   0.09618   0.00000  Uiso   1.00
N273   N     0.32343   0.58627   0.28945   0.00000  Uiso   1.00
N274   N     0.07585   0.55206   0.03502   0.00000  Uiso   1.00
N275   N     0.74935   0.71732   0.07594   0.00000  Uiso   1.00
N276   N     0.37092   0.42711   0.26920   0.00000  Uiso   1.00
C277   C     0.84698   0.76136   0.85125   0.00000  Uiso   1.00
C278   C     0.77076   0.80782   0.88195   0.00000  Uiso   1.00
C279   C     0.68024   0.75822   0.89650   0.00000  Uiso   1.00
C280   C     0.62105   0.81394   0.92447   0.00000  Uiso   1.00
C281   C     0.49812   0.87059   0.97019   0.00000  Uiso   1.00
C282   C     0.95638   0.76226   0.87068   0.00000  Uiso   1.00
C283   C     0.02192   0.67437   0.87575   0.00000  Uiso   1.00
C284   C     0.11899   0.69176   0.89423   0.00000  Uiso   1.00
C285   C     0.28427   0.67770   0.92243   0.00000  Uiso   1.00
C286   C     0.85207   0.84225   0.81742   0.00000  Uiso   1.00
C287   C     0.82993   0.82160   0.77770   0.00000  Uiso   1.00
C288   C     0.83920   0.90632   0.75133   0.00000  Uiso   1.00
C289   C     0.84252   0.01645   0.69684   0.00000  Uiso   1.00
C290   C     0.90283   0.94852   0.87506   0.00000  Uiso   1.00
C291   C     0.80111   0.90948   0.89489   0.00000  Uiso   1.00
C292   C     0.74203   0.96530   0.92284   0.00000  Uiso   1.00
C293   C     0.65144   0.91579   0.93742   0.00000  Uiso   1.00
C294   C     0.98672   0.86392   0.88362   0.00000  Uiso   1.00
C295   C     0.08372   0.88145   0.90209   0.00000  Uiso   1.00
C296   C     0.14938   0.79360   0.90718   0.00000  Uiso   1.00
C297   C     0.88240   0.94391   0.83035   0.00000  Uiso   1.00
C298   C     0.89172   0.02868   0.80404   0.00000  Uiso   1.00
C299   C     0.86959   0.00817   0.76429   0.00000  Uiso   1.00
H300   H     0.82337   0.68221   0.84118   0.00000  Uiso   1.00
H301   H     0.65679   0.67953   0.88648   0.00000  Uiso   1.00
H302   H     0.99843   0.59571   0.86573   0.00000  Uiso   1.00
H303   H     0.80646   0.74292   0.76770   0.00000  Uiso   1.00
H304   H     0.48552   0.72139   0.94243   0.00000  Uiso   1.00
H305   H     0.20588   0.54464   0.89866   0.00000  Uiso   1.00
H306   H     0.80109   0.85506   0.69194   0.00000  Uiso   1.00
H307   H     0.92645   0.02768   0.88513   0.00000  Uiso   1.00
H308   H     0.76553   0.04397   0.93284   0.00000  Uiso   1.00
H309   H     0.10717   0.96013   0.91209   0.00000  Uiso   1.00
H310   H     0.91520   0.10734   0.81406   0.00000  Uiso   1.00
H311   H     0.57378   0.01718   0.98006   0.00000  Uiso   1.00
H312   H     0.29415   0.84042   0.93629   0.00000  Uiso   1.00
H313   H     0.88935   0.15084   0.72957   0.00000  Uiso   1.00
O314   O     0.42195   0.87375   0.99185   0.00000  Uiso   1.00
O315   O     0.36705   0.64186   0.93442   0.00000  Uiso   1.00
O316   O     0.83596   0.04912   0.66321   0.00000  Uiso   1.00
N317   N     0.52836   0.78878   0.94473   0.00000  Uiso   1.00
N318   N     0.20185   0.62352   0.90382   0.00000  Uiso   1.00
N319   N     0.82343   0.91373   0.71055   0.00000  Uiso   1.00
N320   N     0.57585   0.94794   0.96498   0.00000  Uiso   1.00
N321   N     0.24935   0.78268   0.92406   0.00000  Uiso   1.00
N322   N     0.87092   0.07289   0.73080   0.00000  Uiso   1.00
C323   C     0.65302   0.73864   0.35125   0.00000  Uiso   1.00
C324   C     0.72924   0.69218   0.38195   0.00000  Uiso   1.00
C325   C     0.81976   0.74178   0.39650   0.00000  Uiso   1.00
C326   C     0.87895   0.68606   0.42447   0.00000  Uiso   1.00
C327   C     0.00188   0.62941   0.47019   0.00000  Uiso   1.00
C328   C     0.54362   0.73774   0.37068   0.00000  Uiso   1.00
C329   C     0.47808   0.82563   0.37575   0.00000  Uiso   1.00
C330   C     0.38101   0.80824   0.39423   0.00000  Uiso   1.00
C331   C     0.21573   0.82230   0.42243   0.00000  Uiso   1.00
C332   C     0.64793   0.65775   0.31742   0.00000  Uiso   1.00
C333   C     0.67007   0.67840   0.27770   0.00000  Uiso   1.00
C334   C     0.66080   0.59368   0.25133   0.00000  Uiso   1.00
C335   C     0.65748   0.48355   0.19684   0.00000  Uiso   1.00
C336   C     0.59717   0.55148   0.37506   0.00000  Uiso   1.00
C337   C     0.69889   0.59052   0.39489   0.00000  Uiso   1.00
C338   C     0.75797   0.53470   0.42284   0.00000  Uiso   1.00
C339   C     0.84856   0.58421   0.43742   0.00000  Uiso   1.00
C340   C     0.51328   0.63608   0.38362   0.00000  Uiso   1.00
C341   C     0.41628   0.61855   0.40209   0.00000  Uiso   1.00
C342   C     0.35062   0.70640   0.40718   0.00000  Uiso   1.00
C343   C     0.61760   0.55609   0.33035   0.00000  Uiso   1.00
C344   C     0.60828   0.47132   0.30404   0.00000  Uiso   1.00
C345   C     0.63041   0.49183   0.26429   0.00000  Uiso   1.00
H346   H     0.67663   0.81779   0.34118   0.00000  Uiso   1.00
H347   H     0.84321   0.82047   0.38648   0.00000  Uiso   1.00
H348   H     0.50157   0.90429   0.36573   0.00000  Uiso   1.00
H349   H     0.69354   0.75708   0.26770   0.00000  Uiso   1.00
H350   H     0.01448   0.77861   0.44243   0.00000  Uiso   1.00
H351   H     0.29412   0.95536   0.39866   0.00000  Uiso   1.00
H352   H     0.69891   0.64494   0.19194   0.00000  Uiso   1.00
H353   H     0.57355   0.47232   0.38513   0.00000  Uiso   1.00
H354   H     0.73447   0.45603   0.43284   0.00000  Uiso   1.00
H355   H     0.39283   0.53987   0.41209   0.00000  Uiso   1.00
H356   H     0.58480   0.39266   0.31406   0.00000  Uiso   1.00
H357   H     0.92622   0.48282   0.48006   0.00000  Uiso   1.00
H358   H     0.20585   0.65958   0.43629   0.00000  Uiso   1.00
H359   H     0.61065   0.34916   0.22957   0.00000  Uiso   1.00
O360   O     0.07805   0.62625   0.49185   0.00000  Uiso   1.00
O361   O     0.13295   0.85814   0.43442   0.00000  Uiso   1.00
O362   O     0.66404   0.45088   0.16321   0.00000  Uiso   1.00
N363   N     0.97164   0.71122   0.44473   0.00000  Uiso   1.00
N364   N     0.29815   0.87648   0.40382   0.00000  Uiso   1.00
N365   N     0.67657   0.58627   0.21055   0.00000  Uiso   1.00
N366   N     0.92415   0.55206   0.46498   0.00000  Uiso   1.00
N367   N     0.25065   0.71732   0.42406   0.00000  Uiso   1.00
N368   N     0.62908   0.42711   0.23080   0.00000  Uiso   1.00
