data_job_05312
_audit_creation_date              2018-12-19
_audit_creation_method            'Materials Studio'
_symmetry_space_group_name_H-M    'P1'
_symmetry_Int_Tables_number       1
_symmetry_cell_setting            triclinic
loop_
_symmetry_equiv_pos_as_xyz
  x,y,z
_cell_length_a                    9.4840
_cell_length_b                    25.8904
_cell_length_c                    24.1675
_cell_angle_alpha                 90.0000
_cell_angle_beta                  115.7844
_cell_angle_gamma                 90.0000
loop_
_atom_site_label
_atom_site_type_symbol
_atom_site_fract_x
_atom_site_fract_y
_atom_site_fract_z
_atom_site_U_iso_or_equiv
_atom_site_adp_type
_atom_site_occupancy
C1     C     0.54993   0.69562   0.63393   0.00000  Uiso   1.00
C2     C     0.50829   0.66610   0.67940   0.00000  Uiso   1.00
C3     C     0.55479   0.67911   0.74056   0.00000  Uiso   1.00
C4     C     0.50449   0.64716   0.77455   0.00000  Uiso   1.00
C5     C     0.45411   0.60791   0.84917   0.00000  Uiso   1.00
C6     C     0.62900   0.65666   0.60923   0.00000  Uiso   1.00
C7     C     0.77698   0.66174   0.61138   0.00000  Uiso   1.00
C8     C     0.82828   0.62185   0.58629   0.00000  Uiso   1.00
C9     C     0.96526   0.56797   0.55192   0.00000  Uiso   1.00
C10    C     0.39461   0.70935   0.57998   0.00000  Uiso   1.00
C11    C     0.34552   0.75873   0.55753   0.00000  Uiso   1.00
C12    C     0.19948   0.76320   0.50781   0.00000  Uiso   1.00
C13    C     0.97254   0.79112   0.42803   0.00000  Uiso   1.00
C14    C     0.37788   0.61573   0.58552   0.00000  Uiso   1.00
C15    C     0.41485   0.62271   0.65311   0.00000  Uiso   1.00
C16    C     0.36445   0.59073   0.68701   0.00000  Uiso   1.00
C17    C     0.41086   0.60369   0.74822   0.00000  Uiso   1.00
C18    C     0.53556   0.61327   0.58294   0.00000  Uiso   1.00
C19    C     0.58664   0.57336   0.55783   0.00000  Uiso   1.00
C20    C     0.73466   0.57838   0.55995   0.00000  Uiso   1.00
C21    C     0.30115   0.66596   0.55369   0.00000  Uiso   1.00
C22    C     0.15517   0.67035   0.50398   0.00000  Uiso   1.00
C23    C     0.10587   0.71973   0.48147   0.00000  Uiso   1.00
H24    H     0.62268   0.72939   0.65439   0.00000  Uiso   1.00
H25    H     0.62712   0.71269   0.76090   0.00000  Uiso   1.00
H26    H     0.84926   0.69533   0.63173   0.00000  Uiso   1.00
H27    H     0.41786   0.79230   0.57789   0.00000  Uiso   1.00
H28    H     0.59088   0.67502   0.86738   0.00000  Uiso   1.00
H29    H     0.05926   0.63842   0.59501   0.00000  Uiso   1.00
H30    H     0.14957   0.84291   0.48148   0.00000  Uiso   1.00
H31    H     0.30513   0.58195   0.56505   0.00000  Uiso   1.00
H32    H     0.29214   0.55715   0.66665   0.00000  Uiso   1.00
H33    H     0.51429   0.53979   0.53749   0.00000  Uiso   1.00
H34    H     0.08289   0.63676   0.48365   0.00000  Uiso   1.00
H35    H     0.31900   0.54878   0.79090   0.00000  Uiso   1.00
H36    H     0.78738   0.51218   0.51852   0.00000  Uiso   1.00
H37    H     0.87769   0.71667   0.40499   0.00000  Uiso   1.00
O38    O     0.45216   0.59824   0.89759   0.00000  Uiso   1.00
O39    O     0.06665   0.55023   0.54024   0.00000  Uiso   1.00
O40    O     0.87316   0.81851   0.39129   0.00000  Uiso   1.00
N41    N     0.52865   0.64872   0.83544   0.00000  Uiso   1.00
N42    N     0.96657   0.61450   0.58079   0.00000  Uiso   1.00
N43    N     0.11610   0.80567   0.47464   0.00000  Uiso   1.00
N44    N     0.38235   0.58079   0.79428   0.00000  Uiso   1.00
N45    N     0.82027   0.54657   0.53963   0.00000  Uiso   1.00
N46    N     0.96981   0.73774   0.43348   0.00000  Uiso   1.00
C47    C     0.93862   0.19020   0.20504   0.00000  Uiso   1.00
C48    C     0.89987   0.16088   0.25141   0.00000  Uiso   1.00
C49    C     0.95076   0.17377   0.31286   0.00000  Uiso   1.00
C50    C     0.90252   0.14205   0.34769   0.00000  Uiso   1.00
C51    C     0.85697   0.10307   0.42362   0.00000  Uiso   1.00
C52    C     0.01347   0.15091   0.17895   0.00000  Uiso   1.00
C53    C     0.15986   0.15541   0.17946   0.00000  Uiso   1.00
C54    C     0.20722   0.11529   0.15329   0.00000  Uiso   1.00
C55    C     0.33799   0.06084   0.11669   0.00000  Uiso   1.00
C56    C     0.78181   0.20449   0.15226   0.00000  Uiso   1.00
C57    C     0.73342   0.25405   0.13033   0.00000  Uiso   1.00
C58    C     0.58576   0.25905   0.08168   0.00000  Uiso   1.00
C59    C     0.35684   0.28780   0.00364   0.00000  Uiso   1.00
C60    C     0.76245   0.11096   0.15763   0.00000  Uiso   1.00
C61    C     0.80419   0.11784   0.22566   0.00000  Uiso   1.00
C62    C     0.75584   0.08610   0.26041   0.00000  Uiso   1.00
C63    C     0.80665   0.09893   0.32190   0.00000  Uiso   1.00
C64    C     0.91779   0.10787   0.15320   0.00000  Uiso   1.00
C65    C     0.96494   0.06774   0.12702   0.00000  Uiso   1.00
C66    C     0.11136   0.07217   0.12750   0.00000  Uiso   1.00
C67    C     0.68611   0.16145   0.12652   0.00000  Uiso   1.00
C68    C     0.53851   0.16638   0.07789   0.00000  Uiso   1.00
C69    C     0.48990   0.21593   0.05589   0.00000  Uiso   1.00
H70    H     0.01313   0.22370   0.22508   0.00000  Uiso   1.00
H71    H     0.02482   0.20708   0.33277   0.00000  Uiso   1.00
H72    H     0.23387   0.18872   0.19939   0.00000  Uiso   1.00
H73    H     0.80750   0.28735   0.15026   0.00000  Uiso   1.00
H74    H     0.99564   0.16965   0.44081   0.00000  Uiso   1.00
H75    H     0.43641   0.13095   0.15956   0.00000  Uiso   1.00
H76    H     0.53733   0.33893   0.05597   0.00000  Uiso   1.00
H77    H     0.68795   0.07745   0.13759   0.00000  Uiso   1.00
H78    H     0.68180   0.05279   0.24048   0.00000  Uiso   1.00
H79    H     0.89086   0.03444   0.10710   0.00000  Uiso   1.00
H80    H     0.46449   0.13306   0.05797   0.00000  Uiso   1.00
H81    H     0.71723   0.04443   0.36590   0.00000  Uiso   1.00
H82    H     0.15801   0.00573   0.08465   0.00000  Uiso   1.00
H83    H     0.25893   0.21370   0.98106   0.00000  Uiso   1.00
O84    O     0.85830   0.09345   0.47262   0.00000  Uiso   1.00
O85    O     0.43657   0.04269   0.10362   0.00000  Uiso   1.00
O86    O     0.25699   0.31554   0.96772   0.00000  Uiso   1.00
N87    N     0.93093   0.14357   0.40906   0.00000  Uiso   1.00
N88    N     0.34304   0.10739   0.14611   0.00000  Uiso   1.00
N89    N     0.50250   0.30182   0.04925   0.00000  Uiso   1.00
N90    N     0.78112   0.07619   0.36875   0.00000  Uiso   1.00
N91    N     0.19324   0.04001   0.10580   0.00000  Uiso   1.00
N92    N     0.35269   0.23444   0.00895   0.00000  Uiso   1.00
C93    C     0.45007   0.19562   0.86607   0.00000  Uiso   1.00
C94    C     0.49171   0.16610   0.82060   0.00000  Uiso   1.00
C95    C     0.44521   0.17911   0.75944   0.00000  Uiso   1.00
C96    C     0.49551   0.14716   0.72545   0.00000  Uiso   1.00
C97    C     0.54589   0.10791   0.65083   0.00000  Uiso   1.00
C98    C     0.37100   0.15666   0.89077   0.00000  Uiso   1.00
C99    C     0.22302   0.16174   0.88862   0.00000  Uiso   1.00
C100   C     0.17172   0.12185   0.91371   0.00000  Uiso   1.00
C101   C     0.03474   0.06797   0.94808   0.00000  Uiso   1.00
C102   C     0.60539   0.20935   0.92002   0.00000  Uiso   1.00
C103   C     0.65448   0.25873   0.94247   0.00000  Uiso   1.00
C104   C     0.80052   0.26320   0.99219   0.00000  Uiso   1.00
C105   C     0.02746   0.29112   0.07197   0.00000  Uiso   1.00
C106   C     0.62212   0.11573   0.91448   0.00000  Uiso   1.00
C107   C     0.58515   0.12271   0.84689   0.00000  Uiso   1.00
C108   C     0.63555   0.09073   0.81299   0.00000  Uiso   1.00
C109   C     0.58914   0.10369   0.75178   0.00000  Uiso   1.00
C110   C     0.46444   0.11327   0.91706   0.00000  Uiso   1.00
C111   C     0.41336   0.07336   0.94217   0.00000  Uiso   1.00
C112   C     0.26534   0.07838   0.94005   0.00000  Uiso   1.00
C113   C     0.69885   0.16596   0.94631   0.00000  Uiso   1.00
C114   C     0.84483   0.17035   0.99602   0.00000  Uiso   1.00
C115   C     0.89413   0.21973   0.01853   0.00000  Uiso   1.00
H116   H     0.37732   0.22939   0.84561   0.00000  Uiso   1.00
H117   H     0.37288   0.21269   0.73910   0.00000  Uiso   1.00
H118   H     0.15074   0.19533   0.86827   0.00000  Uiso   1.00
H119   H     0.58214   0.29230   0.92211   0.00000  Uiso   1.00
H120   H     0.40912   0.17502   0.63262   0.00000  Uiso   1.00
H121   H     0.94074   0.13842   0.90499   0.00000  Uiso   1.00
H122   H     0.85043   0.34291   0.01852   0.00000  Uiso   1.00
H123   H     0.69487   0.08195   0.93495   0.00000  Uiso   1.00
H124   H     0.70786   0.05715   0.83335   0.00000  Uiso   1.00
H125   H     0.48571   0.03979   0.96251   0.00000  Uiso   1.00
H126   H     0.91711   0.13676   0.01635   0.00000  Uiso   1.00
H127   H     0.68100   0.04878   0.70910   0.00000  Uiso   1.00
H128   H     0.21262   0.01218   0.98148   0.00000  Uiso   1.00
H129   H     0.12231   0.21667   0.09501   0.00000  Uiso   1.00
O130   O     0.54784   0.09824   0.60241   0.00000  Uiso   1.00
O131   O     0.93335   0.05023   0.95976   0.00000  Uiso   1.00
O132   O     0.12684   0.31851   0.10871   0.00000  Uiso   1.00
N133   N     0.47135   0.14872   0.66456   0.00000  Uiso   1.00
N134   N     0.03343   0.11450   0.91921   0.00000  Uiso   1.00
N135   N     0.88390   0.30567   0.02536   0.00000  Uiso   1.00
N136   N     0.61765   0.08079   0.70572   0.00000  Uiso   1.00
N137   N     0.17973   0.04657   0.96037   0.00000  Uiso   1.00
N138   N     0.03019   0.23774   0.06652   0.00000  Uiso   1.00
C139   C     0.06138   0.69020   0.29496   0.00000  Uiso   1.00
C140   C     0.10013   0.66088   0.24859   0.00000  Uiso   1.00
C141   C     0.04924   0.67377   0.18714   0.00000  Uiso   1.00
C142   C     0.09748   0.64205   0.15231   0.00000  Uiso   1.00
C143   C     0.14303   0.60307   0.07638   0.00000  Uiso   1.00
C144   C     0.98653   0.65091   0.32105   0.00000  Uiso   1.00
C145   C     0.84014   0.65541   0.32054   0.00000  Uiso   1.00
C146   C     0.79278   0.61529   0.34671   0.00000  Uiso   1.00
C147   C     0.66201   0.56084   0.38331   0.00000  Uiso   1.00
C148   C     0.21819   0.70449   0.34774   0.00000  Uiso   1.00
C149   C     0.26658   0.75405   0.36967   0.00000  Uiso   1.00
C150   C     0.41424   0.75905   0.41832   0.00000  Uiso   1.00
C151   C     0.64316   0.78780   0.49636   0.00000  Uiso   1.00
C152   C     0.23755   0.61096   0.34237   0.00000  Uiso   1.00
C153   C     0.19581   0.61784   0.27434   0.00000  Uiso   1.00
C154   C     0.24416   0.58610   0.23959   0.00000  Uiso   1.00
C155   C     0.19335   0.59893   0.17810   0.00000  Uiso   1.00
C156   C     0.08221   0.60787   0.34680   0.00000  Uiso   1.00
C157   C     0.03506   0.56774   0.37298   0.00000  Uiso   1.00
C158   C     0.88864   0.57217   0.37250   0.00000  Uiso   1.00
C159   C     0.31389   0.66145   0.37348   0.00000  Uiso   1.00
C160   C     0.46149   0.66638   0.42211   0.00000  Uiso   1.00
C161   C     0.51010   0.71593   0.44411   0.00000  Uiso   1.00
H162   H     0.98687   0.72370   0.27492   0.00000  Uiso   1.00
H163   H     0.97518   0.70708   0.16723   0.00000  Uiso   1.00
H164   H     0.76613   0.68872   0.30061   0.00000  Uiso   1.00
H165   H     0.19250   0.78735   0.34974   0.00000  Uiso   1.00
H166   H     0.00436   0.66965   0.05919   0.00000  Uiso   1.00
H167   H     0.56359   0.63095   0.34044   0.00000  Uiso   1.00
H168   H     0.46267   0.83893   0.44403   0.00000  Uiso   1.00
H169   H     0.31205   0.57745   0.36241   0.00000  Uiso   1.00
H170   H     0.31820   0.55279   0.25952   0.00000  Uiso   1.00
H171   H     0.10914   0.53444   0.39290   0.00000  Uiso   1.00
H172   H     0.53551   0.63306   0.44203   0.00000  Uiso   1.00
H173   H     0.28277   0.54443   0.13410   0.00000  Uiso   1.00
H174   H     0.84199   0.50573   0.41535   0.00000  Uiso   1.00
H175   H     0.74107   0.71370   0.51894   0.00000  Uiso   1.00
O176   O     0.14170   0.59345   0.02738   0.00000  Uiso   1.00
O177   O     0.56343   0.54269   0.39638   0.00000  Uiso   1.00
O178   O     0.74301   0.81554   0.53228   0.00000  Uiso   1.00
N179   N     0.06907   0.64357   0.09094   0.00000  Uiso   1.00
N180   N     0.65696   0.60739   0.35389   0.00000  Uiso   1.00
N181   N     0.49750   0.80182   0.45075   0.00000  Uiso   1.00
N182   N     0.21888   0.57619   0.13125   0.00000  Uiso   1.00
N183   N     0.80676   0.54001   0.39420   0.00000  Uiso   1.00
N184   N     0.64731   0.73444   0.49105   0.00000  Uiso   1.00
C185   C     0.45007   0.30438   0.36607   0.00000  Uiso   1.00
C186   C     0.49171   0.33390   0.32060   0.00000  Uiso   1.00
C187   C     0.44521   0.32089   0.25944   0.00000  Uiso   1.00
C188   C     0.49551   0.35284   0.22545   0.00000  Uiso   1.00
C189   C     0.54589   0.39209   0.15083   0.00000  Uiso   1.00
C190   C     0.37100   0.34334   0.39077   0.00000  Uiso   1.00
C191   C     0.22302   0.33826   0.38862   0.00000  Uiso   1.00
C192   C     0.17172   0.37815   0.41371   0.00000  Uiso   1.00
C193   C     0.03474   0.43203   0.44808   0.00000  Uiso   1.00
C194   C     0.60539   0.29065   0.42002   0.00000  Uiso   1.00
C195   C     0.65448   0.24127   0.44247   0.00000  Uiso   1.00
C196   C     0.80052   0.23680   0.49219   0.00000  Uiso   1.00
C197   C     0.02746   0.20888   0.57197   0.00000  Uiso   1.00
C198   C     0.62212   0.38427   0.41448   0.00000  Uiso   1.00
C199   C     0.58515   0.37729   0.34689   0.00000  Uiso   1.00
C200   C     0.63555   0.40927   0.31299   0.00000  Uiso   1.00
C201   C     0.58914   0.39631   0.25178   0.00000  Uiso   1.00
C202   C     0.46444   0.38673   0.41706   0.00000  Uiso   1.00
C203   C     0.41336   0.42664   0.44217   0.00000  Uiso   1.00
C204   C     0.26534   0.42162   0.44005   0.00000  Uiso   1.00
C205   C     0.69885   0.33404   0.44631   0.00000  Uiso   1.00
C206   C     0.84483   0.32965   0.49602   0.00000  Uiso   1.00
C207   C     0.89413   0.28027   0.51853   0.00000  Uiso   1.00
H208   H     0.37732   0.27061   0.34561   0.00000  Uiso   1.00
H209   H     0.37288   0.28731   0.23910   0.00000  Uiso   1.00
H210   H     0.15074   0.30467   0.36827   0.00000  Uiso   1.00
H211   H     0.58214   0.20770   0.42211   0.00000  Uiso   1.00
H212   H     0.40912   0.32498   0.13262   0.00000  Uiso   1.00
H213   H     0.94074   0.36158   0.40499   0.00000  Uiso   1.00
H214   H     0.85043   0.15709   0.51852   0.00000  Uiso   1.00
H215   H     0.69487   0.41805   0.43495   0.00000  Uiso   1.00
H216   H     0.70786   0.44285   0.33335   0.00000  Uiso   1.00
H217   H     0.48571   0.46021   0.46251   0.00000  Uiso   1.00
H218   H     0.91711   0.36324   0.51635   0.00000  Uiso   1.00
H219   H     0.68100   0.45122   0.20910   0.00000  Uiso   1.00
H220   H     0.21262   0.48782   0.48148   0.00000  Uiso   1.00
H221   H     0.12231   0.28333   0.59501   0.00000  Uiso   1.00
O222   O     0.54784   0.40176   0.10241   0.00000  Uiso   1.00
O223   O     0.93335   0.44977   0.45976   0.00000  Uiso   1.00
O224   O     0.12684   0.18149   0.60871   0.00000  Uiso   1.00
N225   N     0.47135   0.35128   0.16456   0.00000  Uiso   1.00
N226   N     0.03343   0.38550   0.41921   0.00000  Uiso   1.00
N227   N     0.88390   0.19433   0.52536   0.00000  Uiso   1.00
N228   N     0.61765   0.41921   0.20572   0.00000  Uiso   1.00
N229   N     0.17973   0.45343   0.46037   0.00000  Uiso   1.00
N230   N     0.03019   0.26226   0.56652   0.00000  Uiso   1.00
C231   C     0.06138   0.80980   0.79496   0.00000  Uiso   1.00
C232   C     0.10013   0.83912   0.74859   0.00000  Uiso   1.00
C233   C     0.04924   0.82623   0.68714   0.00000  Uiso   1.00
C234   C     0.09748   0.85795   0.65231   0.00000  Uiso   1.00
C235   C     0.14303   0.89693   0.57638   0.00000  Uiso   1.00
C236   C     0.98653   0.84909   0.82105   0.00000  Uiso   1.00
C237   C     0.84014   0.84459   0.82054   0.00000  Uiso   1.00
C238   C     0.79278   0.88471   0.84671   0.00000  Uiso   1.00
C239   C     0.66201   0.93916   0.88331   0.00000  Uiso   1.00
C240   C     0.21819   0.79551   0.84774   0.00000  Uiso   1.00
C241   C     0.26658   0.74595   0.86967   0.00000  Uiso   1.00
C242   C     0.41424   0.74095   0.91832   0.00000  Uiso   1.00
C243   C     0.64316   0.71220   0.99636   0.00000  Uiso   1.00
C244   C     0.23755   0.88904   0.84237   0.00000  Uiso   1.00
C245   C     0.19581   0.88216   0.77434   0.00000  Uiso   1.00
C246   C     0.24416   0.91390   0.73959   0.00000  Uiso   1.00
C247   C     0.19335   0.90107   0.67810   0.00000  Uiso   1.00
C248   C     0.08221   0.89213   0.84680   0.00000  Uiso   1.00
C249   C     0.03506   0.93226   0.87298   0.00000  Uiso   1.00
C250   C     0.88864   0.92783   0.87250   0.00000  Uiso   1.00
C251   C     0.31389   0.83855   0.87348   0.00000  Uiso   1.00
C252   C     0.46149   0.83362   0.92211   0.00000  Uiso   1.00
C253   C     0.51010   0.78407   0.94411   0.00000  Uiso   1.00
H254   H     0.98687   0.77630   0.77492   0.00000  Uiso   1.00
H255   H     0.97518   0.79292   0.66723   0.00000  Uiso   1.00
H256   H     0.76613   0.81128   0.80061   0.00000  Uiso   1.00
H257   H     0.19250   0.71265   0.84974   0.00000  Uiso   1.00
H258   H     0.00436   0.83035   0.55919   0.00000  Uiso   1.00
H259   H     0.56359   0.86905   0.84044   0.00000  Uiso   1.00
H260   H     0.46267   0.66107   0.94403   0.00000  Uiso   1.00
H261   H     0.31205   0.92255   0.86241   0.00000  Uiso   1.00
H262   H     0.31820   0.94721   0.75952   0.00000  Uiso   1.00
H263   H     0.10914   0.96556   0.89290   0.00000  Uiso   1.00
H264   H     0.53551   0.86694   0.94203   0.00000  Uiso   1.00
H265   H     0.28277   0.95557   0.63410   0.00000  Uiso   1.00
H266   H     0.84199   0.99427   0.91535   0.00000  Uiso   1.00
H267   H     0.74107   0.78630   0.01894   0.00000  Uiso   1.00
O268   O     0.14170   0.90655   0.52738   0.00000  Uiso   1.00
O269   O     0.56343   0.95731   0.89638   0.00000  Uiso   1.00
O270   O     0.74301   0.68446   0.03228   0.00000  Uiso   1.00
N271   N     0.06907   0.85643   0.59094   0.00000  Uiso   1.00
N272   N     0.65696   0.89261   0.85389   0.00000  Uiso   1.00
N273   N     0.49750   0.69818   0.95075   0.00000  Uiso   1.00
N274   N     0.21888   0.92381   0.63125   0.00000  Uiso   1.00
N275   N     0.80676   0.95999   0.89420   0.00000  Uiso   1.00
N276   N     0.64731   0.76556   0.99105   0.00000  Uiso   1.00
C277   C     0.54993   0.80438   0.13393   0.00000  Uiso   1.00
C278   C     0.50829   0.83390   0.17940   0.00000  Uiso   1.00
C279   C     0.55479   0.82089   0.24056   0.00000  Uiso   1.00
C280   C     0.50449   0.85284   0.27455   0.00000  Uiso   1.00
C281   C     0.45411   0.89209   0.34917   0.00000  Uiso   1.00
C282   C     0.62900   0.84334   0.10923   0.00000  Uiso   1.00
C283   C     0.77698   0.83826   0.11138   0.00000  Uiso   1.00
C284   C     0.82828   0.87815   0.08629   0.00000  Uiso   1.00
C285   C     0.96526   0.93203   0.05192   0.00000  Uiso   1.00
C286   C     0.39461   0.79065   0.07998   0.00000  Uiso   1.00
C287   C     0.34552   0.74127   0.05753   0.00000  Uiso   1.00
C288   C     0.19948   0.73680   0.00781   0.00000  Uiso   1.00
C289   C     0.97254   0.70888   0.92803   0.00000  Uiso   1.00
C290   C     0.37788   0.88427   0.08552   0.00000  Uiso   1.00
C291   C     0.41485   0.87729   0.15311   0.00000  Uiso   1.00
C292   C     0.36445   0.90927   0.18701   0.00000  Uiso   1.00
C293   C     0.41086   0.89631   0.24822   0.00000  Uiso   1.00
C294   C     0.53556   0.88673   0.08294   0.00000  Uiso   1.00
C295   C     0.58664   0.92664   0.05783   0.00000  Uiso   1.00
C296   C     0.73466   0.92162   0.05995   0.00000  Uiso   1.00
C297   C     0.30115   0.83404   0.05369   0.00000  Uiso   1.00
C298   C     0.15517   0.82965   0.00398   0.00000  Uiso   1.00
C299   C     0.10587   0.78027   0.98147   0.00000  Uiso   1.00
H300   H     0.62268   0.77061   0.15439   0.00000  Uiso   1.00
H301   H     0.62712   0.78731   0.26090   0.00000  Uiso   1.00
H302   H     0.84926   0.80467   0.13173   0.00000  Uiso   1.00
H303   H     0.41786   0.70770   0.07789   0.00000  Uiso   1.00
H304   H     0.59088   0.82498   0.36738   0.00000  Uiso   1.00
H305   H     0.05926   0.86158   0.09501   0.00000  Uiso   1.00
H306   H     0.14957   0.65709   0.98148   0.00000  Uiso   1.00
H307   H     0.30513   0.91805   0.06505   0.00000  Uiso   1.00
H308   H     0.29214   0.94285   0.16665   0.00000  Uiso   1.00
H309   H     0.51429   0.96021   0.03749   0.00000  Uiso   1.00
H310   H     0.08289   0.86324   0.98365   0.00000  Uiso   1.00
H311   H     0.31900   0.95122   0.29090   0.00000  Uiso   1.00
H312   H     0.78738   0.98782   0.01852   0.00000  Uiso   1.00
H313   H     0.87769   0.78333   0.90499   0.00000  Uiso   1.00
O314   O     0.45216   0.90176   0.39759   0.00000  Uiso   1.00
O315   O     0.06665   0.94977   0.04024   0.00000  Uiso   1.00
O316   O     0.87316   0.68149   0.89129   0.00000  Uiso   1.00
N317   N     0.52865   0.85128   0.33544   0.00000  Uiso   1.00
N318   N     0.96657   0.88550   0.08079   0.00000  Uiso   1.00
N319   N     0.11610   0.69433   0.97464   0.00000  Uiso   1.00
N320   N     0.38235   0.91921   0.29428   0.00000  Uiso   1.00
N321   N     0.82027   0.95343   0.03963   0.00000  Uiso   1.00
N322   N     0.96981   0.76226   0.93348   0.00000  Uiso   1.00
C323   C     0.93862   0.30980   0.70504   0.00000  Uiso   1.00
C324   C     0.89987   0.33912   0.75141   0.00000  Uiso   1.00
C325   C     0.95076   0.32623   0.81286   0.00000  Uiso   1.00
C326   C     0.90252   0.35795   0.84769   0.00000  Uiso   1.00
C327   C     0.85697   0.39693   0.92362   0.00000  Uiso   1.00
C328   C     0.01347   0.34909   0.67895   0.00000  Uiso   1.00
C329   C     0.15986   0.34459   0.67946   0.00000  Uiso   1.00
C330   C     0.20722   0.38471   0.65329   0.00000  Uiso   1.00
C331   C     0.33799   0.43916   0.61669   0.00000  Uiso   1.00
C332   C     0.78181   0.29551   0.65226   0.00000  Uiso   1.00
C333   C     0.73342   0.24595   0.63033   0.00000  Uiso   1.00
C334   C     0.58576   0.24095   0.58168   0.00000  Uiso   1.00
C335   C     0.35684   0.21220   0.50364   0.00000  Uiso   1.00
C336   C     0.76245   0.38904   0.65763   0.00000  Uiso   1.00
C337   C     0.80419   0.38216   0.72566   0.00000  Uiso   1.00
C338   C     0.75584   0.41390   0.76041   0.00000  Uiso   1.00
C339   C     0.80665   0.40107   0.82190   0.00000  Uiso   1.00
C340   C     0.91779   0.39213   0.65320   0.00000  Uiso   1.00
C341   C     0.96494   0.43226   0.62702   0.00000  Uiso   1.00
C342   C     0.11136   0.42783   0.62750   0.00000  Uiso   1.00
C343   C     0.68611   0.33855   0.62652   0.00000  Uiso   1.00
C344   C     0.53851   0.33362   0.57789   0.00000  Uiso   1.00
C345   C     0.48990   0.28407   0.55589   0.00000  Uiso   1.00
H346   H     0.01313   0.27630   0.72508   0.00000  Uiso   1.00
H347   H     0.02482   0.29292   0.83277   0.00000  Uiso   1.00
H348   H     0.23387   0.31128   0.69939   0.00000  Uiso   1.00
H349   H     0.80750   0.21265   0.65026   0.00000  Uiso   1.00
H350   H     0.99564   0.33035   0.94081   0.00000  Uiso   1.00
H351   H     0.43641   0.36905   0.65956   0.00000  Uiso   1.00
H352   H     0.53733   0.16107   0.55597   0.00000  Uiso   1.00
H353   H     0.68795   0.42255   0.63759   0.00000  Uiso   1.00
H354   H     0.68180   0.44721   0.74048   0.00000  Uiso   1.00
H355   H     0.89086   0.46556   0.60710   0.00000  Uiso   1.00
H356   H     0.46449   0.36694   0.55797   0.00000  Uiso   1.00
H357   H     0.71723   0.45557   0.86590   0.00000  Uiso   1.00
H358   H     0.15801   0.49427   0.58465   0.00000  Uiso   1.00
H359   H     0.25893   0.28630   0.48106   0.00000  Uiso   1.00
O360   O     0.85830   0.40655   0.97262   0.00000  Uiso   1.00
O361   O     0.43657   0.45731   0.60362   0.00000  Uiso   1.00
O362   O     0.25699   0.18446   0.46772   0.00000  Uiso   1.00
N363   N     0.93093   0.35643   0.90906   0.00000  Uiso   1.00
N364   N     0.34304   0.39261   0.64611   0.00000  Uiso   1.00
N365   N     0.50250   0.19818   0.54925   0.00000  Uiso   1.00
N366   N     0.78112   0.42381   0.86875   0.00000  Uiso   1.00
N367   N     0.19324   0.45999   0.60580   0.00000  Uiso   1.00
N368   N     0.35269   0.26556   0.50895   0.00000  Uiso   1.00
