data_job_00481
_audit_creation_date              2018-12-19
_audit_creation_method            'Materials Studio'
_symmetry_space_group_name_H-M    'P1'
_symmetry_Int_Tables_number       1
_symmetry_cell_setting            triclinic
loop_
_symmetry_equiv_pos_as_xyz
  x,y,z
_cell_length_a                    12.7667
_cell_length_b                    12.1676
_cell_length_c                    20.3171
_cell_angle_alpha                 90.0000
_cell_angle_beta                  122.8786
_cell_angle_gamma                 90.0000
loop_
_atom_site_label
_atom_site_type_symbol
_atom_site_fract_x
_atom_site_fract_y
_atom_site_fract_z
_atom_site_U_iso_or_equiv
_atom_site_adp_type
_atom_site_occupancy
C1     C     0.37344   0.88244   0.42875   0.00000  Uiso   1.00
C2     C     0.31523   0.82294   0.46738   0.00000  Uiso   1.00
C3     C     0.31998   0.85735   0.53407   0.00000  Uiso   1.00
C4     C     0.26093   0.79142   0.56018   0.00000  Uiso   1.00
C5     C     0.17996   0.71374   0.62615   0.00000  Uiso   1.00
C6     C     0.45994   0.79949   0.42535   0.00000  Uiso   1.00
C7     C     0.58635   0.81420   0.45671   0.00000  Uiso   1.00
C8     C     0.64910   0.72853   0.44744   0.00000  Uiso   1.00
C9     C     0.79276   0.61447   0.44812   0.00000  Uiso   1.00
C10    C     0.26751   0.90270   0.34403   0.00000  Uiso   1.00
C11    C     0.23215   0.00419   0.30699   0.00000  Uiso   1.00
C12    C     0.13291   0.00541   0.22924   0.00000  Uiso   1.00
C13    C     0.97781   0.05160   0.10364   0.00000  Uiso   1.00
C14    C     0.26012   0.70415   0.35652   0.00000  Uiso   1.00
C15    C     0.25368   0.72610   0.42814   0.00000  Uiso   1.00
C16    C     0.19460   0.66010   0.45416   0.00000  Uiso   1.00
C17    C     0.19926   0.69441   0.52088   0.00000  Uiso   1.00
C18    C     0.39839   0.70265   0.38612   0.00000  Uiso   1.00
C19    C     0.46096   0.61694   0.37680   0.00000  Uiso   1.00
C20    C     0.58744   0.63151   0.40814   0.00000  Uiso   1.00
C21    C     0.20595   0.80586   0.30479   0.00000  Uiso   1.00
C22    C     0.10676   0.80693   0.22708   0.00000  Uiso   1.00
C23    C     0.07125   0.90840   0.18993   0.00000  Uiso   1.00
H24    H     0.42137   0.95783   0.45929   0.00000  Uiso   1.00
H25    H     0.36764   0.93230   0.56442   0.00000  Uiso   1.00
H26    H     0.63395   0.88915   0.48706   0.00000  Uiso   1.00
H27    H     0.27981   0.07910   0.33737   0.00000  Uiso   1.00
H28    H     0.28096   0.86126   0.66368   0.00000  Uiso   1.00
H29    H     0.84249   0.77030   0.50055   0.00000  Uiso   1.00
H30    H     0.09571   0.17086   0.18489   0.00000  Uiso   1.00
H31    H     0.21219   0.62875   0.32598   0.00000  Uiso   1.00
H32    H     0.14697   0.58516   0.42379   0.00000  Uiso   1.00
H33    H     0.41330   0.54202   0.34643   0.00000  Uiso   1.00
H34    H     0.05915   0.73197   0.19674   0.00000  Uiso   1.00
H35    H     0.10187   0.57952   0.54954   0.00000  Uiso   1.00
H36    H     0.66340   0.48856   0.38641   0.00000  Uiso   1.00
H37    H     0.91661   0.88912   0.07075   0.00000  Uiso   1.00
O38    O     0.15232   0.69764   0.67338   0.00000  Uiso   1.00
O39    O     0.88902   0.57831   0.45934   0.00000  Uiso   1.00
O40    O     0.90926   0.10383   0.04521   0.00000  Uiso   1.00
N41    N     0.24774   0.80095   0.62339   0.00000  Uiso   1.00
N42    N     0.77274   0.71590   0.47088   0.00000  Uiso   1.00
N43    N     0.07458   0.09039   0.17576   0.00000  Uiso   1.00
N44    N     0.15137   0.64934   0.56197   0.00000  Uiso   1.00
N45    N     0.67637   0.56429   0.40946   0.00000  Uiso   1.00
N46    N     0.97821   0.93878   0.11434   0.00000  Uiso   1.00
C47    C     0.62656   0.88244   0.07125   0.00000  Uiso   1.00
C48    C     0.68477   0.82294   0.03262   0.00000  Uiso   1.00
C49    C     0.68002   0.85735   0.96593   0.00000  Uiso   1.00
C50    C     0.73907   0.79142   0.93982   0.00000  Uiso   1.00
C51    C     0.82004   0.71374   0.87385   0.00000  Uiso   1.00
C52    C     0.54006   0.79949   0.07465   0.00000  Uiso   1.00
C53    C     0.41365   0.81420   0.04329   0.00000  Uiso   1.00
C54    C     0.35090   0.72853   0.05256   0.00000  Uiso   1.00
C55    C     0.20724   0.61447   0.05188   0.00000  Uiso   1.00
C56    C     0.73249   0.90270   0.15597   0.00000  Uiso   1.00
C57    C     0.76785   0.00419   0.19301   0.00000  Uiso   1.00
C58    C     0.86709   0.00541   0.27076   0.00000  Uiso   1.00
C59    C     0.02219   0.05160   0.39636   0.00000  Uiso   1.00
C60    C     0.73988   0.70415   0.14348   0.00000  Uiso   1.00
C61    C     0.74632   0.72610   0.07186   0.00000  Uiso   1.00
C62    C     0.80540   0.66010   0.04584   0.00000  Uiso   1.00
C63    C     0.80074   0.69441   0.97912   0.00000  Uiso   1.00
C64    C     0.60161   0.70265   0.11388   0.00000  Uiso   1.00
C65    C     0.53904   0.61694   0.12320   0.00000  Uiso   1.00
C66    C     0.41256   0.63151   0.09186   0.00000  Uiso   1.00
C67    C     0.79405   0.80586   0.19521   0.00000  Uiso   1.00
C68    C     0.89324   0.80693   0.27292   0.00000  Uiso   1.00
C69    C     0.92875   0.90840   0.31007   0.00000  Uiso   1.00
H70    H     0.57863   0.95783   0.04071   0.00000  Uiso   1.00
H71    H     0.63236   0.93230   0.93558   0.00000  Uiso   1.00
H72    H     0.36605   0.88915   0.01294   0.00000  Uiso   1.00
H73    H     0.72019   0.07910   0.16263   0.00000  Uiso   1.00
H74    H     0.71904   0.86126   0.83632   0.00000  Uiso   1.00
H75    H     0.15751   0.77030   0.99945   0.00000  Uiso   1.00
H76    H     0.90429   0.17086   0.31511   0.00000  Uiso   1.00
H77    H     0.78781   0.62875   0.17402   0.00000  Uiso   1.00
H78    H     0.85303   0.58516   0.07621   0.00000  Uiso   1.00
H79    H     0.58670   0.54202   0.15357   0.00000  Uiso   1.00
H80    H     0.94085   0.73197   0.30326   0.00000  Uiso   1.00
H81    H     0.89813   0.57952   0.95046   0.00000  Uiso   1.00
H82    H     0.33660   0.48856   0.11359   0.00000  Uiso   1.00
H83    H     0.08339   0.88912   0.42925   0.00000  Uiso   1.00
O84    O     0.84768   0.69764   0.82662   0.00000  Uiso   1.00
O85    O     0.11098   0.57831   0.04066   0.00000  Uiso   1.00
O86    O     0.09074   0.10383   0.45479   0.00000  Uiso   1.00
N87    N     0.75226   0.80095   0.87661   0.00000  Uiso   1.00
N88    N     0.22726   0.71590   0.02912   0.00000  Uiso   1.00
N89    N     0.92542   0.09039   0.32424   0.00000  Uiso   1.00
N90    N     0.84863   0.64934   0.93803   0.00000  Uiso   1.00
N91    N     0.32363   0.56429   0.09054   0.00000  Uiso   1.00
N92    N     0.02179   0.93878   0.38566   0.00000  Uiso   1.00
C93    C     0.62656   0.11756   0.57125   0.00000  Uiso   1.00
C94    C     0.68477   0.17706   0.53262   0.00000  Uiso   1.00
C95    C     0.68002   0.14265   0.46593   0.00000  Uiso   1.00
C96    C     0.73907   0.20858   0.43982   0.00000  Uiso   1.00
C97    C     0.82004   0.28626   0.37385   0.00000  Uiso   1.00
C98    C     0.54006   0.20051   0.57465   0.00000  Uiso   1.00
C99    C     0.41365   0.18580   0.54329   0.00000  Uiso   1.00
C100   C     0.35090   0.27147   0.55256   0.00000  Uiso   1.00
C101   C     0.20724   0.38553   0.55188   0.00000  Uiso   1.00
C102   C     0.73249   0.09730   0.65597   0.00000  Uiso   1.00
C103   C     0.76785   0.99581   0.69301   0.00000  Uiso   1.00
C104   C     0.86709   0.99459   0.77076   0.00000  Uiso   1.00
C105   C     0.02219   0.94840   0.89636   0.00000  Uiso   1.00
C106   C     0.73988   0.29585   0.64348   0.00000  Uiso   1.00
C107   C     0.74632   0.27390   0.57186   0.00000  Uiso   1.00
C108   C     0.80540   0.33990   0.54584   0.00000  Uiso   1.00
C109   C     0.80074   0.30559   0.47912   0.00000  Uiso   1.00
C110   C     0.60161   0.29735   0.61388   0.00000  Uiso   1.00
C111   C     0.53904   0.38306   0.62320   0.00000  Uiso   1.00
C112   C     0.41256   0.36849   0.59186   0.00000  Uiso   1.00
C113   C     0.79405   0.19414   0.69521   0.00000  Uiso   1.00
C114   C     0.89324   0.19307   0.77292   0.00000  Uiso   1.00
C115   C     0.92875   0.09160   0.81007   0.00000  Uiso   1.00
H116   H     0.57863   0.04217   0.54071   0.00000  Uiso   1.00
H117   H     0.63236   0.06770   0.43558   0.00000  Uiso   1.00
H118   H     0.36605   0.11085   0.51294   0.00000  Uiso   1.00
H119   H     0.72019   0.92090   0.66263   0.00000  Uiso   1.00
H120   H     0.71904   0.13874   0.33632   0.00000  Uiso   1.00
H121   H     0.15751   0.22970   0.49945   0.00000  Uiso   1.00
H122   H     0.90429   0.82914   0.81511   0.00000  Uiso   1.00
H123   H     0.78781   0.37125   0.67402   0.00000  Uiso   1.00
H124   H     0.85303   0.41484   0.57621   0.00000  Uiso   1.00
H125   H     0.58670   0.45798   0.65357   0.00000  Uiso   1.00
H126   H     0.94085   0.26803   0.80326   0.00000  Uiso   1.00
H127   H     0.89813   0.42048   0.45046   0.00000  Uiso   1.00
H128   H     0.33660   0.51144   0.61359   0.00000  Uiso   1.00
H129   H     0.08339   0.11088   0.92925   0.00000  Uiso   1.00
O130   O     0.84768   0.30236   0.32662   0.00000  Uiso   1.00
O131   O     0.11098   0.42169   0.54066   0.00000  Uiso   1.00
O132   O     0.09074   0.89617   0.95479   0.00000  Uiso   1.00
N133   N     0.75226   0.19905   0.37661   0.00000  Uiso   1.00
N134   N     0.22726   0.28410   0.52912   0.00000  Uiso   1.00
N135   N     0.92542   0.90961   0.82424   0.00000  Uiso   1.00
N136   N     0.84863   0.35066   0.43803   0.00000  Uiso   1.00
N137   N     0.32363   0.43571   0.59054   0.00000  Uiso   1.00
N138   N     0.02179   0.06122   0.88566   0.00000  Uiso   1.00
C139   C     0.37344   0.11756   0.92875   0.00000  Uiso   1.00
C140   C     0.31523   0.17706   0.96738   0.00000  Uiso   1.00
C141   C     0.31998   0.14265   0.03407   0.00000  Uiso   1.00
C142   C     0.26093   0.20858   0.06018   0.00000  Uiso   1.00
C143   C     0.17996   0.28626   0.12615   0.00000  Uiso   1.00
C144   C     0.45994   0.20051   0.92535   0.00000  Uiso   1.00
C145   C     0.58635   0.18580   0.95671   0.00000  Uiso   1.00
C146   C     0.64910   0.27147   0.94744   0.00000  Uiso   1.00
C147   C     0.79276   0.38553   0.94812   0.00000  Uiso   1.00
C148   C     0.26751   0.09730   0.84403   0.00000  Uiso   1.00
C149   C     0.23215   0.99581   0.80699   0.00000  Uiso   1.00
C150   C     0.13291   0.99459   0.72924   0.00000  Uiso   1.00
C151   C     0.97781   0.94840   0.60364   0.00000  Uiso   1.00
C152   C     0.26012   0.29585   0.85652   0.00000  Uiso   1.00
C153   C     0.25368   0.27390   0.92814   0.00000  Uiso   1.00
C154   C     0.19460   0.33990   0.95416   0.00000  Uiso   1.00
C155   C     0.19926   0.30559   0.02088   0.00000  Uiso   1.00
C156   C     0.39839   0.29735   0.88612   0.00000  Uiso   1.00
C157   C     0.46096   0.38306   0.87680   0.00000  Uiso   1.00
C158   C     0.58744   0.36849   0.90814   0.00000  Uiso   1.00
C159   C     0.20595   0.19414   0.80479   0.00000  Uiso   1.00
C160   C     0.10676   0.19307   0.72708   0.00000  Uiso   1.00
C161   C     0.07125   0.09160   0.68993   0.00000  Uiso   1.00
H162   H     0.42137   0.04217   0.95929   0.00000  Uiso   1.00
H163   H     0.36764   0.06770   0.06442   0.00000  Uiso   1.00
H164   H     0.63395   0.11085   0.98706   0.00000  Uiso   1.00
H165   H     0.27981   0.92090   0.83737   0.00000  Uiso   1.00
H166   H     0.28096   0.13874   0.16368   0.00000  Uiso   1.00
H167   H     0.84249   0.22970   0.00055   0.00000  Uiso   1.00
H168   H     0.09571   0.82914   0.68489   0.00000  Uiso   1.00
H169   H     0.21219   0.37125   0.82598   0.00000  Uiso   1.00
H170   H     0.14697   0.41484   0.92379   0.00000  Uiso   1.00
H171   H     0.41330   0.45798   0.84643   0.00000  Uiso   1.00
H172   H     0.05915   0.26803   0.69674   0.00000  Uiso   1.00
H173   H     0.10187   0.42048   0.04954   0.00000  Uiso   1.00
H174   H     0.66340   0.51144   0.88641   0.00000  Uiso   1.00
H175   H     0.91661   0.11088   0.57075   0.00000  Uiso   1.00
O176   O     0.15232   0.30236   0.17338   0.00000  Uiso   1.00
O177   O     0.88902   0.42169   0.95934   0.00000  Uiso   1.00
O178   O     0.90926   0.89617   0.54521   0.00000  Uiso   1.00
N179   N     0.24774   0.19905   0.12339   0.00000  Uiso   1.00
N180   N     0.77274   0.28410   0.97088   0.00000  Uiso   1.00
N181   N     0.07458   0.90961   0.67576   0.00000  Uiso   1.00
N182   N     0.15137   0.35066   0.06197   0.00000  Uiso   1.00
N183   N     0.67637   0.43571   0.90946   0.00000  Uiso   1.00
N184   N     0.97821   0.06122   0.61434   0.00000  Uiso   1.00
