data_job_05401
_audit_creation_date              2018-12-19
_audit_creation_method            'Materials Studio'
_symmetry_space_group_name_H-M    'P1'
_symmetry_Int_Tables_number       1
_symmetry_cell_setting            triclinic
loop_
_symmetry_equiv_pos_as_xyz
  x,y,z
_cell_length_a                    11.6888
_cell_length_b                    22.0431
_cell_length_c                    10.5340
_cell_angle_alpha                 90.0000
_cell_angle_beta                  90.0000
_cell_angle_gamma                 90.0000
loop_
_atom_site_label
_atom_site_type_symbol
_atom_site_fract_x
_atom_site_fract_y
_atom_site_fract_z
_atom_site_U_iso_or_equiv
_atom_site_adp_type
_atom_site_occupancy
C1     C     0.57415   0.13679   0.58359   0.00000  Uiso   1.00
C2     C     0.64408   0.07849   0.59092   0.00000  Uiso   1.00
C3     C     0.73502   0.06788   0.67265   0.00000  Uiso   1.00
C4     C     0.78788   0.01160   0.66464   0.00000  Uiso   1.00
C5     C     0.90209   0.92779   0.68917   0.00000  Uiso   1.00
C6     C     0.58197   0.15815   0.44617   0.00000  Uiso   1.00
C7     C     0.62069   0.21452   0.40619   0.00000  Uiso   1.00
C8     C     0.62124   0.22530   0.27633   0.00000  Uiso   1.00
C9     C     0.63896   0.26517   0.07614   0.00000  Uiso   1.00
C10    C     0.44991   0.11817   0.60433   0.00000  Uiso   1.00
C11    C     0.37757   0.14093   0.69731   0.00000  Uiso   1.00
C12    C     0.26693   0.11806   0.70059   0.00000  Uiso   1.00
C13    C     0.07961   0.09586   0.74596   0.00000  Uiso   1.00
C14    C     0.50628   0.05571   0.42405   0.00000  Uiso   1.00
C15    C     0.60721   0.03445   0.50427   0.00000  Uiso   1.00
C16    C     0.65993   0.97817   0.49614   0.00000  Uiso   1.00
C17    C     0.75094   0.96748   0.57784   0.00000  Uiso   1.00
C18    C     0.54511   0.11411   0.35952   0.00000  Uiso   1.00
C19    C     0.54560   0.12481   0.22969   0.00000  Uiso   1.00
C20    C     0.58431   0.18118   0.18953   0.00000  Uiso   1.00
C21    C     0.41304   0.07413   0.51768   0.00000  Uiso   1.00
C22    C     0.30249   0.05122   0.52081   0.00000  Uiso   1.00
C23    C     0.23000   0.07395   0.61378   0.00000  Uiso   1.00
H24    H     0.60286   0.17108   0.65104   0.00000  Uiso   1.00
H25    H     0.76354   0.10197   0.73968   0.00000  Uiso   1.00
H26    H     0.64920   0.24859   0.47327   0.00000  Uiso   1.00
H27    H     0.40613   0.17501   0.76434   0.00000  Uiso   1.00
H28    H     0.92545   0.00595   0.79971   0.00000  Uiso   1.00
H29    H     0.68434   0.31510   0.23798   0.00000  Uiso   1.00
H30    H     0.17177   0.15995   0.85176   0.00000  Uiso   1.00
H31    H     0.47758   0.02142   0.35659   0.00000  Uiso   1.00
H32    H     0.63139   0.94410   0.42908   0.00000  Uiso   1.00
H33    H     0.51706   0.09072   0.16266   0.00000  Uiso   1.00
H34    H     0.27399   0.01715   0.45374   0.00000  Uiso   1.00
H35    H     0.81820   0.87782   0.54761   0.00000  Uiso   1.00
H36    H     0.57708   0.18698   0.98587   0.00000  Uiso   1.00
H37    H     0.06452   0.03182   0.59965   0.00000  Uiso   1.00
O38    O     0.97529   0.89373   0.72663   0.00000  Uiso   1.00
O39    O     0.65893   0.29933   0.98966   0.00000  Uiso   1.00
O40    O     0.98647   0.09578   0.79493   0.00000  Uiso   1.00
N41    N     0.87908   0.98640   0.73045   0.00000  Uiso   1.00
N42    N     0.65368   0.27544   0.20526   0.00000  Uiso   1.00
N43    N     0.17446   0.13040   0.77907   0.00000  Uiso   1.00
N44    N     0.82137   0.91745   0.59480   0.00000  Uiso   1.00
N45    N     0.59596   0.20649   0.06960   0.00000  Uiso   1.00
N46    N     0.11675   0.06145   0.64342   0.00000  Uiso   1.00
C47    C     0.42585   0.86321   0.08359   0.00000  Uiso   1.00
C48    C     0.35592   0.92151   0.09092   0.00000  Uiso   1.00
C49    C     0.26498   0.93212   0.17265   0.00000  Uiso   1.00
C50    C     0.21212   0.98840   0.16464   0.00000  Uiso   1.00
C51    C     0.09791   0.07221   0.18917   0.00000  Uiso   1.00
C52    C     0.41803   0.84185   0.94617   0.00000  Uiso   1.00
C53    C     0.37931   0.78548   0.90619   0.00000  Uiso   1.00
C54    C     0.37876   0.77470   0.77633   0.00000  Uiso   1.00
C55    C     0.36104   0.73483   0.57614   0.00000  Uiso   1.00
C56    C     0.55009   0.88183   0.10433   0.00000  Uiso   1.00
C57    C     0.62243   0.85907   0.19731   0.00000  Uiso   1.00
C58    C     0.73307   0.88194   0.20059   0.00000  Uiso   1.00
C59    C     0.92039   0.90414   0.24596   0.00000  Uiso   1.00
C60    C     0.49372   0.94429   0.92405   0.00000  Uiso   1.00
C61    C     0.39279   0.96555   0.00427   0.00000  Uiso   1.00
C62    C     0.34007   0.02183   0.99614   0.00000  Uiso   1.00
C63    C     0.24906   0.03252   0.07784   0.00000  Uiso   1.00
C64    C     0.45489   0.88589   0.85952   0.00000  Uiso   1.00
C65    C     0.45440   0.87519   0.72969   0.00000  Uiso   1.00
C66    C     0.41569   0.81882   0.68953   0.00000  Uiso   1.00
C67    C     0.58696   0.92587   0.01768   0.00000  Uiso   1.00
C68    C     0.69751   0.94878   0.02081   0.00000  Uiso   1.00
C69    C     0.77000   0.92605   0.11378   0.00000  Uiso   1.00
H70    H     0.39714   0.82892   0.15104   0.00000  Uiso   1.00
H71    H     0.23646   0.89803   0.23968   0.00000  Uiso   1.00
H72    H     0.35080   0.75141   0.97327   0.00000  Uiso   1.00
H73    H     0.59387   0.82499   0.26434   0.00000  Uiso   1.00
H74    H     0.07455   0.99405   0.29971   0.00000  Uiso   1.00
H75    H     0.31566   0.68490   0.73798   0.00000  Uiso   1.00
H76    H     0.82823   0.84005   0.35176   0.00000  Uiso   1.00
H77    H     0.52242   0.97858   0.85659   0.00000  Uiso   1.00
H78    H     0.36861   0.05590   0.92908   0.00000  Uiso   1.00
H79    H     0.48294   0.90928   0.66266   0.00000  Uiso   1.00
H80    H     0.72601   0.98285   0.95374   0.00000  Uiso   1.00
H81    H     0.18180   0.12218   0.04761   0.00000  Uiso   1.00
H82    H     0.42292   0.81302   0.48587   0.00000  Uiso   1.00
H83    H     0.93548   0.96818   0.09965   0.00000  Uiso   1.00
O84    O     0.02471   0.10627   0.22663   0.00000  Uiso   1.00
O85    O     0.34107   0.70067   0.48966   0.00000  Uiso   1.00
O86    O     0.01353   0.90422   0.29493   0.00000  Uiso   1.00
N87    N     0.12092   0.01360   0.23045   0.00000  Uiso   1.00
N88    N     0.34632   0.72456   0.70526   0.00000  Uiso   1.00
N89    N     0.82554   0.86960   0.27907   0.00000  Uiso   1.00
N90    N     0.17863   0.08255   0.09480   0.00000  Uiso   1.00
N91    N     0.40404   0.79351   0.56960   0.00000  Uiso   1.00
N92    N     0.88325   0.93855   0.14342   0.00000  Uiso   1.00
C93    C     0.07415   0.36321   0.58359   0.00000  Uiso   1.00
C94    C     0.14408   0.42151   0.59092   0.00000  Uiso   1.00
C95    C     0.23502   0.43212   0.67265   0.00000  Uiso   1.00
C96    C     0.28788   0.48840   0.66464   0.00000  Uiso   1.00
C97    C     0.40209   0.57221   0.68917   0.00000  Uiso   1.00
C98    C     0.08197   0.34185   0.44617   0.00000  Uiso   1.00
C99    C     0.12069   0.28548   0.40619   0.00000  Uiso   1.00
C100   C     0.12124   0.27470   0.27633   0.00000  Uiso   1.00
C101   C     0.13896   0.23483   0.07614   0.00000  Uiso   1.00
C102   C     0.94991   0.38183   0.60433   0.00000  Uiso   1.00
C103   C     0.87757   0.35907   0.69731   0.00000  Uiso   1.00
C104   C     0.76693   0.38194   0.70059   0.00000  Uiso   1.00
C105   C     0.57961   0.40414   0.74596   0.00000  Uiso   1.00
C106   C     0.00628   0.44429   0.42405   0.00000  Uiso   1.00
C107   C     0.10721   0.46555   0.50427   0.00000  Uiso   1.00
C108   C     0.15993   0.52183   0.49614   0.00000  Uiso   1.00
C109   C     0.25094   0.53252   0.57784   0.00000  Uiso   1.00
C110   C     0.04511   0.38589   0.35952   0.00000  Uiso   1.00
C111   C     0.04560   0.37519   0.22969   0.00000  Uiso   1.00
C112   C     0.08431   0.31882   0.18953   0.00000  Uiso   1.00
C113   C     0.91304   0.42587   0.51768   0.00000  Uiso   1.00
C114   C     0.80249   0.44878   0.52081   0.00000  Uiso   1.00
C115   C     0.73000   0.42605   0.61378   0.00000  Uiso   1.00
H116   H     0.10286   0.32892   0.65104   0.00000  Uiso   1.00
H117   H     0.26354   0.39803   0.73968   0.00000  Uiso   1.00
H118   H     0.14920   0.25141   0.47327   0.00000  Uiso   1.00
H119   H     0.90613   0.32499   0.76434   0.00000  Uiso   1.00
H120   H     0.42545   0.49405   0.79971   0.00000  Uiso   1.00
H121   H     0.18434   0.18490   0.23798   0.00000  Uiso   1.00
H122   H     0.67177   0.34005   0.85176   0.00000  Uiso   1.00
H123   H     0.97758   0.47858   0.35659   0.00000  Uiso   1.00
H124   H     0.13139   0.55590   0.42908   0.00000  Uiso   1.00
H125   H     0.01706   0.40928   0.16266   0.00000  Uiso   1.00
H126   H     0.77399   0.48285   0.45374   0.00000  Uiso   1.00
H127   H     0.31820   0.62218   0.54761   0.00000  Uiso   1.00
H128   H     0.07708   0.31302   0.98587   0.00000  Uiso   1.00
H129   H     0.56452   0.46818   0.59965   0.00000  Uiso   1.00
O130   O     0.47529   0.60627   0.72663   0.00000  Uiso   1.00
O131   O     0.15893   0.20067   0.98966   0.00000  Uiso   1.00
O132   O     0.48647   0.40422   0.79493   0.00000  Uiso   1.00
N133   N     0.37908   0.51360   0.73045   0.00000  Uiso   1.00
N134   N     0.15368   0.22456   0.20526   0.00000  Uiso   1.00
N135   N     0.67446   0.36960   0.77907   0.00000  Uiso   1.00
N136   N     0.32137   0.58255   0.59480   0.00000  Uiso   1.00
N137   N     0.09596   0.29351   0.06960   0.00000  Uiso   1.00
N138   N     0.61675   0.43855   0.64342   0.00000  Uiso   1.00
C139   C     0.92585   0.63679   0.08359   0.00000  Uiso   1.00
C140   C     0.85592   0.57849   0.09092   0.00000  Uiso   1.00
C141   C     0.76498   0.56788   0.17265   0.00000  Uiso   1.00
C142   C     0.71212   0.51160   0.16464   0.00000  Uiso   1.00
C143   C     0.59791   0.42779   0.18917   0.00000  Uiso   1.00
C144   C     0.91803   0.65815   0.94617   0.00000  Uiso   1.00
C145   C     0.87931   0.71452   0.90619   0.00000  Uiso   1.00
C146   C     0.87876   0.72530   0.77633   0.00000  Uiso   1.00
C147   C     0.86104   0.76517   0.57614   0.00000  Uiso   1.00
C148   C     0.05009   0.61817   0.10433   0.00000  Uiso   1.00
C149   C     0.12243   0.64093   0.19731   0.00000  Uiso   1.00
C150   C     0.23307   0.61806   0.20059   0.00000  Uiso   1.00
C151   C     0.42039   0.59586   0.24596   0.00000  Uiso   1.00
C152   C     0.99372   0.55571   0.92405   0.00000  Uiso   1.00
C153   C     0.89279   0.53445   0.00427   0.00000  Uiso   1.00
C154   C     0.84007   0.47817   0.99614   0.00000  Uiso   1.00
C155   C     0.74906   0.46748   0.07784   0.00000  Uiso   1.00
C156   C     0.95489   0.61411   0.85952   0.00000  Uiso   1.00
C157   C     0.95440   0.62481   0.72969   0.00000  Uiso   1.00
C158   C     0.91569   0.68118   0.68953   0.00000  Uiso   1.00
C159   C     0.08696   0.57413   0.01768   0.00000  Uiso   1.00
C160   C     0.19751   0.55122   0.02081   0.00000  Uiso   1.00
C161   C     0.27000   0.57395   0.11378   0.00000  Uiso   1.00
H162   H     0.89714   0.67108   0.15104   0.00000  Uiso   1.00
H163   H     0.73646   0.60197   0.23968   0.00000  Uiso   1.00
H164   H     0.85080   0.74859   0.97327   0.00000  Uiso   1.00
H165   H     0.09387   0.67501   0.26434   0.00000  Uiso   1.00
H166   H     0.57455   0.50595   0.29971   0.00000  Uiso   1.00
H167   H     0.81566   0.81510   0.73798   0.00000  Uiso   1.00
H168   H     0.32823   0.65995   0.35176   0.00000  Uiso   1.00
H169   H     0.02242   0.52142   0.85659   0.00000  Uiso   1.00
H170   H     0.86861   0.44410   0.92908   0.00000  Uiso   1.00
H171   H     0.98294   0.59072   0.66266   0.00000  Uiso   1.00
H172   H     0.22601   0.51715   0.95374   0.00000  Uiso   1.00
H173   H     0.68180   0.37782   0.04761   0.00000  Uiso   1.00
H174   H     0.92292   0.68698   0.48587   0.00000  Uiso   1.00
H175   H     0.43548   0.53182   0.09965   0.00000  Uiso   1.00
O176   O     0.52471   0.39373   0.22663   0.00000  Uiso   1.00
O177   O     0.84107   0.79933   0.48966   0.00000  Uiso   1.00
O178   O     0.51353   0.59578   0.29493   0.00000  Uiso   1.00
N179   N     0.62092   0.48640   0.23045   0.00000  Uiso   1.00
N180   N     0.84632   0.77544   0.70526   0.00000  Uiso   1.00
N181   N     0.32554   0.63040   0.27907   0.00000  Uiso   1.00
N182   N     0.67863   0.41745   0.09480   0.00000  Uiso   1.00
N183   N     0.90404   0.70649   0.56960   0.00000  Uiso   1.00
N184   N     0.38325   0.56145   0.14342   0.00000  Uiso   1.00
