data_job_00611
_audit_creation_date              2018-12-19
_audit_creation_method            'Materials Studio'
_symmetry_space_group_name_H-M    'P1'
_symmetry_Int_Tables_number       1
_symmetry_cell_setting            triclinic
loop_
_symmetry_equiv_pos_as_xyz
  x,y,z
_cell_length_a                    12.4416
_cell_length_b                    28.1988
_cell_length_c                    17.5841
_cell_angle_alpha                 90.0000
_cell_angle_beta                  131.3741
_cell_angle_gamma                 90.0000
loop_
_atom_site_label
_atom_site_type_symbol
_atom_site_fract_x
_atom_site_fract_y
_atom_site_fract_z
_atom_site_U_iso_or_equiv
_atom_site_adp_type
_atom_site_occupancy
C1     C     0.65410   0.64934   0.97294   0.00000  Uiso   1.00
C2     C     0.53394   0.62795   0.96444   0.00000  Uiso   1.00
C3     C     0.54159   0.61727   0.04495   0.00000  Uiso   1.00
C4     C     0.42007   0.59789   0.02136   0.00000  Uiso   1.00
C5     C     0.25248   0.56593   0.02345   0.00000  Uiso   1.00
C6     C     0.67836   0.61507   0.91845   0.00000  Uiso   1.00
C7     C     0.80745   0.59357   0.96030   0.00000  Uiso   1.00
C8     C     0.80751   0.56335   0.89798   0.00000  Uiso   1.00
C9     C     0.86416   0.51143   0.82866   0.00000  Uiso   1.00
C10    C     0.59277   0.69441   0.90911   0.00000  Uiso   1.00
C11    C     0.64991   0.73962   0.94310   0.00000  Uiso   1.00
C12    C     0.57792   0.77620   0.87291   0.00000  Uiso   1.00
C13    C     0.50167   0.84746   0.78908   0.00000  Uiso   1.00
C14    C     0.42468   0.63390   0.78787   0.00000  Uiso   1.00
C15    C     0.40933   0.61957   0.86392   0.00000  Uiso   1.00
C16    C     0.28776   0.60020   0.84019   0.00000  Uiso   1.00
C17    C     0.29523   0.58949   0.92066   0.00000  Uiso   1.00
C18    C     0.55376   0.60669   0.81793   0.00000  Uiso   1.00
C19    C     0.55363   0.57650   0.75554   0.00000  Uiso   1.00
C20    C     0.68267   0.55495   0.79728   0.00000  Uiso   1.00
C21    C     0.46816   0.68603   0.80859   0.00000  Uiso   1.00
C22    C     0.39607   0.72254   0.73834   0.00000  Uiso   1.00
C23    C     0.45308   0.76780   0.77221   0.00000  Uiso   1.00
H24    H     0.75112   0.65586   0.05120   0.00000  Uiso   1.00
H25    H     0.63805   0.62376   0.12274   0.00000  Uiso   1.00
H26    H     0.90387   0.60007   0.03809   0.00000  Uiso   1.00
H27    H     0.74634   0.74609   0.02089   0.00000  Uiso   1.00
H28    H     0.45776   0.58446   0.15771   0.00000  Uiso   1.00
H29    H     0.01826   0.53451   0.97922   0.00000  Uiso   1.00
H30    H     0.68609   0.84243   0.94296   0.00000  Uiso   1.00
H31    H     0.32766   0.62738   0.70961   0.00000  Uiso   1.00
H32    H     0.19135   0.59371   0.76240   0.00000  Uiso   1.00
H33    H     0.45717   0.57002   0.67775   0.00000  Uiso   1.00
H34    H     0.29965   0.71604   0.66056   0.00000  Uiso   1.00
H35    H     0.09520   0.56006   0.86525   0.00000  Uiso   1.00
H36    H     0.65571   0.51012   0.68676   0.00000  Uiso   1.00
H37    H     0.32354   0.81804   0.65049   0.00000  Uiso   1.00
O38    O     0.19447   0.55061   0.05237   0.00000  Uiso   1.00
O39    O     0.92984   0.48510   0.81819   0.00000  Uiso   1.00
O40    O     0.49403   0.88908   0.77062   0.00000  Uiso   1.00
N41    N     0.39113   0.58334   0.08164   0.00000  Uiso   1.00
N42    N     0.91516   0.53665   0.91476   0.00000  Uiso   1.00
N43    N     0.60463   0.82452   0.88085   0.00000  Uiso   1.00
N44    N     0.19604   0.57022   0.92427   0.00000  Uiso   1.00
N45    N     0.72007   0.52352   0.75739   0.00000  Uiso   1.00
N46    N     0.40954   0.81140   0.72348   0.00000  Uiso   1.00
C47    C     0.73799   0.33203   0.52670   0.00000  Uiso   1.00
C48    C     0.61256   0.35855   0.50378   0.00000  Uiso   1.00
C49    C     0.47067   0.35568   0.41436   0.00000  Uiso   1.00
C50    C     0.37191   0.38273   0.40821   0.00000  Uiso   1.00
C51    C     0.17081   0.41953   0.36037   0.00000  Uiso   1.00
C52    C     0.84621   0.36986   0.55409   0.00000  Uiso   1.00
C53    C     0.90079   0.37649   0.50697   0.00000  Uiso   1.00
C54    C     0.99873   0.41306   0.54319   0.00000  Uiso   1.00
C55    C     0.16046   0.46740   0.57350   0.00000  Uiso   1.00
C56    C     0.80791   0.30410   0.62371   0.00000  Uiso   1.00
C57    C     0.83031   0.25545   0.63515   0.00000  Uiso   1.00
C58    C     0.89604   0.23666   0.72998   0.00000  Uiso   1.00
C59    C     0.99829   0.18890   0.86839   0.00000  Uiso   1.00
C60    C     0.81491   0.38516   0.67480   0.00000  Uiso   1.00
C61    C     0.65435   0.38741   0.58423   0.00000  Uiso   1.00
C62    C     0.55578   0.41447   0.57821   0.00000  Uiso   1.00
C63    C     0.41376   0.41164   0.48880   0.00000  Uiso   1.00
C64    C     0.88800   0.39872   0.63453   0.00000  Uiso   1.00
C65    C     0.98589   0.43528   0.67083   0.00000  Uiso   1.00
C66    C     0.04059   0.44197   0.62377   0.00000  Uiso   1.00
C67    C     0.84969   0.33296   0.70416   0.00000  Uiso   1.00
C68    C     0.91541   0.31424   0.79900   0.00000  Uiso   1.00
C69    C     0.93790   0.26557   0.81057   0.00000  Uiso   1.00
H70    H     0.70547   0.30957   0.46408   0.00000  Uiso   1.00
H71    H     0.43838   0.33335   0.35212   0.00000  Uiso   1.00
H72    H     0.86844   0.35415   0.44473   0.00000  Uiso   1.00
H73    H     0.79797   0.23313   0.57288   0.00000  Uiso   1.00
H74    H     0.16070   0.37246   0.26346   0.00000  Uiso   1.00
H75    H     0.06754   0.41631   0.45876   0.00000  Uiso   1.00
H76    H     0.91894   0.16112   0.72898   0.00000  Uiso   1.00
H77    H     0.84745   0.40763   0.73743   0.00000  Uiso   1.00
H78    H     0.58814   0.43680   0.64048   0.00000  Uiso   1.00
H79    H     0.01820   0.45760   0.73308   0.00000  Uiso   1.00
H80    H     0.94773   0.33658   0.86123   0.00000  Uiso   1.00
H81    H     0.28225   0.45642   0.49750   0.00000  Uiso   1.00
H82    H     0.18910   0.50028   0.69279   0.00000  Uiso   1.00
H83    H     0.04049   0.24508   0.96302   0.00000  Uiso   1.00
O84    O     0.04835   0.43187   0.31176   0.00000  Uiso   1.00
O85    O     0.23811   0.48940   0.56799   0.00000  Uiso   1.00
O86    O     0.04313   0.15459   0.92251   0.00000  Uiso   1.00
N87    N     0.22489   0.38821   0.33186   0.00000  Uiso   1.00
N88    N     0.07272   0.42922   0.51443   0.00000  Uiso   1.00
N89    N     0.93382   0.19063   0.76708   0.00000  Uiso   1.00
N90    N     0.29030   0.43339   0.45779   0.00000  Uiso   1.00
N91    N     0.13812   0.47440   0.64037   0.00000  Uiso   1.00
N92    N     0.99922   0.23581   0.89301   0.00000  Uiso   1.00
C93    C     0.34590   0.14934   0.52706   0.00000  Uiso   1.00
C94    C     0.46606   0.12795   0.53556   0.00000  Uiso   1.00
C95    C     0.45841   0.11727   0.45505   0.00000  Uiso   1.00
C96    C     0.57993   0.09789   0.47864   0.00000  Uiso   1.00
C97    C     0.74752   0.06593   0.47655   0.00000  Uiso   1.00
C98    C     0.32164   0.11507   0.58155   0.00000  Uiso   1.00
C99    C     0.19255   0.09357   0.53970   0.00000  Uiso   1.00
C100   C     0.19249   0.06335   0.60202   0.00000  Uiso   1.00
C101   C     0.13584   0.01143   0.67134   0.00000  Uiso   1.00
C102   C     0.40723   0.19441   0.59089   0.00000  Uiso   1.00
C103   C     0.35009   0.23962   0.55690   0.00000  Uiso   1.00
C104   C     0.42208   0.27620   0.62709   0.00000  Uiso   1.00
C105   C     0.49833   0.34746   0.71092   0.00000  Uiso   1.00
C106   C     0.57532   0.13390   0.71213   0.00000  Uiso   1.00
C107   C     0.59067   0.11957   0.63608   0.00000  Uiso   1.00
C108   C     0.71224   0.10020   0.65981   0.00000  Uiso   1.00
C109   C     0.70477   0.08949   0.57934   0.00000  Uiso   1.00
C110   C     0.44624   0.10669   0.68207   0.00000  Uiso   1.00
C111   C     0.44637   0.07650   0.74446   0.00000  Uiso   1.00
C112   C     0.31733   0.05495   0.70272   0.00000  Uiso   1.00
C113   C     0.53184   0.18603   0.69141   0.00000  Uiso   1.00
C114   C     0.60393   0.22254   0.76166   0.00000  Uiso   1.00
C115   C     0.54692   0.26780   0.72779   0.00000  Uiso   1.00
H116   H     0.24888   0.15586   0.44880   0.00000  Uiso   1.00
H117   H     0.36195   0.12376   0.37726   0.00000  Uiso   1.00
H118   H     0.09613   0.10007   0.46191   0.00000  Uiso   1.00
H119   H     0.25366   0.24609   0.47911   0.00000  Uiso   1.00
H120   H     0.54224   0.08446   0.34229   0.00000  Uiso   1.00
H121   H     0.98174   0.03451   0.52078   0.00000  Uiso   1.00
H122   H     0.31391   0.34243   0.55704   0.00000  Uiso   1.00
H123   H     0.67234   0.12738   0.79039   0.00000  Uiso   1.00
H124   H     0.80865   0.09371   0.73760   0.00000  Uiso   1.00
H125   H     0.54283   0.07002   0.82225   0.00000  Uiso   1.00
H126   H     0.70035   0.21604   0.83944   0.00000  Uiso   1.00
H127   H     0.90480   0.06006   0.63475   0.00000  Uiso   1.00
H128   H     0.34429   0.01012   0.81324   0.00000  Uiso   1.00
H129   H     0.67646   0.31804   0.84951   0.00000  Uiso   1.00
O130   O     0.80553   0.05061   0.44763   0.00000  Uiso   1.00
O131   O     0.07016   0.98510   0.68181   0.00000  Uiso   1.00
O132   O     0.50597   0.38908   0.72938   0.00000  Uiso   1.00
N133   N     0.60887   0.08334   0.41836   0.00000  Uiso   1.00
N134   N     0.08484   0.03665   0.58524   0.00000  Uiso   1.00
N135   N     0.39537   0.32452   0.61915   0.00000  Uiso   1.00
N136   N     0.80396   0.07022   0.57573   0.00000  Uiso   1.00
N137   N     0.27993   0.02352   0.74261   0.00000  Uiso   1.00
N138   N     0.59046   0.31140   0.77652   0.00000  Uiso   1.00
C139   C     0.26201   0.83203   0.97330   0.00000  Uiso   1.00
C140   C     0.38744   0.85855   0.99622   0.00000  Uiso   1.00
C141   C     0.52933   0.85568   0.08564   0.00000  Uiso   1.00
C142   C     0.62809   0.88273   0.09179   0.00000  Uiso   1.00
C143   C     0.82919   0.91953   0.13963   0.00000  Uiso   1.00
C144   C     0.15379   0.86986   0.94591   0.00000  Uiso   1.00
C145   C     0.09921   0.87649   0.99303   0.00000  Uiso   1.00
C146   C     0.00127   0.91306   0.95681   0.00000  Uiso   1.00
C147   C     0.83954   0.96740   0.92650   0.00000  Uiso   1.00
C148   C     0.19209   0.80410   0.87629   0.00000  Uiso   1.00
C149   C     0.16969   0.75545   0.86485   0.00000  Uiso   1.00
C150   C     0.10396   0.73666   0.77002   0.00000  Uiso   1.00
C151   C     0.00171   0.68890   0.63161   0.00000  Uiso   1.00
C152   C     0.18509   0.88516   0.82520   0.00000  Uiso   1.00
C153   C     0.34565   0.88741   0.91577   0.00000  Uiso   1.00
C154   C     0.44422   0.91447   0.92179   0.00000  Uiso   1.00
C155   C     0.58624   0.91164   0.01120   0.00000  Uiso   1.00
C156   C     0.11200   0.89872   0.86547   0.00000  Uiso   1.00
C157   C     0.01411   0.93528   0.82917   0.00000  Uiso   1.00
C158   C     0.95941   0.94197   0.87623   0.00000  Uiso   1.00
C159   C     0.15031   0.83296   0.79584   0.00000  Uiso   1.00
C160   C     0.08459   0.81424   0.70100   0.00000  Uiso   1.00
C161   C     0.06210   0.76557   0.68943   0.00000  Uiso   1.00
H162   H     0.29453   0.80957   0.03592   0.00000  Uiso   1.00
H163   H     0.56162   0.83335   0.14788   0.00000  Uiso   1.00
H164   H     0.13156   0.85415   0.05527   0.00000  Uiso   1.00
H165   H     0.20203   0.73313   0.92712   0.00000  Uiso   1.00
H166   H     0.83930   0.87246   0.23654   0.00000  Uiso   1.00
H167   H     0.93246   0.91631   0.04124   0.00000  Uiso   1.00
H168   H     0.08106   0.66112   0.77102   0.00000  Uiso   1.00
H169   H     0.15255   0.90763   0.76257   0.00000  Uiso   1.00
H170   H     0.41186   0.93680   0.85952   0.00000  Uiso   1.00
H171   H     0.98180   0.95760   0.76692   0.00000  Uiso   1.00
H172   H     0.05227   0.83658   0.63877   0.00000  Uiso   1.00
H173   H     0.71775   0.95642   0.00250   0.00000  Uiso   1.00
H174   H     0.81090   0.00028   0.80721   0.00000  Uiso   1.00
H175   H     0.95951   0.74508   0.53698   0.00000  Uiso   1.00
O176   O     0.95165   0.93187   0.18824   0.00000  Uiso   1.00
O177   O     0.76189   0.98940   0.93201   0.00000  Uiso   1.00
O178   O     0.95687   0.65459   0.57749   0.00000  Uiso   1.00
N179   N     0.77511   0.88821   0.16814   0.00000  Uiso   1.00
N180   N     0.92728   0.92922   0.98557   0.00000  Uiso   1.00
N181   N     0.06618   0.69063   0.73292   0.00000  Uiso   1.00
N182   N     0.70970   0.93339   0.04221   0.00000  Uiso   1.00
N183   N     0.86188   0.97440   0.85963   0.00000  Uiso   1.00
N184   N     0.00078   0.73581   0.60699   0.00000  Uiso   1.00
C185   C     0.34590   0.35066   0.02706   0.00000  Uiso   1.00
C186   C     0.46606   0.37205   0.03556   0.00000  Uiso   1.00
C187   C     0.45841   0.38273   0.95505   0.00000  Uiso   1.00
C188   C     0.57993   0.40211   0.97864   0.00000  Uiso   1.00
C189   C     0.74752   0.43407   0.97655   0.00000  Uiso   1.00
C190   C     0.32164   0.38493   0.08155   0.00000  Uiso   1.00
C191   C     0.19255   0.40643   0.03970   0.00000  Uiso   1.00
C192   C     0.19249   0.43665   0.10202   0.00000  Uiso   1.00
C193   C     0.13584   0.48857   0.17134   0.00000  Uiso   1.00
C194   C     0.40723   0.30559   0.09089   0.00000  Uiso   1.00
C195   C     0.35009   0.26038   0.05690   0.00000  Uiso   1.00
C196   C     0.42208   0.22380   0.12709   0.00000  Uiso   1.00
C197   C     0.49833   0.15254   0.21092   0.00000  Uiso   1.00
C198   C     0.57532   0.36610   0.21213   0.00000  Uiso   1.00
C199   C     0.59067   0.38043   0.13608   0.00000  Uiso   1.00
C200   C     0.71224   0.39980   0.15981   0.00000  Uiso   1.00
C201   C     0.70477   0.41051   0.07934   0.00000  Uiso   1.00
C202   C     0.44624   0.39331   0.18207   0.00000  Uiso   1.00
C203   C     0.44637   0.42350   0.24446   0.00000  Uiso   1.00
C204   C     0.31733   0.44505   0.20272   0.00000  Uiso   1.00
C205   C     0.53184   0.31397   0.19141   0.00000  Uiso   1.00
C206   C     0.60393   0.27746   0.26166   0.00000  Uiso   1.00
C207   C     0.54692   0.23220   0.22779   0.00000  Uiso   1.00
H208   H     0.24888   0.34414   0.94880   0.00000  Uiso   1.00
H209   H     0.36195   0.37624   0.87726   0.00000  Uiso   1.00
H210   H     0.09613   0.39993   0.96191   0.00000  Uiso   1.00
H211   H     0.25366   0.25391   0.97911   0.00000  Uiso   1.00
H212   H     0.54224   0.41554   0.84229   0.00000  Uiso   1.00
H213   H     0.98174   0.46549   0.02078   0.00000  Uiso   1.00
H214   H     0.31391   0.15757   0.05704   0.00000  Uiso   1.00
H215   H     0.67234   0.37262   0.29039   0.00000  Uiso   1.00
H216   H     0.80865   0.40629   0.23760   0.00000  Uiso   1.00
H217   H     0.54283   0.42998   0.32225   0.00000  Uiso   1.00
H218   H     0.70035   0.28396   0.33944   0.00000  Uiso   1.00
H219   H     0.90480   0.43994   0.13475   0.00000  Uiso   1.00
H220   H     0.34429   0.48988   0.31324   0.00000  Uiso   1.00
H221   H     0.67646   0.18196   0.34951   0.00000  Uiso   1.00
O222   O     0.80553   0.44939   0.94763   0.00000  Uiso   1.00
O223   O     0.07016   0.51490   0.18181   0.00000  Uiso   1.00
O224   O     0.50597   0.11092   0.22938   0.00000  Uiso   1.00
N225   N     0.60887   0.41666   0.91836   0.00000  Uiso   1.00
N226   N     0.08484   0.46335   0.08524   0.00000  Uiso   1.00
N227   N     0.39537   0.17548   0.11915   0.00000  Uiso   1.00
N228   N     0.80396   0.42978   0.07573   0.00000  Uiso   1.00
N229   N     0.27993   0.47648   0.24261   0.00000  Uiso   1.00
N230   N     0.59046   0.18860   0.27652   0.00000  Uiso   1.00
C231   C     0.26201   0.66797   0.47330   0.00000  Uiso   1.00
C232   C     0.38744   0.64145   0.49622   0.00000  Uiso   1.00
C233   C     0.52933   0.64432   0.58564   0.00000  Uiso   1.00
C234   C     0.62809   0.61727   0.59179   0.00000  Uiso   1.00
C235   C     0.82919   0.58047   0.63963   0.00000  Uiso   1.00
C236   C     0.15379   0.63014   0.44591   0.00000  Uiso   1.00
C237   C     0.09921   0.62351   0.49303   0.00000  Uiso   1.00
C238   C     0.00127   0.58694   0.45681   0.00000  Uiso   1.00
C239   C     0.83954   0.53260   0.42650   0.00000  Uiso   1.00
C240   C     0.19209   0.69590   0.37629   0.00000  Uiso   1.00
C241   C     0.16969   0.74455   0.36485   0.00000  Uiso   1.00
C242   C     0.10396   0.76334   0.27002   0.00000  Uiso   1.00
C243   C     0.00171   0.81110   0.13161   0.00000  Uiso   1.00
C244   C     0.18509   0.61484   0.32520   0.00000  Uiso   1.00
C245   C     0.34565   0.61259   0.41577   0.00000  Uiso   1.00
C246   C     0.44422   0.58553   0.42179   0.00000  Uiso   1.00
C247   C     0.58624   0.58836   0.51120   0.00000  Uiso   1.00
C248   C     0.11200   0.60128   0.36547   0.00000  Uiso   1.00
C249   C     0.01411   0.56472   0.32917   0.00000  Uiso   1.00
C250   C     0.95941   0.55803   0.37623   0.00000  Uiso   1.00
C251   C     0.15031   0.66704   0.29584   0.00000  Uiso   1.00
C252   C     0.08459   0.68576   0.20100   0.00000  Uiso   1.00
C253   C     0.06210   0.73443   0.18943   0.00000  Uiso   1.00
H254   H     0.29453   0.69043   0.53592   0.00000  Uiso   1.00
H255   H     0.56162   0.66665   0.64788   0.00000  Uiso   1.00
H256   H     0.13156   0.64585   0.55527   0.00000  Uiso   1.00
H257   H     0.20203   0.76687   0.42712   0.00000  Uiso   1.00
H258   H     0.83930   0.62754   0.73654   0.00000  Uiso   1.00
H259   H     0.93246   0.58369   0.54124   0.00000  Uiso   1.00
H260   H     0.08106   0.83888   0.27102   0.00000  Uiso   1.00
H261   H     0.15255   0.59237   0.26257   0.00000  Uiso   1.00
H262   H     0.41186   0.56320   0.35952   0.00000  Uiso   1.00
H263   H     0.98180   0.54240   0.26692   0.00000  Uiso   1.00
H264   H     0.05227   0.66342   0.13877   0.00000  Uiso   1.00
H265   H     0.71775   0.54358   0.50250   0.00000  Uiso   1.00
H266   H     0.81090   0.49972   0.30721   0.00000  Uiso   1.00
H267   H     0.95951   0.75492   0.03698   0.00000  Uiso   1.00
O268   O     0.95165   0.56813   0.68824   0.00000  Uiso   1.00
O269   O     0.76189   0.51060   0.43201   0.00000  Uiso   1.00
O270   O     0.95687   0.84541   0.07749   0.00000  Uiso   1.00
N271   N     0.77511   0.61179   0.66814   0.00000  Uiso   1.00
N272   N     0.92728   0.57078   0.48557   0.00000  Uiso   1.00
N273   N     0.06618   0.80937   0.23292   0.00000  Uiso   1.00
N274   N     0.70970   0.56661   0.54221   0.00000  Uiso   1.00
N275   N     0.86188   0.52560   0.35963   0.00000  Uiso   1.00
N276   N     0.00078   0.76419   0.10699   0.00000  Uiso   1.00
C277   C     0.65410   0.85066   0.47294   0.00000  Uiso   1.00
C278   C     0.53394   0.87205   0.46444   0.00000  Uiso   1.00
C279   C     0.54159   0.88273   0.54495   0.00000  Uiso   1.00
C280   C     0.42007   0.90211   0.52136   0.00000  Uiso   1.00
C281   C     0.25248   0.93407   0.52345   0.00000  Uiso   1.00
C282   C     0.67836   0.88493   0.41845   0.00000  Uiso   1.00
C283   C     0.80745   0.90643   0.46030   0.00000  Uiso   1.00
C284   C     0.80751   0.93665   0.39798   0.00000  Uiso   1.00
C285   C     0.86416   0.98857   0.32866   0.00000  Uiso   1.00
C286   C     0.59277   0.80559   0.40911   0.00000  Uiso   1.00
C287   C     0.64991   0.76038   0.44310   0.00000  Uiso   1.00
C288   C     0.57792   0.72380   0.37291   0.00000  Uiso   1.00
C289   C     0.50167   0.65254   0.28908   0.00000  Uiso   1.00
C290   C     0.42468   0.86610   0.28787   0.00000  Uiso   1.00
C291   C     0.40933   0.88043   0.36392   0.00000  Uiso   1.00
C292   C     0.28776   0.89980   0.34019   0.00000  Uiso   1.00
C293   C     0.29523   0.91051   0.42066   0.00000  Uiso   1.00
C294   C     0.55376   0.89331   0.31793   0.00000  Uiso   1.00
C295   C     0.55363   0.92350   0.25554   0.00000  Uiso   1.00
C296   C     0.68267   0.94505   0.29728   0.00000  Uiso   1.00
C297   C     0.46816   0.81397   0.30859   0.00000  Uiso   1.00
C298   C     0.39607   0.77746   0.23834   0.00000  Uiso   1.00
C299   C     0.45308   0.73220   0.27221   0.00000  Uiso   1.00
H300   H     0.75112   0.84414   0.55120   0.00000  Uiso   1.00
H301   H     0.63805   0.87624   0.62274   0.00000  Uiso   1.00
H302   H     0.90387   0.89993   0.53809   0.00000  Uiso   1.00
H303   H     0.74634   0.75391   0.52089   0.00000  Uiso   1.00
H304   H     0.45776   0.91554   0.65771   0.00000  Uiso   1.00
H305   H     0.01826   0.96549   0.47922   0.00000  Uiso   1.00
H306   H     0.68609   0.65757   0.44296   0.00000  Uiso   1.00
H307   H     0.32766   0.87262   0.20961   0.00000  Uiso   1.00
H308   H     0.19135   0.90629   0.26240   0.00000  Uiso   1.00
H309   H     0.45717   0.92998   0.17775   0.00000  Uiso   1.00
H310   H     0.29965   0.78396   0.16056   0.00000  Uiso   1.00
H311   H     0.09520   0.93994   0.36525   0.00000  Uiso   1.00
H312   H     0.65571   0.98988   0.18676   0.00000  Uiso   1.00
H313   H     0.32354   0.68196   0.15049   0.00000  Uiso   1.00
O314   O     0.19447   0.94939   0.55237   0.00000  Uiso   1.00
O315   O     0.92984   0.01490   0.31819   0.00000  Uiso   1.00
O316   O     0.49403   0.61092   0.27062   0.00000  Uiso   1.00
N317   N     0.39113   0.91666   0.58164   0.00000  Uiso   1.00
N318   N     0.91516   0.96335   0.41476   0.00000  Uiso   1.00
N319   N     0.60463   0.67548   0.38085   0.00000  Uiso   1.00
N320   N     0.19604   0.92978   0.42427   0.00000  Uiso   1.00
N321   N     0.72007   0.97648   0.25739   0.00000  Uiso   1.00
N322   N     0.40954   0.68860   0.22348   0.00000  Uiso   1.00
C323   C     0.73799   0.16797   0.02670   0.00000  Uiso   1.00
C324   C     0.61256   0.14145   0.00378   0.00000  Uiso   1.00
C325   C     0.47067   0.14432   0.91436   0.00000  Uiso   1.00
C326   C     0.37191   0.11727   0.90821   0.00000  Uiso   1.00
C327   C     0.17081   0.08047   0.86037   0.00000  Uiso   1.00
C328   C     0.84621   0.13014   0.05409   0.00000  Uiso   1.00
C329   C     0.90079   0.12351   0.00697   0.00000  Uiso   1.00
C330   C     0.99873   0.08694   0.04319   0.00000  Uiso   1.00
C331   C     0.16046   0.03260   0.07350   0.00000  Uiso   1.00
C332   C     0.80791   0.19590   0.12371   0.00000  Uiso   1.00
C333   C     0.83031   0.24455   0.13515   0.00000  Uiso   1.00
C334   C     0.89604   0.26334   0.22998   0.00000  Uiso   1.00
C335   C     0.99829   0.31110   0.36839   0.00000  Uiso   1.00
C336   C     0.81491   0.11484   0.17480   0.00000  Uiso   1.00
C337   C     0.65435   0.11259   0.08423   0.00000  Uiso   1.00
C338   C     0.55578   0.08553   0.07821   0.00000  Uiso   1.00
C339   C     0.41376   0.08836   0.98880   0.00000  Uiso   1.00
C340   C     0.88800   0.10128   0.13453   0.00000  Uiso   1.00
C341   C     0.98589   0.06472   0.17083   0.00000  Uiso   1.00
C342   C     0.04059   0.05803   0.12377   0.00000  Uiso   1.00
C343   C     0.84969   0.16704   0.20416   0.00000  Uiso   1.00
C344   C     0.91541   0.18576   0.29900   0.00000  Uiso   1.00
C345   C     0.93790   0.23443   0.31057   0.00000  Uiso   1.00
H346   H     0.70547   0.19043   0.96408   0.00000  Uiso   1.00
H347   H     0.43838   0.16665   0.85212   0.00000  Uiso   1.00
H348   H     0.86844   0.14585   0.94473   0.00000  Uiso   1.00
H349   H     0.79797   0.26687   0.07288   0.00000  Uiso   1.00
H350   H     0.16070   0.12754   0.76346   0.00000  Uiso   1.00
H351   H     0.06754   0.08369   0.95876   0.00000  Uiso   1.00
H352   H     0.91894   0.33888   0.22898   0.00000  Uiso   1.00
H353   H     0.84745   0.09237   0.23743   0.00000  Uiso   1.00
H354   H     0.58814   0.06320   0.14048   0.00000  Uiso   1.00
H355   H     0.01820   0.04240   0.23308   0.00000  Uiso   1.00
H356   H     0.94773   0.16342   0.36123   0.00000  Uiso   1.00
H357   H     0.28225   0.04358   0.99750   0.00000  Uiso   1.00
H358   H     0.18910   0.99972   0.19279   0.00000  Uiso   1.00
H359   H     0.04049   0.25492   0.46302   0.00000  Uiso   1.00
O360   O     0.04835   0.06813   0.81176   0.00000  Uiso   1.00
O361   O     0.23811   0.01060   0.06799   0.00000  Uiso   1.00
O362   O     0.04313   0.34541   0.42251   0.00000  Uiso   1.00
N363   N     0.22489   0.11179   0.83186   0.00000  Uiso   1.00
N364   N     0.07272   0.07078   0.01443   0.00000  Uiso   1.00
N365   N     0.93382   0.30937   0.26708   0.00000  Uiso   1.00
N366   N     0.29030   0.06661   0.95779   0.00000  Uiso   1.00
N367   N     0.13812   0.02560   0.14037   0.00000  Uiso   1.00
N368   N     0.99922   0.26419   0.39301   0.00000  Uiso   1.00
