data_job_04575
_audit_creation_date              2018-12-19
_audit_creation_method            'Materials Studio'
_symmetry_space_group_name_H-M    'P1'
_symmetry_Int_Tables_number       1
_symmetry_cell_setting            triclinic
loop_
_symmetry_equiv_pos_as_xyz
  x,y,z
_cell_length_a                    11.6919
_cell_length_b                    15.3727
_cell_length_c                    41.8184
_cell_angle_alpha                 84.0670
_cell_angle_beta                  93.2958
_cell_angle_gamma                 97.3960
loop_
_atom_site_label
_atom_site_type_symbol
_atom_site_fract_x
_atom_site_fract_y
_atom_site_fract_z
_atom_site_U_iso_or_equiv
_atom_site_adp_type
_atom_site_occupancy
C1     C     0.04078   0.02132   0.83242   0.00000  Uiso   1.00
C2     C     0.09440   0.95358   0.81585   0.00000  Uiso   1.00
C3     C     0.18665   0.97164   0.79575   0.00000  Uiso   1.00
C4     C     0.22294   0.90055   0.78294   0.00000  Uiso   1.00
C5     C     0.31440   0.80846   0.75611   0.00000  Uiso   1.00
C6     C     0.91297   0.01093   0.82204   0.00000  Uiso   1.00
C7     C     0.85268   0.07720   0.80714   0.00000  Uiso   1.00
C8     C     0.73624   0.05438   0.79955   0.00000  Uiso   1.00
C9     C     0.54600   0.05133   0.78235   0.00000  Uiso   1.00
C10    C     0.04670   0.99094   0.86830   0.00000  Uiso   1.00
C11    C     0.09882   0.04041   0.89231   0.00000  Uiso   1.00
C12    C     0.09494   0.00077   0.92367   0.00000  Uiso   1.00
C13    C     0.11234   0.96668   0.97830   0.00000  Uiso   1.00
C14    C     0.94118   0.86296   0.84543   0.00000  Uiso   1.00
C15    C     0.04030   0.86757   0.82291   0.00000  Uiso   1.00
C16    C     0.07646   0.79643   0.81013   0.00000  Uiso   1.00
C17    C     0.16875   0.81438   0.79001   0.00000  Uiso   1.00
C18    C     0.85888   0.92491   0.82910   0.00000  Uiso   1.00
C19    C     0.74249   0.90199   0.82153   0.00000  Uiso   1.00
C20    C     0.68204   0.96821   0.80662   0.00000  Uiso   1.00
C21    C     0.99261   0.90492   0.87536   0.00000  Uiso   1.00
C22    C     0.98864   0.86520   0.90669   0.00000  Uiso   1.00
C23    C     0.04074   0.91460   0.93074   0.00000  Uiso   1.00
H24    H     0.08288   0.08829   0.82693   0.00000  Uiso   1.00
H25    H     0.22848   0.03822   0.79028   0.00000  Uiso   1.00
H26    H     0.89456   0.14376   0.80168   0.00000  Uiso   1.00
H27    H     0.14067   0.10697   0.88684   0.00000  Uiso   1.00
H28    H     0.36602   0.94478   0.75276   0.00000  Uiso   1.00
H29    H     0.66193   0.16733   0.77681   0.00000  Uiso   1.00
H30    H     0.18088   0.08976   0.95637   0.00000  Uiso   1.00
H31    H     0.89907   0.79599   0.85092   0.00000  Uiso   1.00
H32    H     0.03458   0.72987   0.81560   0.00000  Uiso   1.00
H33    H     0.70066   0.83542   0.82700   0.00000  Uiso   1.00
H34    H     0.94677   0.79863   0.91215   0.00000  Uiso   1.00
H35    H     0.20864   0.69451   0.77331   0.00000  Uiso   1.00
H36    H     0.50454   0.91707   0.79735   0.00000  Uiso   1.00
H37    H     0.02351   0.83949   0.97691   0.00000  Uiso   1.00
O38    O     0.37977   0.78143   0.73936   0.00000  Uiso   1.00
O39    O     0.45602   0.07341   0.77091   0.00000  Uiso   1.00
O40    O     0.13689   0.97164   0.00649   0.00000  Uiso   1.00
N41    N     0.31040   0.89495   0.76245   0.00000  Uiso   1.00
N42    N     0.65212   0.10302   0.78493   0.00000  Uiso   1.00
N43    N     0.13727   0.03050   0.95280   0.00000  Uiso   1.00
N44    N     0.22572   0.76028   0.77351   0.00000  Uiso   1.00
N45    N     0.56743   0.96835   0.79598   0.00000  Uiso   1.00
N46    N     0.05259   0.89584   0.96386   0.00000  Uiso   1.00
C47    C     0.46342   0.65641   0.32705   0.00000  Uiso   1.00
C48    C     0.51564   0.58803   0.31043   0.00000  Uiso   1.00
C49    C     0.60659   0.60538   0.28987   0.00000  Uiso   1.00
C50    C     0.64172   0.53379   0.27712   0.00000  Uiso   1.00
C51    C     0.73098   0.44067   0.25016   0.00000  Uiso   1.00
C52    C     0.33509   0.64593   0.31726   0.00000  Uiso   1.00
C53    C     0.27425   0.71198   0.30244   0.00000  Uiso   1.00
C54    C     0.15739   0.68913   0.29543   0.00000  Uiso   1.00
C55    C     0.96632   0.68593   0.27909   0.00000  Uiso   1.00
C56    C     0.47143   0.62698   0.36297   0.00000  Uiso   1.00
C57    C     0.52519   0.67710   0.38660   0.00000  Uiso   1.00
C58    C     0.52309   0.63829   0.41809   0.00000  Uiso   1.00
C59    C     0.54372   0.60566   0.47273   0.00000  Uiso   1.00
C60    C     0.36407   0.49839   0.34095   0.00000  Uiso   1.00
C61    C     0.46167   0.50220   0.31799   0.00000  Uiso   1.00
C62    C     0.49668   0.43055   0.30526   0.00000  Uiso   1.00
C63    C     0.58767   0.44780   0.28469   0.00000  Uiso   1.00
C64    C     0.28113   0.56011   0.32481   0.00000  Uiso   1.00
C65    C     0.16433   0.53715   0.31783   0.00000  Uiso   1.00
C66    C     0.10332   0.60314   0.30300   0.00000  Uiso   1.00
C67    C     0.41747   0.54115   0.37053   0.00000  Uiso   1.00
C68    C     0.41528   0.50226   0.40199   0.00000  Uiso   1.00
C69    C     0.46903   0.55231   0.42566   0.00000  Uiso   1.00
H70    H     0.50542   0.72323   0.32116   0.00000  Uiso   1.00
H71    H     0.64832   0.67182   0.28403   0.00000  Uiso   1.00
H72    H     0.31603   0.77840   0.29660   0.00000  Uiso   1.00
H73    H     0.56694   0.74351   0.38075   0.00000  Uiso   1.00
H74    H     0.78293   0.57696   0.24618   0.00000  Uiso   1.00
H75    H     0.08226   0.80170   0.27269   0.00000  Uiso   1.00
H76    H     0.61135   0.72815   0.45014   0.00000  Uiso   1.00
H77    H     0.32205   0.43157   0.34683   0.00000  Uiso   1.00
H78    H     0.45490   0.36414   0.31111   0.00000  Uiso   1.00
H79    H     0.12260   0.47073   0.32368   0.00000  Uiso   1.00
H80    H     0.37351   0.43584   0.40782   0.00000  Uiso   1.00
H81    H     0.62594   0.32725   0.26816   0.00000  Uiso   1.00
H82    H     0.92526   0.55199   0.29467   0.00000  Uiso   1.00
H83    H     0.45436   0.47843   0.47211   0.00000  Uiso   1.00
O84    O     0.79511   0.41302   0.23320   0.00000  Uiso   1.00
O85    O     0.87585   0.70787   0.26799   0.00000  Uiso   1.00
O86    O     0.57001   0.61137   0.50078   0.00000  Uiso   1.00
N87    N     0.72777   0.52744   0.25626   0.00000  Uiso   1.00
N88    N     0.07268   0.73756   0.28105   0.00000  Uiso   1.00
N89    N     0.56731   0.66880   0.44694   0.00000  Uiso   1.00
N90    N     0.64329   0.39307   0.26809   0.00000  Uiso   1.00
N91    N     0.98821   0.60319   0.29287   0.00000  Uiso   1.00
N92    N     0.48284   0.53443   0.45876   0.00000  Uiso   1.00
C93    C     0.06417   0.29988   0.83203   0.00000  Uiso   1.00
C94    C     0.00561   0.37673   0.81553   0.00000  Uiso   1.00
C95    C     0.90711   0.36978   0.79534   0.00000  Uiso   1.00
C96    C     0.86706   0.44788   0.78264   0.00000  Uiso   1.00
C97    C     0.76757   0.55472   0.75591   0.00000  Uiso   1.00
C98    C     0.18877   0.31573   0.82175   0.00000  Uiso   1.00
C99    C     0.24427   0.25749   0.80679   0.00000  Uiso   1.00
C100   C     0.35841   0.28425   0.79932   0.00000  Uiso   1.00
C101   C     0.54331   0.29636   0.78227   0.00000  Uiso   1.00
C102   C     0.06942   0.31073   0.86794   0.00000  Uiso   1.00
C103   C     0.02460   0.24827   0.89181   0.00000  Uiso   1.00
C104   C     0.03829   0.27081   0.92323   0.00000  Uiso   1.00
C105   C     0.03788   0.27515   0.97789   0.00000  Uiso   1.00
C106   C     0.16820   0.45097   0.84537   0.00000  Uiso   1.00
C107   C     0.06212   0.45879   0.82278   0.00000  Uiso   1.00
C108   C     0.02221   0.53693   0.81010   0.00000  Uiso   1.00
C109   C     0.92366   0.53010   0.78990   0.00000  Uiso   1.00
C110   C     0.24528   0.39779   0.82900   0.00000  Uiso   1.00
C111   C     0.35937   0.42464   0.82155   0.00000  Uiso   1.00
C112   C     0.41502   0.36645   0.80658   0.00000  Uiso   1.00
C113   C     0.12593   0.39279   0.87518   0.00000  Uiso   1.00
C114   C     0.13970   0.41543   0.90658   0.00000  Uiso   1.00
C115   C     0.09490   0.35302   0.93050   0.00000  Uiso   1.00
H116   H     0.02018   0.23600   0.82638   0.00000  Uiso   1.00
H117   H     0.86341   0.30626   0.78974   0.00000  Uiso   1.00
H118   H     0.20052   0.19398   0.80119   0.00000  Uiso   1.00
H119   H     0.98088   0.18477   0.88620   0.00000  Uiso   1.00
H120   H     0.71454   0.42035   0.75229   0.00000  Uiso   1.00
H121   H     0.42537   0.18360   0.77645   0.00000  Uiso   1.00
H122   H     0.96222   0.16417   0.95571   0.00000  Uiso   1.00
H123   H     0.21220   0.51486   0.85101   0.00000  Uiso   1.00
H124   H     0.06596   0.60043   0.81572   0.00000  Uiso   1.00
H125   H     0.40307   0.48815   0.82717   0.00000  Uiso   1.00
H126   H     0.18343   0.47894   0.91218   0.00000  Uiso   1.00
H127   H     0.87894   0.65910   0.77338   0.00000  Uiso   1.00
H128   H     0.58977   0.42235   0.79753   0.00000  Uiso   1.00
H129   H     0.12662   0.40293   0.97679   0.00000  Uiso   1.00
O130   O     0.69710   0.59098   0.73917   0.00000  Uiso   1.00
O131   O     0.62968   0.28037   0.77086   0.00000  Uiso   1.00
O132   O     0.02203   0.25489   0.00604   0.00000  Uiso   1.00
N133   N     0.77329   0.46479   0.76211   0.00000  Uiso   1.00
N134   N     0.43786   0.24345   0.78468   0.00000  Uiso   1.00
N135   N     0.00488   0.22528   0.95228   0.00000  Uiso   1.00
N136   N     0.86175   0.59327   0.77345   0.00000  Uiso   1.00
N137   N     0.52633   0.37192   0.79603   0.00000  Uiso   1.00
N138   N     0.09335   0.35376   0.96362   0.00000  Uiso   1.00
C139   C     0.48105   0.93597   0.32698   0.00000  Uiso   1.00
C140   C     0.42359   0.01326   0.31040   0.00000  Uiso   1.00
C141   C     0.32604   0.00695   0.28984   0.00000  Uiso   1.00
C142   C     0.28691   0.08538   0.27712   0.00000  Uiso   1.00
C143   C     0.18913   0.19296   0.25020   0.00000  Uiso   1.00
C144   C     0.60624   0.95159   0.31720   0.00000  Uiso   1.00
C145   C     0.66225   0.89342   0.30235   0.00000  Uiso   1.00
C146   C     0.77688   0.91995   0.29536   0.00000  Uiso   1.00
C147   C     0.96269   0.93176   0.27902   0.00000  Uiso   1.00
C148   C     0.48460   0.94621   0.36292   0.00000  Uiso   1.00
C149   C     0.43836   0.88351   0.38652   0.00000  Uiso   1.00
C150   C     0.45059   0.90549   0.41802   0.00000  Uiso   1.00
C151   C     0.44752   0.90894   0.47267   0.00000  Uiso   1.00
C152   C     0.58504   0.08649   0.34096   0.00000  Uiso   1.00
C153   C     0.48008   0.09502   0.31799   0.00000  Uiso   1.00
C154   C     0.44108   0.17348   0.30530   0.00000  Uiso   1.00
C155   C     0.34349   0.16729   0.28472   0.00000  Uiso   1.00
C156   C     0.66272   0.03335   0.32479   0.00000  Uiso   1.00
C157   C     0.77730   0.05996   0.31782   0.00000  Uiso   1.00
C158   C     0.83346   0.00185   0.30296   0.00000  Uiso   1.00
C159   C     0.54107   0.02797   0.37051   0.00000  Uiso   1.00
C160   C     0.55339   0.05005   0.40198   0.00000  Uiso   1.00
C161   C     0.50718   0.98739   0.42563   0.00000  Uiso   1.00
H162   H     0.43709   0.87232   0.32107   0.00000  Uiso   1.00
H163   H     0.28236   0.94366   0.28397   0.00000  Uiso   1.00
H164   H     0.61852   0.83016   0.29648   0.00000  Uiso   1.00
H165   H     0.39466   0.82025   0.38064   0.00000  Uiso   1.00
H166   H     0.13575   0.05882   0.24617   0.00000  Uiso   1.00
H167   H     0.84458   0.81947   0.27257   0.00000  Uiso   1.00
H168   H     0.37251   0.79857   0.45002   0.00000  Uiso   1.00
H169   H     0.62901   0.15015   0.34687   0.00000  Uiso   1.00
H170   H     0.48481   0.23674   0.31118   0.00000  Uiso   1.00
H171   H     0.82098   0.12323   0.32370   0.00000  Uiso   1.00
H172   H     0.59711   0.11332   0.40785   0.00000  Uiso   1.00
H173   H     0.30007   0.29669   0.26825   0.00000  Uiso   1.00
H174   H     0.00890   0.05734   0.29466   0.00000  Uiso   1.00
H175   H     0.53683   0.03644   0.47211   0.00000  Uiso   1.00
O176   O     0.11961   0.22971   0.23326   0.00000  Uiso   1.00
O177   O     0.04957   0.91568   0.26791   0.00000  Uiso   1.00
O178   O     0.43022   0.88826   0.50072   0.00000  Uiso   1.00
N179   N     0.19420   0.10292   0.25627   0.00000  Uiso   1.00
N180   N     0.85690   0.87915   0.28095   0.00000  Uiso   1.00
N181   N     0.41559   0.85959   0.44685   0.00000  Uiso   1.00
N182   N     0.28261   0.23092   0.26815   0.00000  Uiso   1.00
N183   N     0.94532   0.00715   0.29283   0.00000  Uiso   1.00
N184   N     0.50400   0.98759   0.45874   0.00000  Uiso   1.00
C185   C     0.95922   0.97868   0.16758   0.00000  Uiso   1.00
C186   C     0.90560   0.04642   0.18415   0.00000  Uiso   1.00
C187   C     0.81335   0.02836   0.20425   0.00000  Uiso   1.00
C188   C     0.77706   0.09945   0.21706   0.00000  Uiso   1.00
C189   C     0.68560   0.19154   0.24389   0.00000  Uiso   1.00
C190   C     0.08703   0.98907   0.17796   0.00000  Uiso   1.00
C191   C     0.14732   0.92280   0.19286   0.00000  Uiso   1.00
C192   C     0.26376   0.94562   0.20045   0.00000  Uiso   1.00
C193   C     0.45400   0.94867   0.21765   0.00000  Uiso   1.00
C194   C     0.95330   0.00906   0.13170   0.00000  Uiso   1.00
C195   C     0.90118   0.95959   0.10769   0.00000  Uiso   1.00
C196   C     0.90506   0.99923   0.07633   0.00000  Uiso   1.00
C197   C     0.88766   0.03332   0.02170   0.00000  Uiso   1.00
C198   C     0.05882   0.13704   0.15457   0.00000  Uiso   1.00
C199   C     0.95970   0.13243   0.17709   0.00000  Uiso   1.00
C200   C     0.92354   0.20357   0.18987   0.00000  Uiso   1.00
C201   C     0.83125   0.18562   0.20999   0.00000  Uiso   1.00
C202   C     0.14112   0.07509   0.17090   0.00000  Uiso   1.00
C203   C     0.25751   0.09801   0.17847   0.00000  Uiso   1.00
C204   C     0.31796   0.03179   0.19338   0.00000  Uiso   1.00
C205   C     0.00739   0.09508   0.12464   0.00000  Uiso   1.00
C206   C     0.01136   0.13480   0.09331   0.00000  Uiso   1.00
C207   C     0.95926   0.08540   0.06926   0.00000  Uiso   1.00
H208   H     0.91712   0.91171   0.17307   0.00000  Uiso   1.00
H209   H     0.77152   0.96178   0.20972   0.00000  Uiso   1.00
H210   H     0.10544   0.85624   0.19832   0.00000  Uiso   1.00
H211   H     0.85933   0.89303   0.11316   0.00000  Uiso   1.00
H212   H     0.63398   0.05522   0.24724   0.00000  Uiso   1.00
H213   H     0.33807   0.83267   0.22319   0.00000  Uiso   1.00
H214   H     0.81912   0.91024   0.04363   0.00000  Uiso   1.00
H215   H     0.10093   0.20401   0.14908   0.00000  Uiso   1.00
H216   H     0.96542   0.27013   0.18440   0.00000  Uiso   1.00
H217   H     0.29934   0.16458   0.17300   0.00000  Uiso   1.00
H218   H     0.05323   0.20137   0.08785   0.00000  Uiso   1.00
H219   H     0.79136   0.30549   0.22669   0.00000  Uiso   1.00
H220   H     0.49546   0.08293   0.20265   0.00000  Uiso   1.00
H221   H     0.97649   0.16051   0.02309   0.00000  Uiso   1.00
O222   O     0.62023   0.21857   0.26064   0.00000  Uiso   1.00
O223   O     0.54398   0.92659   0.22909   0.00000  Uiso   1.00
O224   O     0.86311   0.02836   0.99351   0.00000  Uiso   1.00
N225   N     0.68960   0.10505   0.23755   0.00000  Uiso   1.00
N226   N     0.34788   0.89698   0.21507   0.00000  Uiso   1.00
N227   N     0.86273   0.96950   0.04720   0.00000  Uiso   1.00
N228   N     0.77428   0.23972   0.22649   0.00000  Uiso   1.00
N229   N     0.43257   0.03165   0.20402   0.00000  Uiso   1.00
N230   N     0.94741   0.10416   0.03614   0.00000  Uiso   1.00
C231   C     0.53658   0.34359   0.67295   0.00000  Uiso   1.00
C232   C     0.48436   0.41197   0.68957   0.00000  Uiso   1.00
C233   C     0.39341   0.39462   0.71013   0.00000  Uiso   1.00
C234   C     0.35828   0.46621   0.72288   0.00000  Uiso   1.00
C235   C     0.26902   0.55933   0.74984   0.00000  Uiso   1.00
C236   C     0.66491   0.35407   0.68274   0.00000  Uiso   1.00
C237   C     0.72575   0.28802   0.69756   0.00000  Uiso   1.00
C238   C     0.84261   0.31087   0.70457   0.00000  Uiso   1.00
C239   C     0.03368   0.31407   0.72091   0.00000  Uiso   1.00
C240   C     0.52857   0.37302   0.63703   0.00000  Uiso   1.00
C241   C     0.47481   0.32290   0.61340   0.00000  Uiso   1.00
C242   C     0.47691   0.36171   0.58191   0.00000  Uiso   1.00
C243   C     0.45628   0.39434   0.52727   0.00000  Uiso   1.00
C244   C     0.63593   0.50161   0.65905   0.00000  Uiso   1.00
C245   C     0.53833   0.49780   0.68201   0.00000  Uiso   1.00
C246   C     0.50332   0.56945   0.69474   0.00000  Uiso   1.00
C247   C     0.41233   0.55220   0.71531   0.00000  Uiso   1.00
C248   C     0.71887   0.43989   0.67519   0.00000  Uiso   1.00
C249   C     0.83567   0.46285   0.68217   0.00000  Uiso   1.00
C250   C     0.89668   0.39686   0.69700   0.00000  Uiso   1.00
C251   C     0.58253   0.45885   0.62947   0.00000  Uiso   1.00
C252   C     0.58472   0.49774   0.59801   0.00000  Uiso   1.00
C253   C     0.53097   0.44769   0.57434   0.00000  Uiso   1.00
H254   H     0.49458   0.27677   0.67884   0.00000  Uiso   1.00
H255   H     0.35168   0.32818   0.71597   0.00000  Uiso   1.00
H256   H     0.68397   0.22160   0.70340   0.00000  Uiso   1.00
H257   H     0.43306   0.25649   0.61925   0.00000  Uiso   1.00
H258   H     0.21707   0.42304   0.75382   0.00000  Uiso   1.00
H259   H     0.91774   0.19830   0.72731   0.00000  Uiso   1.00
H260   H     0.38865   0.27185   0.54986   0.00000  Uiso   1.00
H261   H     0.67795   0.56843   0.65317   0.00000  Uiso   1.00
H262   H     0.54510   0.63586   0.68889   0.00000  Uiso   1.00
H263   H     0.87740   0.52927   0.67632   0.00000  Uiso   1.00
H264   H     0.62649   0.56416   0.59218   0.00000  Uiso   1.00
H265   H     0.37406   0.67275   0.73184   0.00000  Uiso   1.00
H266   H     0.07474   0.44801   0.70533   0.00000  Uiso   1.00
H267   H     0.54564   0.52157   0.52789   0.00000  Uiso   1.00
O268   O     0.20489   0.58698   0.76680   0.00000  Uiso   1.00
O269   O     0.12415   0.29213   0.73201   0.00000  Uiso   1.00
O270   O     0.42999   0.38863   0.49922   0.00000  Uiso   1.00
N271   N     0.27223   0.47256   0.74374   0.00000  Uiso   1.00
N272   N     0.92732   0.26244   0.71895   0.00000  Uiso   1.00
N273   N     0.43269   0.33120   0.55306   0.00000  Uiso   1.00
N274   N     0.35671   0.60693   0.73191   0.00000  Uiso   1.00
N275   N     0.01179   0.39681   0.70713   0.00000  Uiso   1.00
N276   N     0.51716   0.46557   0.54124   0.00000  Uiso   1.00
C277   C     0.93583   0.70012   0.16797   0.00000  Uiso   1.00
C278   C     0.99439   0.62327   0.18447   0.00000  Uiso   1.00
C279   C     0.09289   0.63022   0.20466   0.00000  Uiso   1.00
C280   C     0.13294   0.55212   0.21736   0.00000  Uiso   1.00
C281   C     0.23243   0.44528   0.24409   0.00000  Uiso   1.00
C282   C     0.81123   0.68427   0.17825   0.00000  Uiso   1.00
C283   C     0.75573   0.74251   0.19321   0.00000  Uiso   1.00
C284   C     0.64159   0.71575   0.20068   0.00000  Uiso   1.00
C285   C     0.45669   0.70364   0.21773   0.00000  Uiso   1.00
C286   C     0.93058   0.68927   0.13206   0.00000  Uiso   1.00
C287   C     0.97540   0.75173   0.10819   0.00000  Uiso   1.00
C288   C     0.96171   0.72919   0.07677   0.00000  Uiso   1.00
C289   C     0.96212   0.72485   0.02211   0.00000  Uiso   1.00
C290   C     0.83180   0.54903   0.15463   0.00000  Uiso   1.00
C291   C     0.93788   0.54121   0.17722   0.00000  Uiso   1.00
C292   C     0.97779   0.46307   0.18990   0.00000  Uiso   1.00
C293   C     0.07634   0.46990   0.21010   0.00000  Uiso   1.00
C294   C     0.75472   0.60221   0.17100   0.00000  Uiso   1.00
C295   C     0.64063   0.57536   0.17845   0.00000  Uiso   1.00
C296   C     0.58498   0.63355   0.19342   0.00000  Uiso   1.00
C297   C     0.87407   0.60721   0.12482   0.00000  Uiso   1.00
C298   C     0.86030   0.58457   0.09342   0.00000  Uiso   1.00
C299   C     0.90510   0.64698   0.06950   0.00000  Uiso   1.00
H300   H     0.97982   0.76400   0.17362   0.00000  Uiso   1.00
H301   H     0.13659   0.69374   0.21026   0.00000  Uiso   1.00
H302   H     0.79948   0.80602   0.19881   0.00000  Uiso   1.00
H303   H     0.01912   0.81523   0.11380   0.00000  Uiso   1.00
H304   H     0.28546   0.57965   0.24771   0.00000  Uiso   1.00
H305   H     0.57463   0.81640   0.22355   0.00000  Uiso   1.00
H306   H     0.03778   0.83583   0.04429   0.00000  Uiso   1.00
H307   H     0.78780   0.48514   0.14899   0.00000  Uiso   1.00
H308   H     0.93404   0.39957   0.18428   0.00000  Uiso   1.00
H309   H     0.59693   0.51185   0.17283   0.00000  Uiso   1.00
H310   H     0.81657   0.52106   0.08782   0.00000  Uiso   1.00
H311   H     0.12106   0.34090   0.22662   0.00000  Uiso   1.00
H312   H     0.41023   0.57765   0.20247   0.00000  Uiso   1.00
H313   H     0.87338   0.59707   0.02321   0.00000  Uiso   1.00
O314   O     0.30290   0.40902   0.26083   0.00000  Uiso   1.00
O315   O     0.37032   0.71963   0.22914   0.00000  Uiso   1.00
O316   O     0.97797   0.74511   0.99396   0.00000  Uiso   1.00
N317   N     0.22671   0.53521   0.23789   0.00000  Uiso   1.00
N318   N     0.56214   0.75655   0.21532   0.00000  Uiso   1.00
N319   N     0.99512   0.77472   0.04772   0.00000  Uiso   1.00
N320   N     0.13825   0.40673   0.22655   0.00000  Uiso   1.00
N321   N     0.47367   0.62808   0.20397   0.00000  Uiso   1.00
N322   N     0.90665   0.64624   0.03638   0.00000  Uiso   1.00
C323   C     0.51895   0.06403   0.67302   0.00000  Uiso   1.00
C324   C     0.57641   0.98674   0.68960   0.00000  Uiso   1.00
C325   C     0.67396   0.99305   0.71016   0.00000  Uiso   1.00
C326   C     0.71309   0.91462   0.72288   0.00000  Uiso   1.00
C327   C     0.81087   0.80704   0.74980   0.00000  Uiso   1.00
C328   C     0.39376   0.04841   0.68280   0.00000  Uiso   1.00
C329   C     0.33775   0.10658   0.69765   0.00000  Uiso   1.00
C330   C     0.22312   0.08005   0.70464   0.00000  Uiso   1.00
C331   C     0.03731   0.06824   0.72098   0.00000  Uiso   1.00
C332   C     0.51540   0.05379   0.63708   0.00000  Uiso   1.00
C333   C     0.56164   0.11649   0.61348   0.00000  Uiso   1.00
C334   C     0.54941   0.09451   0.58198   0.00000  Uiso   1.00
C335   C     0.55248   0.09106   0.52733   0.00000  Uiso   1.00
C336   C     0.41496   0.91351   0.65904   0.00000  Uiso   1.00
C337   C     0.51992   0.90498   0.68201   0.00000  Uiso   1.00
C338   C     0.55892   0.82652   0.69470   0.00000  Uiso   1.00
C339   C     0.65651   0.83271   0.71528   0.00000  Uiso   1.00
C340   C     0.33728   0.96665   0.67521   0.00000  Uiso   1.00
C341   C     0.22270   0.94004   0.68218   0.00000  Uiso   1.00
C342   C     0.16654   0.99815   0.69704   0.00000  Uiso   1.00
C343   C     0.45893   0.97203   0.62949   0.00000  Uiso   1.00
C344   C     0.44661   0.94995   0.59802   0.00000  Uiso   1.00
C345   C     0.49282   0.01261   0.57437   0.00000  Uiso   1.00
H346   H     0.56291   0.12768   0.67893   0.00000  Uiso   1.00
H347   H     0.71764   0.05634   0.71603   0.00000  Uiso   1.00
H348   H     0.38148   0.16984   0.70352   0.00000  Uiso   1.00
H349   H     0.60534   0.17975   0.61936   0.00000  Uiso   1.00
H350   H     0.86425   0.94118   0.75383   0.00000  Uiso   1.00
H351   H     0.15542   0.18053   0.72743   0.00000  Uiso   1.00
H352   H     0.62749   0.20143   0.54998   0.00000  Uiso   1.00
H353   H     0.37099   0.84985   0.65313   0.00000  Uiso   1.00
H354   H     0.51519   0.76326   0.68882   0.00000  Uiso   1.00
H355   H     0.17902   0.87677   0.67630   0.00000  Uiso   1.00
H356   H     0.40289   0.88668   0.59215   0.00000  Uiso   1.00
H357   H     0.69993   0.70331   0.73175   0.00000  Uiso   1.00
H358   H     0.99110   0.94266   0.70534   0.00000  Uiso   1.00
H359   H     0.46317   0.96356   0.52789   0.00000  Uiso   1.00
O360   O     0.88039   0.77029   0.76674   0.00000  Uiso   1.00
O361   O     0.95043   0.08432   0.73209   0.00000  Uiso   1.00
O362   O     0.56978   0.11174   0.49928   0.00000  Uiso   1.00
N363   N     0.80580   0.89708   0.74373   0.00000  Uiso   1.00
N364   N     0.14310   0.12085   0.71905   0.00000  Uiso   1.00
N365   N     0.58441   0.14041   0.55315   0.00000  Uiso   1.00
N366   N     0.71739   0.76908   0.73185   0.00000  Uiso   1.00
N367   N     0.05468   0.99285   0.70717   0.00000  Uiso   1.00
N368   N     0.49600   0.01241   0.54126   0.00000  Uiso   1.00
