data_job_05978
_audit_creation_date              2018-12-19
_audit_creation_method            'Materials Studio'
_symmetry_space_group_name_H-M    'P1'
_symmetry_Int_Tables_number       1
_symmetry_cell_setting            triclinic
loop_
_symmetry_equiv_pos_as_xyz
  x,y,z
_cell_length_a                    12.4404
_cell_length_b                    19.1686
_cell_length_c                    19.2312
_cell_angle_alpha                 64.1410
_cell_angle_beta                  78.6825
_cell_angle_gamma                 101.2492
loop_
_atom_site_label
_atom_site_type_symbol
_atom_site_fract_x
_atom_site_fract_y
_atom_site_fract_z
_atom_site_U_iso_or_equiv
_atom_site_adp_type
_atom_site_occupancy
C1     C     0.92495   0.78496   0.86484   0.00000  Uiso   1.00
C2     C     0.80667   0.73773   0.93017   0.00000  Uiso   1.00
C3     C     0.71779   0.76966   0.94106   0.00000  Uiso   1.00
C4     C     0.61625   0.71647   0.00432   0.00000  Uiso   1.00
C5     C     0.43446   0.65565   0.09809   0.00000  Uiso   1.00
C6     C     0.01355   0.77472   0.91017   0.00000  Uiso   1.00
C7     C     0.09861   0.83775   0.90425   0.00000  Uiso   1.00
C8     C     0.17121   0.81569   0.95067   0.00000  Uiso   1.00
C9     C     0.31065   0.81229   0.01336   0.00000  Uiso   1.00
C10    C     0.93936   0.73879   0.81791   0.00000  Uiso   1.00
C11    C     0.96208   0.77161   0.73440   0.00000  Uiso   1.00
C12    C     0.97226   0.71932   0.70313   0.00000  Uiso   1.00
C13    C     0.99651   0.66013   0.62256   0.00000  Uiso   1.00
C14    C     0.90266   0.63373   0.95781   0.00000  Uiso   1.00
C15    C     0.79457   0.65559   0.98066   0.00000  Uiso   1.00
C16    C     0.69313   0.60234   0.04392   0.00000  Uiso   1.00
C17    C     0.60411   0.63418   0.05490   0.00000  Uiso   1.00
C18    C     0.00144   0.69258   0.96067   0.00000  Uiso   1.00
C19    C     0.07395   0.67043   0.00711   0.00000  Uiso   1.00
C20    C     0.15909   0.73341   0.00126   0.00000  Uiso   1.00
C21    C     0.92725   0.65665   0.86840   0.00000  Uiso   1.00
C22    C     0.93741   0.60429   0.83726   0.00000  Uiso   1.00
C23    C     0.96014   0.63703   0.75372   0.00000  Uiso   1.00
H24    H     0.93438   0.84891   0.82553   0.00000  Uiso   1.00
H25    H     0.72720   0.83323   0.90197   0.00000  Uiso   1.00
H26    H     0.10796   0.90131   0.86516   0.00000  Uiso   1.00
H27    H     0.97145   0.83518   0.69534   0.00000  Uiso   1.00
H28    H     0.49218   0.77963   0.00901   0.00000  Uiso   1.00
H29    H     0.29505   0.92317   0.93136   0.00000  Uiso   1.00
H30    H     0.00720   0.78374   0.57326   0.00000  Uiso   1.00
H31    H     0.89324   0.56977   0.99713   0.00000  Uiso   1.00
H32    H     0.68379   0.53878   0.08299   0.00000  Uiso   1.00
H33    H     0.06455   0.60686   0.04618   0.00000  Uiso   1.00
H34    H     0.92804   0.54073   0.87636   0.00000  Uiso   1.00
H35    H     0.45694   0.54064   0.15593   0.00000  Uiso   1.00
H36    H     0.25983   0.68419   0.07828   0.00000  Uiso   1.00
H37    H     0.97196   0.54475   0.72019   0.00000  Uiso   1.00
O38    O     0.33753   0.64479   0.13587   0.00000  Uiso   1.00
O39    O     0.39090   0.83311   0.03399   0.00000  Uiso   1.00
O40    O     0.01322   0.65017   0.56418   0.00000  Uiso   1.00
N41    N     0.51262   0.72764   0.03179   0.00000  Uiso   1.00
N42    N     0.26325   0.86184   0.95921   0.00000  Uiso   1.00
N43    N     0.99416   0.73148   0.62441   0.00000  Uiso   1.00
N44    N     0.49366   0.59904   0.11085   0.00000  Uiso   1.00
N45    N     0.24430   0.73324   0.03827   0.00000  Uiso   1.00
N46    N     0.97520   0.60289   0.70347   0.00000  Uiso   1.00
C47    C     0.14554   0.35031   0.78620   0.00000  Uiso   1.00
C48    C     0.07298   0.33291   0.73677   0.00000  Uiso   1.00
C49    C     0.95519   0.29157   0.76610   0.00000  Uiso   1.00
C50    C     0.90475   0.28191   0.71121   0.00000  Uiso   1.00
C51    C     0.78218   0.25020   0.64684   0.00000  Uiso   1.00
C52    C     0.24279   0.31388   0.77815   0.00000  Uiso   1.00
C53    C     0.26778   0.25656   0.84226   0.00000  Uiso   1.00
C54    C     0.36029   0.23089   0.82219   0.00000  Uiso   1.00
C55    C     0.50141   0.16969   0.82205   0.00000  Uiso   1.00
C56    C     0.20301   0.44275   0.74113   0.00000  Uiso   1.00
C57    C     0.19459   0.49379   0.77413   0.00000  Uiso   1.00
C58    C     0.25364   0.57663   0.72290   0.00000  Uiso   1.00
C59    C     0.33300   0.71551   0.66530   0.00000  Uiso   1.00
C60    C     0.26542   0.40667   0.63656   0.00000  Uiso   1.00
C61    C     0.13810   0.36352   0.65550   0.00000  Uiso   1.00
C62    C     0.08782   0.35392   0.60054   0.00000  Uiso   1.00
C63    C     0.96998   0.31258   0.62978   0.00000  Uiso   1.00
C64    C     0.30790   0.34449   0.69687   0.00000  Uiso   1.00
C65    C     0.40041   0.31891   0.67670   0.00000  Uiso   1.00
C66    C     0.42552   0.26156   0.74077   0.00000  Uiso   1.00
C67    C     0.26812   0.47337   0.65985   0.00000  Uiso   1.00
C68    C     0.32721   0.55614   0.60857   0.00000  Uiso   1.00
C69    C     0.31887   0.60729   0.64148   0.00000  Uiso   1.00
H70    H     0.09485   0.32648   0.84948   0.00000  Uiso   1.00
H71    H     0.90483   0.26788   0.82901   0.00000  Uiso   1.00
H72    H     0.21738   0.23289   0.90515   0.00000  Uiso   1.00
H73    H     0.14419   0.47008   0.83703   0.00000  Uiso   1.00
H74    H     0.72288   0.21639   0.77047   0.00000  Uiso   1.00
H75    H     0.38192   0.14262   0.93103   0.00000  Uiso   1.00
H76    H     0.22760   0.64279   0.78738   0.00000  Uiso   1.00
H77    H     0.31612   0.43050   0.57328   0.00000  Uiso   1.00
H78    H     0.13823   0.37762   0.53765   0.00000  Uiso   1.00
H79    H     0.45078   0.34262   0.61380   0.00000  Uiso   1.00
H80    H     0.37759   0.57981   0.54567   0.00000  Uiso   1.00
H81    H     0.91232   0.30545   0.53400   0.00000  Uiso   1.00
H82    H     0.57137   0.23168   0.69456   0.00000  Uiso   1.00
H83    H     0.41704   0.73185   0.55091   0.00000  Uiso   1.00
O84    O     0.69660   0.22424   0.63379   0.00000  Uiso   1.00
O85    O     0.56125   0.12746   0.84443   0.00000  Uiso   1.00
O86    O     0.35878   0.78367   0.65597   0.00000  Uiso   1.00
N87    N     0.79187   0.24463   0.71970   0.00000  Uiso   1.00
N88    N     0.40803   0.17564   0.86982   0.00000  Uiso   1.00
N89    N     0.26378   0.64326   0.73552   0.00000  Uiso   1.00
N90    N     0.89381   0.29255   0.59246   0.00000  Uiso   1.00
N91    N     0.50996   0.22357   0.74257   0.00000  Uiso   1.00
N92    N     0.36571   0.69118   0.60828   0.00000  Uiso   1.00
C93    C     0.79210   0.86244   0.35117   0.00000  Uiso   1.00
C94    C     0.73662   0.93006   0.33238   0.00000  Uiso   1.00
C95    C     0.65897   0.94293   0.28883   0.00000  Uiso   1.00
C96    C     0.61809   0.00811   0.27820   0.00000  Uiso   1.00
C97    C     0.52657   0.10546   0.24414   0.00000  Uiso   1.00
C98    C     0.92238   0.90527   0.31761   0.00000  Uiso   1.00
C99    C     0.00092   0.89728   0.26164   0.00000  Uiso   1.00
C100   C     0.11642   0.94159   0.23858   0.00000  Uiso   1.00
C101   C     0.31331   0.00040   0.18164   0.00000  Uiso   1.00
C102   C     0.76219   0.81566   0.44367   0.00000  Uiso   1.00
C103   C     0.70605   0.73231   0.49369   0.00000  Uiso   1.00
C104   C     0.68670   0.70116   0.57677   0.00000  Uiso   1.00
C105   C     0.63486   0.62083   0.71555   0.00000  Uiso   1.00
C106   C     0.85758   0.95534   0.40976   0.00000  Uiso   1.00
C107   C     0.77219   0.98052   0.36420   0.00000  Uiso   1.00
C108   C     0.73141   0.04570   0.35364   0.00000  Uiso   1.00
C109   C     0.65371   0.05866   0.31008   0.00000  Uiso   1.00
C110   C     0.95795   0.95573   0.34942   0.00000  Uiso   1.00
C111   C     0.07336   0.00006   0.32645   0.00000  Uiso   1.00
C112   C     0.15205   0.99214   0.27046   0.00000  Uiso   1.00
C113   C     0.79775   0.86611   0.47549   0.00000  Uiso   1.00
C114   C     0.77849   0.83509   0.55850   0.00000  Uiso   1.00
C115   C     0.72233   0.75171   0.60865   0.00000  Uiso   1.00
H116   H     0.76442   0.82316   0.32640   0.00000  Uiso   1.00
H117   H     0.63148   0.90387   0.26420   0.00000  Uiso   1.00
H118   H     0.97337   0.85822   0.23703   0.00000  Uiso   1.00
H119   H     0.67854   0.69328   0.46905   0.00000  Uiso   1.00
H120   H     0.49980   0.01562   0.20926   0.00000  Uiso   1.00
H121   H     0.22071   0.91935   0.15198   0.00000  Uiso   1.00
H122   H     0.59901   0.57153   0.64123   0.00000  Uiso   1.00
H123   H     0.88527   0.99462   0.43453   0.00000  Uiso   1.00
H124   H     0.75895   0.08474   0.37827   0.00000  Uiso   1.00
H125   H     0.10085   0.03909   0.35109   0.00000  Uiso   1.00
H126   H     0.80602   0.87415   0.58311   0.00000  Uiso   1.00
H127   H     0.60326   0.16242   0.30183   0.00000  Uiso   1.00
H128   H     0.32418   0.06615   0.24455   0.00000  Uiso   1.00
H129   H     0.70247   0.71833   0.73381   0.00000  Uiso   1.00
O130   O     0.46628   0.14522   0.21656   0.00000  Uiso   1.00
O131   O     0.41209   0.01891   0.14143   0.00000  Uiso   1.00
O132   O     0.59643   0.56258   0.78331   0.00000  Uiso   1.00
N133   N     0.54146   0.03779   0.23878   0.00000  Uiso   1.00
N134   N     0.21548   0.94780   0.18522   0.00000  Uiso   1.00
N135   N     0.63426   0.62261   0.64263   0.00000  Uiso   1.00
N136   N     0.59714   0.11678   0.28860   0.00000  Uiso   1.00
N137   N     0.27115   0.02679   0.23503   0.00000  Uiso   1.00
N138   N     0.68993   0.70160   0.69244   0.00000  Uiso   1.00
C139   C     0.07505   0.21504   0.13516   0.00000  Uiso   1.00
C140   C     0.19333   0.26227   0.06983   0.00000  Uiso   1.00
C141   C     0.28221   0.23034   0.05894   0.00000  Uiso   1.00
C142   C     0.38375   0.28353   0.99568   0.00000  Uiso   1.00
C143   C     0.56554   0.34435   0.90191   0.00000  Uiso   1.00
C144   C     0.98645   0.22528   0.08983   0.00000  Uiso   1.00
C145   C     0.90139   0.16225   0.09575   0.00000  Uiso   1.00
C146   C     0.82879   0.18431   0.04933   0.00000  Uiso   1.00
C147   C     0.68935   0.18771   0.98664   0.00000  Uiso   1.00
C148   C     0.06064   0.26121   0.18209   0.00000  Uiso   1.00
C149   C     0.03792   0.22839   0.26560   0.00000  Uiso   1.00
C150   C     0.02774   0.28068   0.29687   0.00000  Uiso   1.00
C151   C     0.00348   0.33987   0.37744   0.00000  Uiso   1.00
C152   C     0.09734   0.36627   0.04219   0.00000  Uiso   1.00
C153   C     0.20543   0.34441   0.01934   0.00000  Uiso   1.00
C154   C     0.30687   0.39766   0.95608   0.00000  Uiso   1.00
C155   C     0.39589   0.36582   0.94510   0.00000  Uiso   1.00
C156   C     0.99856   0.30742   0.03933   0.00000  Uiso   1.00
C157   C     0.92605   0.32957   0.99289   0.00000  Uiso   1.00
C158   C     0.84091   0.26660   0.99874   0.00000  Uiso   1.00
C159   C     0.07274   0.34335   0.13160   0.00000  Uiso   1.00
C160   C     0.06259   0.39571   0.16274   0.00000  Uiso   1.00
C161   C     0.03986   0.36297   0.24628   0.00000  Uiso   1.00
H162   H     0.06562   0.15109   0.17447   0.00000  Uiso   1.00
H163   H     0.27280   0.16677   0.09803   0.00000  Uiso   1.00
H164   H     0.89204   0.09869   0.13484   0.00000  Uiso   1.00
H165   H     0.02855   0.16482   0.30466   0.00000  Uiso   1.00
H166   H     0.50782   0.22037   0.99099   0.00000  Uiso   1.00
H167   H     0.70495   0.07683   0.06864   0.00000  Uiso   1.00
H168   H     0.99280   0.21626   0.42674   0.00000  Uiso   1.00
H169   H     0.10676   0.43023   0.00287   0.00000  Uiso   1.00
H170   H     0.31621   0.46122   0.91701   0.00000  Uiso   1.00
H171   H     0.93544   0.39314   0.95382   0.00000  Uiso   1.00
H172   H     0.07196   0.45927   0.12364   0.00000  Uiso   1.00
H173   H     0.54306   0.45936   0.84407   0.00000  Uiso   1.00
H174   H     0.74017   0.31581   0.92172   0.00000  Uiso   1.00
H175   H     0.02804   0.45525   0.27981   0.00000  Uiso   1.00
O176   O     0.66247   0.35521   0.86413   0.00000  Uiso   1.00
O177   O     0.60910   0.16689   0.96601   0.00000  Uiso   1.00
O178   O     0.98678   0.34983   0.43582   0.00000  Uiso   1.00
N179   N     0.48738   0.27236   0.96821   0.00000  Uiso   1.00
N180   N     0.73675   0.13816   0.04079   0.00000  Uiso   1.00
N181   N     0.00584   0.26852   0.37559   0.00000  Uiso   1.00
N182   N     0.50634   0.40096   0.88915   0.00000  Uiso   1.00
N183   N     0.75570   0.26676   0.96173   0.00000  Uiso   1.00
N184   N     0.02480   0.39711   0.29653   0.00000  Uiso   1.00
C185   C     0.85446   0.64969   0.21380   0.00000  Uiso   1.00
C186   C     0.92702   0.66709   0.26323   0.00000  Uiso   1.00
C187   C     0.04481   0.70843   0.23390   0.00000  Uiso   1.00
C188   C     0.09525   0.71809   0.28879   0.00000  Uiso   1.00
C189   C     0.21782   0.74980   0.35316   0.00000  Uiso   1.00
C190   C     0.75721   0.68612   0.22185   0.00000  Uiso   1.00
C191   C     0.73222   0.74344   0.15774   0.00000  Uiso   1.00
C192   C     0.63971   0.76911   0.17781   0.00000  Uiso   1.00
C193   C     0.49859   0.83031   0.17795   0.00000  Uiso   1.00
C194   C     0.79699   0.55725   0.25887   0.00000  Uiso   1.00
C195   C     0.80541   0.50621   0.22587   0.00000  Uiso   1.00
C196   C     0.74636   0.42337   0.27710   0.00000  Uiso   1.00
C197   C     0.66700   0.28449   0.33470   0.00000  Uiso   1.00
C198   C     0.73458   0.59333   0.36344   0.00000  Uiso   1.00
C199   C     0.86190   0.63648   0.34450   0.00000  Uiso   1.00
C200   C     0.91218   0.64608   0.39946   0.00000  Uiso   1.00
C201   C     0.03002   0.68742   0.37022   0.00000  Uiso   1.00
C202   C     0.69210   0.65551   0.30313   0.00000  Uiso   1.00
C203   C     0.59959   0.68109   0.32330   0.00000  Uiso   1.00
C204   C     0.57448   0.73844   0.25923   0.00000  Uiso   1.00
C205   C     0.73188   0.52663   0.34015   0.00000  Uiso   1.00
C206   C     0.67279   0.44386   0.39143   0.00000  Uiso   1.00
C207   C     0.68113   0.39271   0.35852   0.00000  Uiso   1.00
H208   H     0.90515   0.67352   0.15052   0.00000  Uiso   1.00
H209   H     0.09517   0.73212   0.17099   0.00000  Uiso   1.00
H210   H     0.78262   0.76711   0.09485   0.00000  Uiso   1.00
H211   H     0.85581   0.52992   0.16297   0.00000  Uiso   1.00
H212   H     0.27712   0.78361   0.22953   0.00000  Uiso   1.00
H213   H     0.61808   0.85738   0.06897   0.00000  Uiso   1.00
H214   H     0.77239   0.35721   0.21262   0.00000  Uiso   1.00
H215   H     0.68388   0.56950   0.42672   0.00000  Uiso   1.00
H216   H     0.86177   0.62238   0.46235   0.00000  Uiso   1.00
H217   H     0.54922   0.65738   0.38620   0.00000  Uiso   1.00
H218   H     0.62241   0.42019   0.45433   0.00000  Uiso   1.00
H219   H     0.08768   0.69455   0.46600   0.00000  Uiso   1.00
H220   H     0.42863   0.76832   0.30544   0.00000  Uiso   1.00
H221   H     0.58296   0.26815   0.44909   0.00000  Uiso   1.00
O222   O     0.30340   0.77576   0.36621   0.00000  Uiso   1.00
O223   O     0.43875   0.87254   0.15557   0.00000  Uiso   1.00
O224   O     0.64122   0.21633   0.34403   0.00000  Uiso   1.00
N225   N     0.20813   0.75537   0.28030   0.00000  Uiso   1.00
N226   N     0.59197   0.82436   0.13018   0.00000  Uiso   1.00
N227   N     0.73622   0.35674   0.26448   0.00000  Uiso   1.00
N228   N     0.10619   0.70745   0.40754   0.00000  Uiso   1.00
N229   N     0.49004   0.77643   0.25743   0.00000  Uiso   1.00
N230   N     0.63429   0.30882   0.39172   0.00000  Uiso   1.00
C231   C     0.20790   0.13756   0.64883   0.00000  Uiso   1.00
C232   C     0.26338   0.06994   0.66762   0.00000  Uiso   1.00
C233   C     0.34103   0.05707   0.71117   0.00000  Uiso   1.00
C234   C     0.38191   0.99189   0.72180   0.00000  Uiso   1.00
C235   C     0.47343   0.89454   0.75586   0.00000  Uiso   1.00
C236   C     0.07762   0.09473   0.68239   0.00000  Uiso   1.00
C237   C     0.99908   0.10272   0.73836   0.00000  Uiso   1.00
C238   C     0.88358   0.05841   0.76142   0.00000  Uiso   1.00
C239   C     0.68668   0.99960   0.81836   0.00000  Uiso   1.00
C240   C     0.23781   0.18434   0.55633   0.00000  Uiso   1.00
C241   C     0.29395   0.26769   0.50631   0.00000  Uiso   1.00
C242   C     0.31330   0.29884   0.42323   0.00000  Uiso   1.00
C243   C     0.36514   0.37917   0.28445   0.00000  Uiso   1.00
C244   C     0.14242   0.04466   0.59024   0.00000  Uiso   1.00
C245   C     0.22781   0.01948   0.63580   0.00000  Uiso   1.00
C246   C     0.26859   0.95430   0.64636   0.00000  Uiso   1.00
C247   C     0.34629   0.94134   0.68992   0.00000  Uiso   1.00
C248   C     0.04205   0.04427   0.65058   0.00000  Uiso   1.00
C249   C     0.92664   0.99994   0.67355   0.00000  Uiso   1.00
C250   C     0.84795   0.00786   0.72954   0.00000  Uiso   1.00
C251   C     0.20225   0.13389   0.52451   0.00000  Uiso   1.00
C252   C     0.22151   0.16491   0.44150   0.00000  Uiso   1.00
C253   C     0.27767   0.24829   0.39135   0.00000  Uiso   1.00
H254   H     0.23558   0.17684   0.67360   0.00000  Uiso   1.00
H255   H     0.36852   0.09613   0.73579   0.00000  Uiso   1.00
H256   H     0.02663   0.14178   0.76297   0.00000  Uiso   1.00
H257   H     0.32146   0.30672   0.53095   0.00000  Uiso   1.00
H258   H     0.50020   0.98438   0.79074   0.00000  Uiso   1.00
H259   H     0.77929   0.08065   0.84802   0.00000  Uiso   1.00
H260   H     0.40099   0.42847   0.35877   0.00000  Uiso   1.00
H261   H     0.11473   0.00538   0.56547   0.00000  Uiso   1.00
H262   H     0.24105   0.91526   0.62173   0.00000  Uiso   1.00
H263   H     0.89915   0.96091   0.64891   0.00000  Uiso   1.00
H264   H     0.19398   0.12585   0.41689   0.00000  Uiso   1.00
H265   H     0.39674   0.83758   0.69817   0.00000  Uiso   1.00
H266   H     0.67582   0.93385   0.75545   0.00000  Uiso   1.00
H267   H     0.29753   0.28167   0.26619   0.00000  Uiso   1.00
O268   O     0.53372   0.85478   0.78344   0.00000  Uiso   1.00
O269   O     0.58791   0.98109   0.85857   0.00000  Uiso   1.00
O270   O     0.40357   0.43742   0.21669   0.00000  Uiso   1.00
N271   N     0.45853   0.96221   0.76122   0.00000  Uiso   1.00
N272   N     0.78452   0.05220   0.81478   0.00000  Uiso   1.00
N273   N     0.36574   0.37739   0.35737   0.00000  Uiso   1.00
N274   N     0.40286   0.88322   0.71140   0.00000  Uiso   1.00
N275   N     0.72885   0.97321   0.76497   0.00000  Uiso   1.00
N276   N     0.31007   0.29840   0.30756   0.00000  Uiso   1.00
