data_job_06023
_audit_creation_date              2018-12-19
_audit_creation_method            'Materials Studio'
_symmetry_space_group_name_H-M    'P1'
_symmetry_Int_Tables_number       1
_symmetry_cell_setting            triclinic
loop_
_symmetry_equiv_pos_as_xyz
  x,y,z
_cell_length_a                    8.1382
_cell_length_b                    22.2023
_cell_length_c                    23.1260
_cell_angle_alpha                 117.7930
_cell_angle_beta                  100.0076
_cell_angle_gamma                 91.1503
loop_
_atom_site_label
_atom_site_type_symbol
_atom_site_fract_x
_atom_site_fract_y
_atom_site_fract_z
_atom_site_U_iso_or_equiv
_atom_site_adp_type
_atom_site_occupancy
C1     C     0.58825   0.21701   0.38113   0.00000  Uiso   1.00
C2     C     0.48876   0.16026   0.31468   0.00000  Uiso   1.00
C3     C     0.55663   0.11442   0.26199   0.00000  Uiso   1.00
C4     C     0.44447   0.06629   0.20545   0.00000  Uiso   1.00
C5     C     0.31642   0.97851   0.10283   0.00000  Uiso   1.00
C6     C     0.52125   0.28348   0.38894   0.00000  Uiso   1.00
C7     C     0.61644   0.34125   0.39868   0.00000  Uiso   1.00
C8     C     0.53163   0.39685   0.40467   0.00000  Uiso   1.00
C9     C     0.45404   0.50039   0.41738   0.00000  Uiso   1.00
C10    C     0.53553   0.20459   0.43517   0.00000  Uiso   1.00
C11    C     0.64272   0.19605   0.48379   0.00000  Uiso   1.00
C12    C     0.56993   0.18525   0.52871   0.00000  Uiso   1.00
C13    C     0.51450   0.16631   0.61319   0.00000  Uiso   1.00
C14    C     0.26838   0.21304   0.37444   0.00000  Uiso   1.00
C15    C     0.31502   0.15810   0.31105   0.00000  Uiso   1.00
C16    C     0.20272   0.11003   0.25459   0.00000  Uiso   1.00
C17    C     0.27041   0.06413   0.20181   0.00000  Uiso   1.00
C18    C     0.34751   0.28132   0.38531   0.00000  Uiso   1.00
C19    C     0.26254   0.33686   0.39129   0.00000  Uiso   1.00
C20    C     0.35757   0.39469   0.40103   0.00000  Uiso   1.00
C21    C     0.36178   0.20243   0.43154   0.00000  Uiso   1.00
C22    C     0.28881   0.19165   0.47639   0.00000  Uiso   1.00
C23    C     0.39587   0.18309   0.52507   0.00000  Uiso   1.00
H24    H     0.72351   0.21870   0.38395   0.00000  Uiso   1.00
H25    H     0.69109   0.11611   0.26481   0.00000  Uiso   1.00
H26    H     0.75089   0.34290   0.40150   0.00000  Uiso   1.00
H27    H     0.77716   0.19772   0.48659   0.00000  Uiso   1.00
H28    H     0.57852   0.00144   0.13111   0.00000  Uiso   1.00
H29    H     0.70463   0.47966   0.41934   0.00000  Uiso   1.00
H30    H     0.76003   0.17352   0.59877   0.00000  Uiso   1.00
H31    H     0.13311   0.21136   0.37161   0.00000  Uiso   1.00
H32    H     0.06828   0.10837   0.25179   0.00000  Uiso   1.00
H33    H     0.12809   0.33517   0.38848   0.00000  Uiso   1.00
H34    H     0.15436   0.18999   0.47356   0.00000  Uiso   1.00
H35    H     0.07303   0.99516   0.12054   0.00000  Uiso   1.00
H36    H     0.19914   0.47338   0.40878   0.00000  Uiso   1.00
H37    H     0.25453   0.16724   0.58820   0.00000  Uiso   1.00
O38    O     0.29378   0.93070   0.04722   0.00000  Uiso   1.00
O39    O     0.45924   0.55810   0.42538   0.00000  Uiso   1.00
O40    O     0.53192   0.15645   0.66078   0.00000  Uiso   1.00
N41    N     0.46845   0.01409   0.14507   0.00000  Uiso   1.00
N42    N     0.58635   0.46119   0.41454   0.00000  Uiso   1.00
N43    N     0.63815   0.17499   0.58230   0.00000  Uiso   1.00
N44    N     0.19645   0.01071   0.13939   0.00000  Uiso   1.00
N45    N     0.31435   0.45781   0.40885   0.00000  Uiso   1.00
N46    N     0.36615   0.17161   0.57661   0.00000  Uiso   1.00
C47    C     0.42026   0.62253   0.83197   0.00000  Uiso   1.00
C48    C     0.34361   0.68843   0.84391   0.00000  Uiso   1.00
C49    C     0.42514   0.74630   0.84818   0.00000  Uiso   1.00
C50    C     0.33326   0.80132   0.85933   0.00000  Uiso   1.00
C51    C     0.23974   0.90408   0.87689   0.00000  Uiso   1.00
C52    C     0.39976   0.61056   0.89025   0.00000  Uiso   1.00
C53    C     0.52850   0.60296   0.93348   0.00000  Uiso   1.00
C54    C     0.48388   0.59242   0.98363   0.00000  Uiso   1.00
C55    C     0.47752   0.57423   0.07310   0.00000  Uiso   1.00
C56    C     0.30622   0.56504   0.77012   0.00000  Uiso   1.00
C57    C     0.35632   0.51915   0.71234   0.00000  Uiso   1.00
C58    C     0.23294   0.47027   0.66135   0.00000  Uiso   1.00
C59    C     0.08135   0.38141   0.56430   0.00000  Uiso   1.00
C60    C     0.11210   0.61731   0.84416   0.00000  Uiso   1.00
C61    C     0.17623   0.68559   0.85053   0.00000  Uiso   1.00
C62    C     0.08420   0.74053   0.86167   0.00000  Uiso   1.00
C63    C     0.16558   0.79848   0.86596   0.00000  Uiso   1.00
C64    C     0.23239   0.60772   0.89687   0.00000  Uiso   1.00
C65    C     0.18757   0.59718   0.94696   0.00000  Uiso   1.00
C66    C     0.31621   0.58957   0.99026   0.00000  Uiso   1.00
C67    C     0.13884   0.56220   0.77673   0.00000  Uiso   1.00
C68    C     0.01538   0.51338   0.72582   0.00000  Uiso   1.00
C69    C     0.06527   0.46743   0.66798   0.00000  Uiso   1.00
H70    H     0.55057   0.62474   0.82682   0.00000  Uiso   1.00
H71    H     0.55468   0.74848   0.84307   0.00000  Uiso   1.00
H72    H     0.65802   0.60515   0.92834   0.00000  Uiso   1.00
H73    H     0.48585   0.52136   0.70724   0.00000  Uiso   1.00
H74    H     0.48544   0.88443   0.86402   0.00000  Uiso   1.00
H75    H     0.70333   0.58219   0.04382   0.00000  Uiso   1.00
H76    H     0.34029   0.40550   0.57757   0.00000  Uiso   1.00
H77    H     0.98179   0.61510   0.84931   0.00000  Uiso   1.00
H78    H     0.95468   0.73832   0.86679   0.00000  Uiso   1.00
H79    H     0.05803   0.59499   0.95207   0.00000  Uiso   1.00
H80    H     0.88586   0.51120   0.73096   0.00000  Uiso   1.00
H81    H     0.99847   0.87618   0.88327   0.00000  Uiso   1.00
H82    H     0.21636   0.57393   0.06307   0.00000  Uiso   1.00
H83    H     0.85332   0.39725   0.59683   0.00000  Uiso   1.00
O84    O     0.23440   0.96154   0.88476   0.00000  Uiso   1.00
O85    O     0.52027   0.56500   0.12064   0.00000  Uiso   1.00
O86    O     0.04397   0.33319   0.50893   0.00000  Uiso   1.00
N87    N     0.37454   0.86557   0.86614   0.00000  Uiso   1.00
N88    N     0.57826   0.58301   0.03425   0.00000  Uiso   1.00
N89    N     0.23886   0.41780   0.59835   0.00000  Uiso   1.00
N90    N     0.11250   0.86114   0.87650   0.00000  Uiso   1.00
N91    N     0.31622   0.57857   0.04461   0.00000  Uiso   1.00
N92    N     0.97682   0.41337   0.60871   0.00000  Uiso   1.00
C93    C     0.20468   0.17058   0.78747   0.00000  Uiso   1.00
C94    C     0.17030   0.15400   0.84156   0.00000  Uiso   1.00
C95    C     0.29117   0.15152   0.89051   0.00000  Uiso   1.00
C96    C     0.23416   0.13540   0.93539   0.00000  Uiso   1.00
C97    C     0.20692   0.11162   0.01997   0.00000  Uiso   1.00
C98    C     0.11824   0.10994   0.72103   0.00000  Uiso   1.00
C99    C     0.19534   0.07042   0.66865   0.00000  Uiso   1.00
C100   C     0.09450   0.01721   0.61207   0.00000  Uiso   1.00
C101   C     0.98641   0.92506   0.50951   0.00000  Uiso   1.00
C102   C     0.10880   0.23121   0.79477   0.00000  Uiso   1.00
C103   C     0.17794   0.29365   0.80436   0.00000  Uiso   1.00
C104   C     0.06913   0.34253   0.80984   0.00000  Uiso   1.00
C105   C     0.94638   0.43867   0.82176   0.00000  Uiso   1.00
C106   C     0.88848   0.14637   0.78011   0.00000  Uiso   1.00
C107   C     0.99856   0.14085   0.83756   0.00000  Uiso   1.00
C108   C     0.94134   0.12473   0.88237   0.00000  Uiso   1.00
C109   C     0.06211   0.12223   0.93139   0.00000  Uiso   1.00
C110   C     0.94651   0.09679   0.71703   0.00000  Uiso   1.00
C111   C     0.84552   0.04363   0.66051   0.00000  Uiso   1.00
C112   C     0.92244   0.00404   0.60806   0.00000  Uiso   1.00
C113   C     0.93705   0.21806   0.79077   0.00000  Uiso   1.00
C114   C     0.82811   0.26686   0.79622   0.00000  Uiso   1.00
C115   C     0.89708   0.32936   0.80583   0.00000  Uiso   1.00
H116   H     0.33838   0.18082   0.79058   0.00000  Uiso   1.00
H117   H     0.42407   0.16169   0.89359   0.00000  Uiso   1.00
H118   H     0.32825   0.08061   0.67176   0.00000  Uiso   1.00
H119   H     0.31085   0.30380   0.80746   0.00000  Uiso   1.00
H120   H     0.44334   0.13467   0.00602   0.00000  Uiso   1.00
H121   H     0.24128   0.96372   0.53827   0.00000  Uiso   1.00
H122   H     0.20459   0.43436   0.82441   0.00000  Uiso   1.00
H123   H     0.75477   0.13613   0.77699   0.00000  Uiso   1.00
H124   H     0.80843   0.11455   0.87927   0.00000  Uiso   1.00
H125   H     0.71261   0.03347   0.65743   0.00000  Uiso   1.00
H126   H     0.69522   0.25666   0.79313   0.00000  Uiso   1.00
H127   H     0.94366   0.09640   0.99439   0.00000  Uiso   1.00
H128   H     0.74161   0.92545   0.52664   0.00000  Uiso   1.00
H129   H     0.70492   0.39610   0.81278   0.00000  Uiso   1.00
O130   O     0.23933   0.10212   0.06771   0.00000  Uiso   1.00
O131   O     0.97424   0.87785   0.45404   0.00000  Uiso   1.00
O132   O     0.92611   0.49533   0.82945   0.00000  Uiso   1.00
N133   N     0.31837   0.12863   0.98925   0.00000  Uiso   1.00
N134   N     0.12947   0.96880   0.55194   0.00000  Uiso   1.00
N135   N     0.09516   0.40881   0.81944   0.00000  Uiso   1.00
N136   N     0.04950   0.10804   0.98300   0.00000  Uiso   1.00
N137   N     0.86060   0.94821   0.54569   0.00000  Uiso   1.00
N138   N     0.82629   0.38822   0.81318   0.00000  Uiso   1.00
C139   C     0.41175   0.78299   0.61887   0.00000  Uiso   1.00
C140   C     0.51124   0.83974   0.68531   0.00000  Uiso   1.00
C141   C     0.44337   0.88558   0.73801   0.00000  Uiso   1.00
C142   C     0.55553   0.93371   0.79455   0.00000  Uiso   1.00
C143   C     0.68359   0.02149   0.89717   0.00000  Uiso   1.00
C144   C     0.47875   0.71652   0.61106   0.00000  Uiso   1.00
C145   C     0.38356   0.65875   0.60132   0.00000  Uiso   1.00
C146   C     0.46837   0.60315   0.59533   0.00000  Uiso   1.00
C147   C     0.54596   0.49961   0.58262   0.00000  Uiso   1.00
C148   C     0.46447   0.79541   0.56483   0.00000  Uiso   1.00
C149   C     0.35728   0.80395   0.51621   0.00000  Uiso   1.00
C150   C     0.43007   0.81475   0.47129   0.00000  Uiso   1.00
C151   C     0.48550   0.83369   0.38681   0.00000  Uiso   1.00
C152   C     0.73162   0.78696   0.62556   0.00000  Uiso   1.00
C153   C     0.68498   0.84190   0.68895   0.00000  Uiso   1.00
C154   C     0.79728   0.88997   0.74541   0.00000  Uiso   1.00
C155   C     0.72959   0.93587   0.79819   0.00000  Uiso   1.00
C156   C     0.65249   0.71868   0.61469   0.00000  Uiso   1.00
C157   C     0.73746   0.66314   0.60871   0.00000  Uiso   1.00
C158   C     0.64243   0.60531   0.59897   0.00000  Uiso   1.00
C159   C     0.63822   0.79757   0.56846   0.00000  Uiso   1.00
C160   C     0.71119   0.80835   0.52361   0.00000  Uiso   1.00
C161   C     0.60413   0.81691   0.47493   0.00000  Uiso   1.00
H162   H     0.27649   0.78130   0.61605   0.00000  Uiso   1.00
H163   H     0.30891   0.88389   0.73519   0.00000  Uiso   1.00
H164   H     0.24911   0.65709   0.59850   0.00000  Uiso   1.00
H165   H     0.22284   0.80228   0.51341   0.00000  Uiso   1.00
H166   H     0.42148   0.99856   0.86889   0.00000  Uiso   1.00
H167   H     0.29537   0.52034   0.58066   0.00000  Uiso   1.00
H168   H     0.23997   0.82648   0.40123   0.00000  Uiso   1.00
H169   H     0.86690   0.78864   0.62839   0.00000  Uiso   1.00
H170   H     0.93172   0.89163   0.74821   0.00000  Uiso   1.00
H171   H     0.87191   0.66483   0.61152   0.00000  Uiso   1.00
H172   H     0.84564   0.81001   0.52644   0.00000  Uiso   1.00
H173   H     0.92698   0.00484   0.87946   0.00000  Uiso   1.00
H174   H     0.80086   0.52662   0.59122   0.00000  Uiso   1.00
H175   H     0.74547   0.83276   0.41180   0.00000  Uiso   1.00
O176   O     0.70622   0.06930   0.95278   0.00000  Uiso   1.00
O177   O     0.54076   0.44190   0.57462   0.00000  Uiso   1.00
O178   O     0.46808   0.84355   0.33922   0.00000  Uiso   1.00
N179   N     0.53155   0.98591   0.85493   0.00000  Uiso   1.00
N180   N     0.41365   0.53881   0.58546   0.00000  Uiso   1.00
N181   N     0.36185   0.82501   0.41770   0.00000  Uiso   1.00
N182   N     0.80355   0.98929   0.86061   0.00000  Uiso   1.00
N183   N     0.68565   0.54219   0.59115   0.00000  Uiso   1.00
N184   N     0.63385   0.82839   0.42338   0.00000  Uiso   1.00
C185   C     0.57975   0.37747   0.16803   0.00000  Uiso   1.00
C186   C     0.65639   0.31157   0.15609   0.00000  Uiso   1.00
C187   C     0.57486   0.25370   0.15182   0.00000  Uiso   1.00
C188   C     0.66674   0.19868   0.14067   0.00000  Uiso   1.00
C189   C     0.76026   0.09592   0.12311   0.00000  Uiso   1.00
C190   C     0.60024   0.38944   0.10975   0.00000  Uiso   1.00
C191   C     0.47150   0.39704   0.06652   0.00000  Uiso   1.00
C192   C     0.51612   0.40758   0.01637   0.00000  Uiso   1.00
C193   C     0.52248   0.42577   0.92689   0.00000  Uiso   1.00
C194   C     0.69378   0.43496   0.22988   0.00000  Uiso   1.00
C195   C     0.64368   0.48085   0.28766   0.00000  Uiso   1.00
C196   C     0.76706   0.52973   0.33865   0.00000  Uiso   1.00
C197   C     0.91865   0.61859   0.43570   0.00000  Uiso   1.00
C198   C     0.88790   0.38269   0.15584   0.00000  Uiso   1.00
C199   C     0.82377   0.31441   0.14947   0.00000  Uiso   1.00
C200   C     0.91580   0.25947   0.13833   0.00000  Uiso   1.00
C201   C     0.83442   0.20152   0.13404   0.00000  Uiso   1.00
C202   C     0.76761   0.39228   0.10313   0.00000  Uiso   1.00
C203   C     0.81243   0.40282   0.05304   0.00000  Uiso   1.00
C204   C     0.68379   0.41043   0.00974   0.00000  Uiso   1.00
C205   C     0.86116   0.43780   0.22327   0.00000  Uiso   1.00
C206   C     0.98462   0.48662   0.27418   0.00000  Uiso   1.00
C207   C     0.93473   0.53257   0.33202   0.00000  Uiso   1.00
H208   H     0.44943   0.37526   0.17318   0.00000  Uiso   1.00
H209   H     0.44532   0.25152   0.15693   0.00000  Uiso   1.00
H210   H     0.34198   0.39485   0.07166   0.00000  Uiso   1.00
H211   H     0.51415   0.47864   0.29276   0.00000  Uiso   1.00
H212   H     0.51456   0.11557   0.13598   0.00000  Uiso   1.00
H213   H     0.29667   0.41781   0.95618   0.00000  Uiso   1.00
H214   H     0.65971   0.59450   0.42243   0.00000  Uiso   1.00
H215   H     0.01821   0.38490   0.15069   0.00000  Uiso   1.00
H216   H     0.04532   0.26168   0.13321   0.00000  Uiso   1.00
H217   H     0.94197   0.40501   0.04793   0.00000  Uiso   1.00
H218   H     0.11414   0.48880   0.26904   0.00000  Uiso   1.00
H219   H     0.00153   0.12382   0.11673   0.00000  Uiso   1.00
H220   H     0.78364   0.42607   0.93693   0.00000  Uiso   1.00
H221   H     0.14668   0.60275   0.40317   0.00000  Uiso   1.00
O222   O     0.76560   0.03846   0.11524   0.00000  Uiso   1.00
O223   O     0.47973   0.43500   0.87936   0.00000  Uiso   1.00
O224   O     0.95603   0.66681   0.49107   0.00000  Uiso   1.00
N225   N     0.62546   0.13443   0.13386   0.00000  Uiso   1.00
N226   N     0.42174   0.41699   0.96575   0.00000  Uiso   1.00
N227   N     0.76114   0.58220   0.40165   0.00000  Uiso   1.00
N228   N     0.88750   0.13886   0.12350   0.00000  Uiso   1.00
N229   N     0.68378   0.42143   0.95539   0.00000  Uiso   1.00
N230   N     0.02318   0.58663   0.39129   0.00000  Uiso   1.00
C231   C     0.79532   0.82942   0.21253   0.00000  Uiso   1.00
C232   C     0.82970   0.84600   0.15844   0.00000  Uiso   1.00
C233   C     0.70883   0.84848   0.10949   0.00000  Uiso   1.00
C234   C     0.76584   0.86460   0.06461   0.00000  Uiso   1.00
C235   C     0.79309   0.88838   0.98003   0.00000  Uiso   1.00
C236   C     0.88176   0.89006   0.27897   0.00000  Uiso   1.00
C237   C     0.80466   0.92958   0.33135   0.00000  Uiso   1.00
C238   C     0.90550   0.98279   0.38793   0.00000  Uiso   1.00
C239   C     0.01359   0.07494   0.49049   0.00000  Uiso   1.00
C240   C     0.89120   0.76879   0.20523   0.00000  Uiso   1.00
C241   C     0.82206   0.70635   0.19564   0.00000  Uiso   1.00
C242   C     0.93087   0.65747   0.19016   0.00000  Uiso   1.00
C243   C     0.05362   0.56133   0.17824   0.00000  Uiso   1.00
C244   C     0.11152   0.85363   0.21989   0.00000  Uiso   1.00
C245   C     0.00144   0.85915   0.16244   0.00000  Uiso   1.00
C246   C     0.05866   0.87527   0.11763   0.00000  Uiso   1.00
C247   C     0.93789   0.87777   0.06861   0.00000  Uiso   1.00
C248   C     0.05349   0.90321   0.28297   0.00000  Uiso   1.00
C249   C     0.15448   0.95637   0.33949   0.00000  Uiso   1.00
C250   C     0.07756   0.99596   0.39194   0.00000  Uiso   1.00
C251   C     0.06295   0.78194   0.20923   0.00000  Uiso   1.00
C252   C     0.17189   0.73314   0.20378   0.00000  Uiso   1.00
C253   C     0.10292   0.67064   0.19417   0.00000  Uiso   1.00
H254   H     0.66162   0.81918   0.20942   0.00000  Uiso   1.00
H255   H     0.57593   0.83831   0.10641   0.00000  Uiso   1.00
H256   H     0.67175   0.91939   0.32824   0.00000  Uiso   1.00
H257   H     0.68915   0.69620   0.19254   0.00000  Uiso   1.00
H258   H     0.55666   0.86533   0.99398   0.00000  Uiso   1.00
H259   H     0.75872   0.03628   0.46173   0.00000  Uiso   1.00
H260   H     0.79541   0.56564   0.17559   0.00000  Uiso   1.00
H261   H     0.24523   0.86387   0.22301   0.00000  Uiso   1.00
H262   H     0.19157   0.88545   0.12073   0.00000  Uiso   1.00
H263   H     0.28739   0.96653   0.34257   0.00000  Uiso   1.00
H264   H     0.30479   0.74334   0.20687   0.00000  Uiso   1.00
H265   H     0.05634   0.90360   0.00561   0.00000  Uiso   1.00
H266   H     0.25839   0.07455   0.47336   0.00000  Uiso   1.00
H267   H     0.29508   0.60390   0.18722   0.00000  Uiso   1.00
O268   O     0.76067   0.89788   0.93229   0.00000  Uiso   1.00
O269   O     0.02576   0.12215   0.54596   0.00000  Uiso   1.00
O270   O     0.07389   0.50467   0.17055   0.00000  Uiso   1.00
N271   N     0.68163   0.87137   0.01074   0.00000  Uiso   1.00
N272   N     0.87053   0.03120   0.44806   0.00000  Uiso   1.00
N273   N     0.90484   0.59119   0.18056   0.00000  Uiso   1.00
N274   N     0.95050   0.89196   0.01700   0.00000  Uiso   1.00
N275   N     0.13940   0.05179   0.45431   0.00000  Uiso   1.00
N276   N     0.17371   0.61178   0.18682   0.00000  Uiso   1.00
