data_job_02938
_audit_creation_date              2018-12-19
_audit_creation_method            'Materials Studio'
_symmetry_space_group_name_H-M    'P1'
_symmetry_Int_Tables_number       1
_symmetry_cell_setting            triclinic
loop_
_symmetry_equiv_pos_as_xyz
  x,y,z
_cell_length_a                    14.1366
_cell_length_b                    11.9571
_cell_length_c                    24.8733
_cell_angle_alpha                 90.0000
_cell_angle_beta                  43.9421
_cell_angle_gamma                 90.0000
loop_
_atom_site_label
_atom_site_type_symbol
_atom_site_fract_x
_atom_site_fract_y
_atom_site_fract_z
_atom_site_U_iso_or_equiv
_atom_site_adp_type
_atom_site_occupancy
C1     C     0.33516   0.72702   0.98034   0.00000  Uiso   1.00
C2     C     0.23319   0.81777   0.00664   0.00000  Uiso   1.00
C3     C     0.26567   0.92448   0.97554   0.00000  Uiso   1.00
C4     C     0.15767   0.99519   0.00766   0.00000  Uiso   1.00
C5     C     0.01996   0.14143   0.03923   0.00000  Uiso   1.00
C6     C     0.29996   0.69318   0.05220   0.00000  Uiso   1.00
C7     C     0.38859   0.69514   0.05942   0.00000  Uiso   1.00
C8     C     0.33679   0.66095   0.12989   0.00000  Uiso   1.00
C9     C     0.30277   0.61369   0.23219   0.00000  Uiso   1.00
C10    C     0.30129   0.62611   0.95918   0.00000  Uiso   1.00
C11    C     0.39105   0.57164   0.88817   0.00000  Uiso   1.00
C12    C     0.34038   0.48096   0.88033   0.00000  Uiso   1.00
C13    C     0.30843   0.32955   0.83819   0.00000  Uiso   1.00
C14    C     0.08559   0.66281   0.09268   0.00000  Uiso   1.00
C15    C     0.09763   0.78289   0.06765   0.00000  Uiso   1.00
C16    C     0.98955   0.85345   0.09983   0.00000  Uiso   1.00
C17    C     0.02187   0.96026   0.06878   0.00000  Uiso   1.00
C18    C     0.16441   0.65831   0.11322   0.00000  Uiso   1.00
C19    C     0.11247   0.62411   0.18370   0.00000  Uiso   1.00
C20    C     0.20099   0.62602   0.19102   0.00000  Uiso   1.00
C21    C     0.16574   0.59123   0.02019   0.00000  Uiso   1.00
C22    C     0.11492   0.50061   0.01246   0.00000  Uiso   1.00
C23    C     0.20458   0.44602   0.94146   0.00000  Uiso   1.00
H24    H     0.44069   0.75416   0.93284   0.00000  Uiso   1.00
H25    H     0.37059   0.95144   0.92832   0.00000  Uiso   1.00
H26    H     0.49349   0.72212   0.01219   0.00000  Uiso   1.00
H27    H     0.49594   0.59865   0.84097   0.00000  Uiso   1.00
H28    H     0.23309   0.15480   0.95024   0.00000  Uiso   1.00
H29    H     0.49224   0.67122   0.12706   0.00000  Uiso   1.00
H30    H     0.49742   0.41085   0.76602   0.00000  Uiso   1.00
H31    H     0.98005   0.63566   0.14019   0.00000  Uiso   1.00
H32    H     0.88466   0.82644   0.14704   0.00000  Uiso   1.00
H33    H     0.00756   0.59712   0.23091   0.00000  Uiso   1.00
H34    H     0.01002   0.47365   0.05969   0.00000  Uiso   1.00
H35    H     0.83869   0.05335   0.12777   0.00000  Uiso   1.00
H36    H     0.09784   0.56977   0.30458   0.00000  Uiso   1.00
H37    H     0.10302   0.30940   0.94354   0.00000  Uiso   1.00
O38    O     0.98145   0.23173   0.03979   0.00000  Uiso   1.00
O39    O     0.32146   0.59727   0.27176   0.00000  Uiso   1.00
O40    O     0.32825   0.25568   0.79809   0.00000  Uiso   1.00
N41    N     0.15335   0.10473   0.99107   0.00000  Uiso   1.00
N42    N     0.39564   0.65264   0.15639   0.00000  Uiso   1.00
N43    N     0.40050   0.40919   0.81885   0.00000  Uiso   1.00
N44    N     0.94113   0.05014   0.08660   0.00000  Uiso   1.00
N45    N     0.18342   0.59804   0.25191   0.00000  Uiso   1.00
N46    N     0.18827   0.35460   0.91438   0.00000  Uiso   1.00
C47    C     0.66484   0.22702   0.51966   0.00000  Uiso   1.00
C48    C     0.76681   0.31777   0.49336   0.00000  Uiso   1.00
C49    C     0.73433   0.42448   0.52446   0.00000  Uiso   1.00
C50    C     0.84233   0.49519   0.49234   0.00000  Uiso   1.00
C51    C     0.98004   0.64143   0.46077   0.00000  Uiso   1.00
C52    C     0.70004   0.19318   0.44780   0.00000  Uiso   1.00
C53    C     0.61141   0.19514   0.44058   0.00000  Uiso   1.00
C54    C     0.66321   0.16095   0.37011   0.00000  Uiso   1.00
C55    C     0.69723   0.11369   0.26781   0.00000  Uiso   1.00
C56    C     0.69871   0.12611   0.54082   0.00000  Uiso   1.00
C57    C     0.60895   0.07164   0.61183   0.00000  Uiso   1.00
C58    C     0.65962   0.98096   0.61967   0.00000  Uiso   1.00
C59    C     0.69157   0.82955   0.66181   0.00000  Uiso   1.00
C60    C     0.91441   0.16281   0.40732   0.00000  Uiso   1.00
C61    C     0.90237   0.28289   0.43235   0.00000  Uiso   1.00
C62    C     0.01045   0.35345   0.40017   0.00000  Uiso   1.00
C63    C     0.97813   0.46026   0.43122   0.00000  Uiso   1.00
C64    C     0.83559   0.15831   0.38678   0.00000  Uiso   1.00
C65    C     0.88753   0.12411   0.31630   0.00000  Uiso   1.00
C66    C     0.79901   0.12602   0.30898   0.00000  Uiso   1.00
C67    C     0.83426   0.09123   0.47981   0.00000  Uiso   1.00
C68    C     0.88508   0.00061   0.48754   0.00000  Uiso   1.00
C69    C     0.79542   0.94602   0.55854   0.00000  Uiso   1.00
H70    H     0.55931   0.25416   0.56716   0.00000  Uiso   1.00
H71    H     0.62941   0.45144   0.57168   0.00000  Uiso   1.00
H72    H     0.50651   0.22212   0.48781   0.00000  Uiso   1.00
H73    H     0.50406   0.09865   0.65903   0.00000  Uiso   1.00
H74    H     0.76691   0.65480   0.54976   0.00000  Uiso   1.00
H75    H     0.50776   0.17122   0.37294   0.00000  Uiso   1.00
H76    H     0.50258   0.91085   0.73398   0.00000  Uiso   1.00
H77    H     0.01995   0.13566   0.35981   0.00000  Uiso   1.00
H78    H     0.11534   0.32644   0.35296   0.00000  Uiso   1.00
H79    H     0.99244   0.09712   0.26909   0.00000  Uiso   1.00
H80    H     0.98998   0.97365   0.44031   0.00000  Uiso   1.00
H81    H     0.16131   0.55335   0.37223   0.00000  Uiso   1.00
H82    H     0.90216   0.06977   0.19542   0.00000  Uiso   1.00
H83    H     0.89698   0.80940   0.55646   0.00000  Uiso   1.00
O84    O     0.01855   0.73173   0.46021   0.00000  Uiso   1.00
O85    O     0.67854   0.09727   0.22824   0.00000  Uiso   1.00
O86    O     0.67175   0.75568   0.70191   0.00000  Uiso   1.00
N87    N     0.84665   0.60473   0.50893   0.00000  Uiso   1.00
N88    N     0.60436   0.15264   0.34361   0.00000  Uiso   1.00
N89    N     0.59950   0.90919   0.68115   0.00000  Uiso   1.00
N90    N     0.05887   0.55014   0.41340   0.00000  Uiso   1.00
N91    N     0.81658   0.09804   0.24809   0.00000  Uiso   1.00
N92    N     0.81173   0.85460   0.58562   0.00000  Uiso   1.00
C93    C     0.66484   0.27298   0.01966   0.00000  Uiso   1.00
C94    C     0.76681   0.18223   0.99336   0.00000  Uiso   1.00
C95    C     0.73433   0.07552   0.02446   0.00000  Uiso   1.00
C96    C     0.84233   0.00481   0.99234   0.00000  Uiso   1.00
C97    C     0.98004   0.85857   0.96077   0.00000  Uiso   1.00
C98    C     0.70004   0.30682   0.94780   0.00000  Uiso   1.00
C99    C     0.61141   0.30486   0.94058   0.00000  Uiso   1.00
C100   C     0.66321   0.33905   0.87011   0.00000  Uiso   1.00
C101   C     0.69723   0.38631   0.76781   0.00000  Uiso   1.00
C102   C     0.69871   0.37389   0.04082   0.00000  Uiso   1.00
C103   C     0.60895   0.42836   0.11183   0.00000  Uiso   1.00
C104   C     0.65962   0.51904   0.11967   0.00000  Uiso   1.00
C105   C     0.69157   0.67045   0.16181   0.00000  Uiso   1.00
C106   C     0.91441   0.33719   0.90732   0.00000  Uiso   1.00
C107   C     0.90237   0.21711   0.93235   0.00000  Uiso   1.00
C108   C     0.01045   0.14655   0.90017   0.00000  Uiso   1.00
C109   C     0.97813   0.03974   0.93122   0.00000  Uiso   1.00
C110   C     0.83559   0.34169   0.88678   0.00000  Uiso   1.00
C111   C     0.88753   0.37589   0.81630   0.00000  Uiso   1.00
C112   C     0.79901   0.37398   0.80898   0.00000  Uiso   1.00
C113   C     0.83426   0.40877   0.97981   0.00000  Uiso   1.00
C114   C     0.88508   0.49939   0.98754   0.00000  Uiso   1.00
C115   C     0.79542   0.55398   0.05854   0.00000  Uiso   1.00
H116   H     0.55931   0.24584   0.06716   0.00000  Uiso   1.00
H117   H     0.62941   0.04856   0.07168   0.00000  Uiso   1.00
H118   H     0.50651   0.27788   0.98781   0.00000  Uiso   1.00
H119   H     0.50406   0.40135   0.15903   0.00000  Uiso   1.00
H120   H     0.76691   0.84520   0.04976   0.00000  Uiso   1.00
H121   H     0.50776   0.32878   0.87294   0.00000  Uiso   1.00
H122   H     0.50258   0.58915   0.23398   0.00000  Uiso   1.00
H123   H     0.01995   0.36434   0.85981   0.00000  Uiso   1.00
H124   H     0.11534   0.17356   0.85296   0.00000  Uiso   1.00
H125   H     0.99244   0.40288   0.76909   0.00000  Uiso   1.00
H126   H     0.98998   0.52635   0.94031   0.00000  Uiso   1.00
H127   H     0.16131   0.94665   0.87223   0.00000  Uiso   1.00
H128   H     0.90216   0.43023   0.69542   0.00000  Uiso   1.00
H129   H     0.89698   0.69060   0.05646   0.00000  Uiso   1.00
O130   O     0.01855   0.76827   0.96021   0.00000  Uiso   1.00
O131   O     0.67854   0.40273   0.72824   0.00000  Uiso   1.00
O132   O     0.67175   0.74432   0.20191   0.00000  Uiso   1.00
N133   N     0.84665   0.89527   0.00893   0.00000  Uiso   1.00
N134   N     0.60436   0.34736   0.84361   0.00000  Uiso   1.00
N135   N     0.59950   0.59081   0.18115   0.00000  Uiso   1.00
N136   N     0.05887   0.94986   0.91340   0.00000  Uiso   1.00
N137   N     0.81658   0.40196   0.74809   0.00000  Uiso   1.00
N138   N     0.81173   0.64540   0.08562   0.00000  Uiso   1.00
C139   C     0.33516   0.77298   0.48034   0.00000  Uiso   1.00
C140   C     0.23319   0.68223   0.50664   0.00000  Uiso   1.00
C141   C     0.26567   0.57552   0.47554   0.00000  Uiso   1.00
C142   C     0.15767   0.50481   0.50766   0.00000  Uiso   1.00
C143   C     0.01996   0.35857   0.53923   0.00000  Uiso   1.00
C144   C     0.29996   0.80682   0.55220   0.00000  Uiso   1.00
C145   C     0.38859   0.80486   0.55942   0.00000  Uiso   1.00
C146   C     0.33679   0.83905   0.62989   0.00000  Uiso   1.00
C147   C     0.30277   0.88631   0.73219   0.00000  Uiso   1.00
C148   C     0.30129   0.87389   0.45918   0.00000  Uiso   1.00
C149   C     0.39105   0.92836   0.38817   0.00000  Uiso   1.00
C150   C     0.34038   0.01904   0.38033   0.00000  Uiso   1.00
C151   C     0.30843   0.17045   0.33819   0.00000  Uiso   1.00
C152   C     0.08559   0.83719   0.59268   0.00000  Uiso   1.00
C153   C     0.09763   0.71711   0.56765   0.00000  Uiso   1.00
C154   C     0.98955   0.64655   0.59983   0.00000  Uiso   1.00
C155   C     0.02187   0.53974   0.56878   0.00000  Uiso   1.00
C156   C     0.16441   0.84169   0.61322   0.00000  Uiso   1.00
C157   C     0.11247   0.87589   0.68370   0.00000  Uiso   1.00
C158   C     0.20099   0.87398   0.69102   0.00000  Uiso   1.00
C159   C     0.16574   0.90877   0.52019   0.00000  Uiso   1.00
C160   C     0.11492   0.99939   0.51246   0.00000  Uiso   1.00
C161   C     0.20458   0.05398   0.44146   0.00000  Uiso   1.00
H162   H     0.44069   0.74584   0.43284   0.00000  Uiso   1.00
H163   H     0.37059   0.54856   0.42832   0.00000  Uiso   1.00
H164   H     0.49349   0.77788   0.51219   0.00000  Uiso   1.00
H165   H     0.49594   0.90135   0.34097   0.00000  Uiso   1.00
H166   H     0.23309   0.34520   0.45024   0.00000  Uiso   1.00
H167   H     0.49224   0.82878   0.62706   0.00000  Uiso   1.00
H168   H     0.49742   0.08915   0.26602   0.00000  Uiso   1.00
H169   H     0.98005   0.86434   0.64019   0.00000  Uiso   1.00
H170   H     0.88466   0.67356   0.64704   0.00000  Uiso   1.00
H171   H     0.00756   0.90288   0.73091   0.00000  Uiso   1.00
H172   H     0.01002   0.02635   0.55969   0.00000  Uiso   1.00
H173   H     0.83869   0.44665   0.62777   0.00000  Uiso   1.00
H174   H     0.09784   0.93023   0.80458   0.00000  Uiso   1.00
H175   H     0.10302   0.19060   0.44354   0.00000  Uiso   1.00
O176   O     0.98145   0.26827   0.53979   0.00000  Uiso   1.00
O177   O     0.32146   0.90273   0.77176   0.00000  Uiso   1.00
O178   O     0.32825   0.24432   0.29809   0.00000  Uiso   1.00
N179   N     0.15335   0.39527   0.49107   0.00000  Uiso   1.00
N180   N     0.39564   0.84736   0.65639   0.00000  Uiso   1.00
N181   N     0.40050   0.09081   0.31885   0.00000  Uiso   1.00
N182   N     0.94113   0.44986   0.58660   0.00000  Uiso   1.00
N183   N     0.18342   0.90196   0.75191   0.00000  Uiso   1.00
N184   N     0.18827   0.14540   0.41438   0.00000  Uiso   1.00
