data_job_05058
_audit_creation_date              2018-12-19
_audit_creation_method            'Materials Studio'
_symmetry_space_group_name_H-M    'P1'
_symmetry_Int_Tables_number       1
_symmetry_cell_setting            triclinic
loop_
_symmetry_equiv_pos_as_xyz
  x,y,z
_cell_length_a                    9.7163
_cell_length_b                    19.6567
_cell_length_c                    28.2332
_cell_angle_alpha                 90.0000
_cell_angle_beta                  80.3246
_cell_angle_gamma                 90.0000
loop_
_atom_site_label
_atom_site_type_symbol
_atom_site_fract_x
_atom_site_fract_y
_atom_site_fract_z
_atom_site_U_iso_or_equiv
_atom_site_adp_type
_atom_site_occupancy
C1     C     0.12940   0.95511   0.10987   0.00000  Uiso   1.00
C2     C     0.01478   0.97701   0.15074   0.00000  Uiso   1.00
C3     C     0.98684   0.04332   0.16632   0.00000  Uiso   1.00
C4     C     0.87752   0.05277   0.20426   0.00000  Uiso   1.00
C5     C     0.71152   0.09513   0.26446   0.00000  Uiso   1.00
C6     C     0.21795   0.90324   0.13141   0.00000  Uiso   1.00
C7     C     0.36085   0.90752   0.13072   0.00000  Uiso   1.00
C8     C     0.42257   0.85488   0.15238   0.00000  Uiso   1.00
C9     C     0.57201   0.78268   0.18254   0.00000  Uiso   1.00
C10    C     0.05649   0.91578   0.07465   0.00000  Uiso   1.00
C11    C     0.06366   0.93059   0.02623   0.00000  Uiso   1.00
C12    C     0.98946   0.88849   0.00010   0.00000  Uiso   1.00
C13    C     0.88822   0.83576   0.94212   0.00000  Uiso   1.00
C14    C     0.98494   0.85398   0.14954   0.00000  Uiso   1.00
C15    C     0.93631   0.92208   0.17229   0.00000  Uiso   1.00
C16    C     0.82700   0.93144   0.21022   0.00000  Uiso   1.00
C17    C     0.79891   0.99775   0.22585   0.00000  Uiso   1.00
C18    C     0.13949   0.84831   0.15296   0.00000  Uiso   1.00
C19    C     0.20101   0.79564   0.17462   0.00000  Uiso   1.00
C20    C     0.34396   0.79985   0.17397   0.00000  Uiso   1.00
C21    C     0.97802   0.86085   0.09620   0.00000  Uiso   1.00
C22    C     0.90381   0.81871   0.07013   0.00000  Uiso   1.00
C23    C     0.91086   0.83346   0.02169   0.00000  Uiso   1.00
H24    H     0.19050   0.99787   0.09309   0.00000  Uiso   1.00
H25    H     0.04760   0.08581   0.14964   0.00000  Uiso   1.00
H26    H     0.42155   0.95003   0.11404   0.00000  Uiso   1.00
H27    H     0.12439   0.97310   0.00957   0.00000  Uiso   1.00
H28    H     0.85459   0.15908   0.22184   0.00000  Uiso   1.00
H29    H     0.64309   0.87278   0.14677   0.00000  Uiso   1.00
H30    H     0.01649   0.92142   0.92647   0.00000  Uiso   1.00
H31    H     0.92385   0.81122   0.16632   0.00000  Uiso   1.00
H32    H     0.76630   0.88892   0.22688   0.00000  Uiso   1.00
H33    H     0.14026   0.75315   0.19129   0.00000  Uiso   1.00
H34    H     0.84310   0.77621   0.08682   0.00000  Uiso   1.00
H35    H     0.62628   0.99928   0.28454   0.00000  Uiso   1.00
H36    H     0.41479   0.71298   0.20947   0.00000  Uiso   1.00
H37    H     0.78818   0.76162   0.98917   0.00000  Uiso   1.00
O38    O     0.64164   0.13366   0.29172   0.00000  Uiso   1.00
O39    O     0.67613   0.75804   0.19323   0.00000  Uiso   1.00
O40    O     0.85403   0.82185   0.90420   0.00000  Uiso   1.00
N41    N     0.82246   0.11081   0.22828   0.00000  Uiso   1.00
N42    N     0.55966   0.84314   0.15810   0.00000  Uiso   1.00
N43    N     0.97387   0.88860   0.95214   0.00000  Uiso   1.00
N44    N     0.69961   0.02482   0.26202   0.00000  Uiso   1.00
N45    N     0.43681   0.75716   0.19184   0.00000  Uiso   1.00
N46    N     0.85102   0.80261   0.98587   0.00000  Uiso   1.00
C47    C     0.50752   0.04002   0.60025   0.00000  Uiso   1.00
C48    C     0.58962   0.01685   0.63888   0.00000  Uiso   1.00
C49    C     0.60587   0.95004   0.65285   0.00000  Uiso   1.00
C50    C     0.68485   0.93941   0.68884   0.00000  Uiso   1.00
C51    C     0.80306   0.89518   0.74561   0.00000  Uiso   1.00
C52    C     0.39976   0.09089   0.62455   0.00000  Uiso   1.00
C53    C     0.25639   0.08634   0.62647   0.00000  Uiso   1.00
C54    C     0.17556   0.13804   0.65040   0.00000  Uiso   1.00
C55    C     0.99902   0.20878   0.68489   0.00000  Uiso   1.00
C56    C     0.60950   0.08079   0.56411   0.00000  Uiso   1.00
C57    C     0.64245   0.06776   0.51521   0.00000  Uiso   1.00
C58    C     0.73818   0.11097   0.48825   0.00000  Uiso   1.00
C59    C     0.88729   0.16604   0.42890   0.00000  Uiso   1.00
C60    C     0.61889   0.13994   0.63934   0.00000  Uiso   1.00
C61    C     0.65010   0.07112   0.66011   0.00000  Uiso   1.00
C62    C     0.72909   0.06059   0.69609   0.00000  Uiso   1.00
C63    C     0.74546   0.99378   0.71011   0.00000  Uiso   1.00
C64    C     0.46025   0.14516   0.64578   0.00000  Uiso   1.00
C65    C     0.37961   0.19688   0.66971   0.00000  Uiso   1.00
C66    C     0.23616   0.19241   0.67167   0.00000  Uiso   1.00
C67    C     0.66999   0.13506   0.58534   0.00000  Uiso   1.00
C68    C     0.76568   0.17831   0.55845   0.00000  Uiso   1.00
C69    C     0.79878   0.16534   0.50952   0.00000  Uiso   1.00
H70    H     0.46042   0.99777   0.58372   0.00000  Uiso   1.00
H71    H     0.55903   0.90806   0.63641   0.00000  Uiso   1.00
H72    H     0.20961   0.04434   0.61003   0.00000  Uiso   1.00
H73    H     0.59562   0.02576   0.49879   0.00000  Uiso   1.00
H74    H     0.69499   0.83253   0.70420   0.00000  Uiso   1.00
H75    H     0.95822   0.11989   0.64856   0.00000  Uiso   1.00
H76    H     0.77219   0.08072   0.41399   0.00000  Uiso   1.00
H77    H     0.66599   0.18219   0.65587   0.00000  Uiso   1.00
H78    H     0.77589   0.10260   0.71251   0.00000  Uiso   1.00
H79    H     0.42646   0.23888   0.68613   0.00000  Uiso   1.00
H80    H     0.81247   0.22030   0.57489   0.00000  Uiso   1.00
H81    H     0.87100   0.99043   0.76597   0.00000  Uiso   1.00
H82    H     0.13422   0.27779   0.71033   0.00000  Uiso   1.00
H83    H     0.94820   0.23862   0.47576   0.00000  Uiso   1.00
O84    O     0.85154   0.85580   0.77106   0.00000  Uiso   1.00
O85    O     0.88493   0.23281   0.69805   0.00000  Uiso   1.00
O86    O     0.95284   0.18141   0.39030   0.00000  Uiso   1.00
N87    N     0.72136   0.88062   0.71096   0.00000  Uiso   1.00
N88    N     0.03252   0.14928   0.65894   0.00000  Uiso   1.00
N89    N     0.79348   0.11266   0.43964   0.00000  Uiso   1.00
N90    N     0.81606   0.96558   0.74419   0.00000  Uiso   1.00
N91    N     0.12723   0.23424   0.69218   0.00000  Uiso   1.00
N92    N     0.88819   0.19763   0.47287   0.00000  Uiso   1.00
C93    C     0.87060   0.45511   0.39013   0.00000  Uiso   1.00
C94    C     0.98522   0.47701   0.34926   0.00000  Uiso   1.00
C95    C     0.01316   0.54332   0.33368   0.00000  Uiso   1.00
C96    C     0.12248   0.55277   0.29574   0.00000  Uiso   1.00
C97    C     0.28848   0.59513   0.23554   0.00000  Uiso   1.00
C98    C     0.78205   0.40324   0.36859   0.00000  Uiso   1.00
C99    C     0.63915   0.40752   0.36928   0.00000  Uiso   1.00
C100   C     0.57743   0.35488   0.34762   0.00000  Uiso   1.00
C101   C     0.42799   0.28268   0.31746   0.00000  Uiso   1.00
C102   C     0.94351   0.41578   0.42535   0.00000  Uiso   1.00
C103   C     0.93634   0.43059   0.47377   0.00000  Uiso   1.00
C104   C     0.01054   0.38849   0.49990   0.00000  Uiso   1.00
C105   C     0.11178   0.33576   0.55788   0.00000  Uiso   1.00
C106   C     0.01506   0.35398   0.35046   0.00000  Uiso   1.00
C107   C     0.06369   0.42208   0.32771   0.00000  Uiso   1.00
C108   C     0.17300   0.43144   0.28978   0.00000  Uiso   1.00
C109   C     0.20109   0.49775   0.27415   0.00000  Uiso   1.00
C110   C     0.86051   0.34831   0.34704   0.00000  Uiso   1.00
C111   C     0.79899   0.29564   0.32538   0.00000  Uiso   1.00
C112   C     0.65604   0.29985   0.32603   0.00000  Uiso   1.00
C113   C     0.02198   0.36085   0.40380   0.00000  Uiso   1.00
C114   C     0.09619   0.31871   0.42987   0.00000  Uiso   1.00
C115   C     0.08914   0.33346   0.47831   0.00000  Uiso   1.00
H116   H     0.80950   0.49787   0.40691   0.00000  Uiso   1.00
H117   H     0.95240   0.58581   0.35036   0.00000  Uiso   1.00
H118   H     0.57845   0.45003   0.38596   0.00000  Uiso   1.00
H119   H     0.87561   0.47310   0.49043   0.00000  Uiso   1.00
H120   H     0.14541   0.65908   0.27816   0.00000  Uiso   1.00
H121   H     0.35691   0.37278   0.35323   0.00000  Uiso   1.00
H122   H     0.98351   0.42142   0.57353   0.00000  Uiso   1.00
H123   H     0.07615   0.31122   0.33368   0.00000  Uiso   1.00
H124   H     0.23370   0.38892   0.27312   0.00000  Uiso   1.00
H125   H     0.85974   0.25315   0.30871   0.00000  Uiso   1.00
H126   H     0.15690   0.27621   0.41318   0.00000  Uiso   1.00
H127   H     0.37372   0.49928   0.21546   0.00000  Uiso   1.00
H128   H     0.58521   0.21298   0.29053   0.00000  Uiso   1.00
H129   H     0.21182   0.26162   0.51083   0.00000  Uiso   1.00
O130   O     0.35836   0.63366   0.20828   0.00000  Uiso   1.00
O131   O     0.32387   0.25804   0.30677   0.00000  Uiso   1.00
O132   O     0.14597   0.32185   0.59580   0.00000  Uiso   1.00
N133   N     0.17754   0.61081   0.27172   0.00000  Uiso   1.00
N134   N     0.44034   0.34314   0.34190   0.00000  Uiso   1.00
N135   N     0.02613   0.38860   0.54786   0.00000  Uiso   1.00
N136   N     0.30039   0.52482   0.23798   0.00000  Uiso   1.00
N137   N     0.56319   0.25716   0.30816   0.00000  Uiso   1.00
N138   N     0.14898   0.30261   0.51413   0.00000  Uiso   1.00
C139   C     0.49248   0.54002   0.89975   0.00000  Uiso   1.00
C140   C     0.41038   0.51685   0.86112   0.00000  Uiso   1.00
C141   C     0.39413   0.45004   0.84715   0.00000  Uiso   1.00
C142   C     0.31515   0.43941   0.81116   0.00000  Uiso   1.00
C143   C     0.19694   0.39518   0.75439   0.00000  Uiso   1.00
C144   C     0.60024   0.59089   0.87545   0.00000  Uiso   1.00
C145   C     0.74361   0.58634   0.87353   0.00000  Uiso   1.00
C146   C     0.82444   0.63804   0.84960   0.00000  Uiso   1.00
C147   C     0.00098   0.70878   0.81511   0.00000  Uiso   1.00
C148   C     0.39050   0.58079   0.93589   0.00000  Uiso   1.00
C149   C     0.35755   0.56776   0.98479   0.00000  Uiso   1.00
C150   C     0.26182   0.61097   0.01175   0.00000  Uiso   1.00
C151   C     0.11271   0.66604   0.07110   0.00000  Uiso   1.00
C152   C     0.38111   0.63994   0.86066   0.00000  Uiso   1.00
C153   C     0.34990   0.57112   0.83989   0.00000  Uiso   1.00
C154   C     0.27091   0.56059   0.80391   0.00000  Uiso   1.00
C155   C     0.25454   0.49378   0.78989   0.00000  Uiso   1.00
C156   C     0.53975   0.64516   0.85422   0.00000  Uiso   1.00
C157   C     0.62039   0.69688   0.83029   0.00000  Uiso   1.00
C158   C     0.76384   0.69241   0.82833   0.00000  Uiso   1.00
C159   C     0.33001   0.63506   0.91466   0.00000  Uiso   1.00
C160   C     0.23432   0.67831   0.94155   0.00000  Uiso   1.00
C161   C     0.20122   0.66534   0.99048   0.00000  Uiso   1.00
H162   H     0.53958   0.49777   0.91628   0.00000  Uiso   1.00
H163   H     0.44097   0.40806   0.86359   0.00000  Uiso   1.00
H164   H     0.79039   0.54434   0.88997   0.00000  Uiso   1.00
H165   H     0.40438   0.52576   0.00121   0.00000  Uiso   1.00
H166   H     0.30501   0.33253   0.79580   0.00000  Uiso   1.00
H167   H     0.04178   0.61989   0.85144   0.00000  Uiso   1.00
H168   H     0.22781   0.58072   0.08601   0.00000  Uiso   1.00
H169   H     0.33401   0.68219   0.84413   0.00000  Uiso   1.00
H170   H     0.22411   0.60260   0.78749   0.00000  Uiso   1.00
H171   H     0.57354   0.73888   0.81387   0.00000  Uiso   1.00
H172   H     0.18753   0.72030   0.92511   0.00000  Uiso   1.00
H173   H     0.12900   0.49043   0.73403   0.00000  Uiso   1.00
H174   H     0.86578   0.77779   0.78967   0.00000  Uiso   1.00
H175   H     0.05180   0.73862   0.02424   0.00000  Uiso   1.00
O176   O     0.14846   0.35580   0.72894   0.00000  Uiso   1.00
O177   O     0.11507   0.73281   0.80195   0.00000  Uiso   1.00
O178   O     0.04716   0.68141   0.10970   0.00000  Uiso   1.00
N179   N     0.27864   0.38062   0.78904   0.00000  Uiso   1.00
N180   N     0.96748   0.64928   0.84106   0.00000  Uiso   1.00
N181   N     0.20652   0.61266   0.06036   0.00000  Uiso   1.00
N182   N     0.18394   0.46558   0.75581   0.00000  Uiso   1.00
N183   N     0.87277   0.73424   0.80782   0.00000  Uiso   1.00
N184   N     0.11181   0.69763   0.02713   0.00000  Uiso   1.00
C185   C     0.87060   0.04489   0.89013   0.00000  Uiso   1.00
C186   C     0.98522   0.02299   0.84926   0.00000  Uiso   1.00
C187   C     0.01316   0.95668   0.83368   0.00000  Uiso   1.00
C188   C     0.12248   0.94723   0.79574   0.00000  Uiso   1.00
C189   C     0.28848   0.90487   0.73554   0.00000  Uiso   1.00
C190   C     0.78205   0.09676   0.86859   0.00000  Uiso   1.00
C191   C     0.63915   0.09248   0.86928   0.00000  Uiso   1.00
C192   C     0.57743   0.14512   0.84762   0.00000  Uiso   1.00
C193   C     0.42799   0.21732   0.81746   0.00000  Uiso   1.00
C194   C     0.94351   0.08422   0.92535   0.00000  Uiso   1.00
C195   C     0.93634   0.06941   0.97377   0.00000  Uiso   1.00
C196   C     0.01054   0.11151   0.99990   0.00000  Uiso   1.00
C197   C     0.11178   0.16424   0.05788   0.00000  Uiso   1.00
C198   C     0.01506   0.14602   0.85046   0.00000  Uiso   1.00
C199   C     0.06369   0.07792   0.82771   0.00000  Uiso   1.00
C200   C     0.17300   0.06856   0.78978   0.00000  Uiso   1.00
C201   C     0.20109   0.00225   0.77415   0.00000  Uiso   1.00
C202   C     0.86051   0.15169   0.84704   0.00000  Uiso   1.00
C203   C     0.79899   0.20436   0.82538   0.00000  Uiso   1.00
C204   C     0.65604   0.20015   0.82603   0.00000  Uiso   1.00
C205   C     0.02198   0.13915   0.90380   0.00000  Uiso   1.00
C206   C     0.09619   0.18129   0.92987   0.00000  Uiso   1.00
C207   C     0.08914   0.16654   0.97831   0.00000  Uiso   1.00
H208   H     0.80950   0.00213   0.90691   0.00000  Uiso   1.00
H209   H     0.95240   0.91419   0.85036   0.00000  Uiso   1.00
H210   H     0.57845   0.04997   0.88596   0.00000  Uiso   1.00
H211   H     0.87561   0.02690   0.99043   0.00000  Uiso   1.00
H212   H     0.14541   0.84092   0.77816   0.00000  Uiso   1.00
H213   H     0.35691   0.12722   0.85323   0.00000  Uiso   1.00
H214   H     0.98351   0.07858   0.07353   0.00000  Uiso   1.00
H215   H     0.07615   0.18878   0.83368   0.00000  Uiso   1.00
H216   H     0.23370   0.11108   0.77312   0.00000  Uiso   1.00
H217   H     0.85974   0.24685   0.80871   0.00000  Uiso   1.00
H218   H     0.15690   0.22379   0.91318   0.00000  Uiso   1.00
H219   H     0.37372   0.00072   0.71546   0.00000  Uiso   1.00
H220   H     0.58521   0.28702   0.79053   0.00000  Uiso   1.00
H221   H     0.21182   0.23838   0.01083   0.00000  Uiso   1.00
O222   O     0.35836   0.86634   0.70828   0.00000  Uiso   1.00
O223   O     0.32387   0.24196   0.80677   0.00000  Uiso   1.00
O224   O     0.14597   0.17815   0.09580   0.00000  Uiso   1.00
N225   N     0.17754   0.88919   0.77172   0.00000  Uiso   1.00
N226   N     0.44034   0.15686   0.84190   0.00000  Uiso   1.00
N227   N     0.02613   0.11140   0.04786   0.00000  Uiso   1.00
N228   N     0.30039   0.97518   0.73798   0.00000  Uiso   1.00
N229   N     0.56319   0.24284   0.80816   0.00000  Uiso   1.00
N230   N     0.14898   0.19739   0.01413   0.00000  Uiso   1.00
C231   C     0.49248   0.95998   0.39975   0.00000  Uiso   1.00
C232   C     0.41038   0.98315   0.36112   0.00000  Uiso   1.00
C233   C     0.39413   0.04996   0.34715   0.00000  Uiso   1.00
C234   C     0.31515   0.06059   0.31116   0.00000  Uiso   1.00
C235   C     0.19694   0.10482   0.25439   0.00000  Uiso   1.00
C236   C     0.60024   0.90911   0.37545   0.00000  Uiso   1.00
C237   C     0.74361   0.91366   0.37353   0.00000  Uiso   1.00
C238   C     0.82444   0.86196   0.34960   0.00000  Uiso   1.00
C239   C     0.00098   0.79122   0.31511   0.00000  Uiso   1.00
C240   C     0.39050   0.91921   0.43589   0.00000  Uiso   1.00
C241   C     0.35755   0.93224   0.48479   0.00000  Uiso   1.00
C242   C     0.26182   0.88903   0.51175   0.00000  Uiso   1.00
C243   C     0.11271   0.83396   0.57110   0.00000  Uiso   1.00
C244   C     0.38111   0.86006   0.36066   0.00000  Uiso   1.00
C245   C     0.34990   0.92888   0.33989   0.00000  Uiso   1.00
C246   C     0.27091   0.93941   0.30391   0.00000  Uiso   1.00
C247   C     0.25454   0.00622   0.28989   0.00000  Uiso   1.00
C248   C     0.53975   0.85484   0.35422   0.00000  Uiso   1.00
C249   C     0.62039   0.80312   0.33029   0.00000  Uiso   1.00
C250   C     0.76384   0.80759   0.32833   0.00000  Uiso   1.00
C251   C     0.33001   0.86494   0.41466   0.00000  Uiso   1.00
C252   C     0.23432   0.82169   0.44155   0.00000  Uiso   1.00
C253   C     0.20122   0.83466   0.49048   0.00000  Uiso   1.00
H254   H     0.53958   0.00223   0.41628   0.00000  Uiso   1.00
H255   H     0.44097   0.09194   0.36359   0.00000  Uiso   1.00
H256   H     0.79039   0.95566   0.38997   0.00000  Uiso   1.00
H257   H     0.40438   0.97424   0.50121   0.00000  Uiso   1.00
H258   H     0.30501   0.16747   0.29580   0.00000  Uiso   1.00
H259   H     0.04178   0.88011   0.35144   0.00000  Uiso   1.00
H260   H     0.22781   0.91928   0.58601   0.00000  Uiso   1.00
H261   H     0.33401   0.81781   0.34413   0.00000  Uiso   1.00
H262   H     0.22411   0.89740   0.28749   0.00000  Uiso   1.00
H263   H     0.57354   0.76112   0.31387   0.00000  Uiso   1.00
H264   H     0.18753   0.77970   0.42511   0.00000  Uiso   1.00
H265   H     0.12900   0.00957   0.23403   0.00000  Uiso   1.00
H266   H     0.86578   0.72221   0.28967   0.00000  Uiso   1.00
H267   H     0.05180   0.76138   0.52424   0.00000  Uiso   1.00
O268   O     0.14846   0.14420   0.22894   0.00000  Uiso   1.00
O269   O     0.11507   0.76719   0.30195   0.00000  Uiso   1.00
O270   O     0.04716   0.81859   0.60970   0.00000  Uiso   1.00
N271   N     0.27864   0.11938   0.28904   0.00000  Uiso   1.00
N272   N     0.96748   0.85072   0.34106   0.00000  Uiso   1.00
N273   N     0.20652   0.88734   0.56036   0.00000  Uiso   1.00
N274   N     0.18394   0.03442   0.25581   0.00000  Uiso   1.00
N275   N     0.87277   0.76576   0.30782   0.00000  Uiso   1.00
N276   N     0.11181   0.80237   0.52713   0.00000  Uiso   1.00
C277   C     0.12940   0.54489   0.60987   0.00000  Uiso   1.00
C278   C     0.01478   0.52299   0.65074   0.00000  Uiso   1.00
C279   C     0.98684   0.45668   0.66632   0.00000  Uiso   1.00
C280   C     0.87752   0.44723   0.70426   0.00000  Uiso   1.00
C281   C     0.71152   0.40487   0.76446   0.00000  Uiso   1.00
C282   C     0.21795   0.59676   0.63141   0.00000  Uiso   1.00
C283   C     0.36085   0.59248   0.63072   0.00000  Uiso   1.00
C284   C     0.42257   0.64512   0.65238   0.00000  Uiso   1.00
C285   C     0.57201   0.71732   0.68254   0.00000  Uiso   1.00
C286   C     0.05649   0.58422   0.57465   0.00000  Uiso   1.00
C287   C     0.06366   0.56941   0.52623   0.00000  Uiso   1.00
C288   C     0.98946   0.61151   0.50010   0.00000  Uiso   1.00
C289   C     0.88822   0.66424   0.44212   0.00000  Uiso   1.00
C290   C     0.98494   0.64602   0.64954   0.00000  Uiso   1.00
C291   C     0.93631   0.57792   0.67229   0.00000  Uiso   1.00
C292   C     0.82700   0.56856   0.71022   0.00000  Uiso   1.00
C293   C     0.79891   0.50225   0.72585   0.00000  Uiso   1.00
C294   C     0.13949   0.65169   0.65296   0.00000  Uiso   1.00
C295   C     0.20101   0.70436   0.67462   0.00000  Uiso   1.00
C296   C     0.34396   0.70015   0.67397   0.00000  Uiso   1.00
C297   C     0.97802   0.63915   0.59620   0.00000  Uiso   1.00
C298   C     0.90381   0.68129   0.57013   0.00000  Uiso   1.00
C299   C     0.91086   0.66654   0.52169   0.00000  Uiso   1.00
H300   H     0.19050   0.50213   0.59309   0.00000  Uiso   1.00
H301   H     0.04760   0.41419   0.64964   0.00000  Uiso   1.00
H302   H     0.42155   0.54997   0.61404   0.00000  Uiso   1.00
H303   H     0.12439   0.52690   0.50957   0.00000  Uiso   1.00
H304   H     0.85459   0.34092   0.72184   0.00000  Uiso   1.00
H305   H     0.64309   0.62722   0.64677   0.00000  Uiso   1.00
H306   H     0.01649   0.57858   0.42647   0.00000  Uiso   1.00
H307   H     0.92385   0.68878   0.66632   0.00000  Uiso   1.00
H308   H     0.76630   0.61108   0.72688   0.00000  Uiso   1.00
H309   H     0.14026   0.74685   0.69129   0.00000  Uiso   1.00
H310   H     0.84310   0.72379   0.58682   0.00000  Uiso   1.00
H311   H     0.62628   0.50072   0.78454   0.00000  Uiso   1.00
H312   H     0.41479   0.78702   0.70947   0.00000  Uiso   1.00
H313   H     0.78818   0.73838   0.48917   0.00000  Uiso   1.00
O314   O     0.64164   0.36634   0.79172   0.00000  Uiso   1.00
O315   O     0.67613   0.74196   0.69323   0.00000  Uiso   1.00
O316   O     0.85403   0.67815   0.40420   0.00000  Uiso   1.00
N317   N     0.82246   0.38919   0.72828   0.00000  Uiso   1.00
N318   N     0.55966   0.65686   0.65810   0.00000  Uiso   1.00
N319   N     0.97387   0.61140   0.45214   0.00000  Uiso   1.00
N320   N     0.69961   0.47518   0.76202   0.00000  Uiso   1.00
N321   N     0.43681   0.74284   0.69184   0.00000  Uiso   1.00
N322   N     0.85102   0.69739   0.48587   0.00000  Uiso   1.00
C323   C     0.50752   0.45998   0.10025   0.00000  Uiso   1.00
C324   C     0.58962   0.48315   0.13888   0.00000  Uiso   1.00
C325   C     0.60587   0.54996   0.15285   0.00000  Uiso   1.00
C326   C     0.68485   0.56059   0.18884   0.00000  Uiso   1.00
C327   C     0.80306   0.60482   0.24561   0.00000  Uiso   1.00
C328   C     0.39976   0.40911   0.12455   0.00000  Uiso   1.00
C329   C     0.25639   0.41366   0.12647   0.00000  Uiso   1.00
C330   C     0.17556   0.36196   0.15040   0.00000  Uiso   1.00
C331   C     0.99902   0.29122   0.18489   0.00000  Uiso   1.00
C332   C     0.60950   0.41921   0.06411   0.00000  Uiso   1.00
C333   C     0.64245   0.43224   0.01521   0.00000  Uiso   1.00
C334   C     0.73818   0.38903   0.98825   0.00000  Uiso   1.00
C335   C     0.88729   0.33396   0.92890   0.00000  Uiso   1.00
C336   C     0.61889   0.36006   0.13934   0.00000  Uiso   1.00
C337   C     0.65010   0.42888   0.16011   0.00000  Uiso   1.00
C338   C     0.72909   0.43941   0.19609   0.00000  Uiso   1.00
C339   C     0.74546   0.50622   0.21011   0.00000  Uiso   1.00
C340   C     0.46025   0.35484   0.14578   0.00000  Uiso   1.00
C341   C     0.37961   0.30312   0.16971   0.00000  Uiso   1.00
C342   C     0.23616   0.30759   0.17167   0.00000  Uiso   1.00
C343   C     0.66999   0.36494   0.08534   0.00000  Uiso   1.00
C344   C     0.76568   0.32169   0.05845   0.00000  Uiso   1.00
C345   C     0.79878   0.33466   0.00952   0.00000  Uiso   1.00
H346   H     0.46042   0.50223   0.08372   0.00000  Uiso   1.00
H347   H     0.55903   0.59194   0.13641   0.00000  Uiso   1.00
H348   H     0.20961   0.45566   0.11003   0.00000  Uiso   1.00
H349   H     0.59562   0.47424   0.99879   0.00000  Uiso   1.00
H350   H     0.69499   0.66747   0.20420   0.00000  Uiso   1.00
H351   H     0.95822   0.38011   0.14856   0.00000  Uiso   1.00
H352   H     0.77219   0.41928   0.91399   0.00000  Uiso   1.00
H353   H     0.66599   0.31781   0.15587   0.00000  Uiso   1.00
H354   H     0.77589   0.39740   0.21251   0.00000  Uiso   1.00
H355   H     0.42646   0.26112   0.18613   0.00000  Uiso   1.00
H356   H     0.81247   0.27970   0.07489   0.00000  Uiso   1.00
H357   H     0.87100   0.50957   0.26597   0.00000  Uiso   1.00
H358   H     0.13422   0.22221   0.21033   0.00000  Uiso   1.00
H359   H     0.94820   0.26138   0.97576   0.00000  Uiso   1.00
O360   O     0.85154   0.64420   0.27106   0.00000  Uiso   1.00
O361   O     0.88493   0.26719   0.19805   0.00000  Uiso   1.00
O362   O     0.95284   0.31859   0.89030   0.00000  Uiso   1.00
N363   N     0.72136   0.61938   0.21096   0.00000  Uiso   1.00
N364   N     0.03252   0.35072   0.15894   0.00000  Uiso   1.00
N365   N     0.79348   0.38734   0.93964   0.00000  Uiso   1.00
N366   N     0.81606   0.53442   0.24419   0.00000  Uiso   1.00
N367   N     0.12723   0.26576   0.19218   0.00000  Uiso   1.00
N368   N     0.88819   0.30237   0.97287   0.00000  Uiso   1.00
