data_job_05932
_audit_creation_date              2018-12-19
_audit_creation_method            'Materials Studio'
_symmetry_space_group_name_H-M    'P1'
_symmetry_Int_Tables_number       1
_symmetry_cell_setting            triclinic
loop_
_symmetry_equiv_pos_as_xyz
  x,y,z
_cell_length_a                    15.4331
_cell_length_b                    15.4458
_cell_length_c                    15.4624
_cell_angle_alpha                 82.5443
_cell_angle_beta                  82.5245
_cell_angle_gamma                 82.5119
loop_
_atom_site_label
_atom_site_type_symbol
_atom_site_fract_x
_atom_site_fract_y
_atom_site_fract_z
_atom_site_U_iso_or_equiv
_atom_site_adp_type
_atom_site_occupancy
C1     C     0.11793   0.77895   0.52727   0.00000  Uiso   1.00
C2     C     0.02305   0.80277   0.50711   0.00000  Uiso   1.00
C3     C     0.99557   0.85962   0.43624   0.00000  Uiso   1.00
C4     C     0.90588   0.87278   0.42939   0.00000  Uiso   1.00
C5     C     0.76767   0.91621   0.38870   0.00000  Uiso   1.00
C6     C     0.11965   0.80180   0.62002   0.00000  Uiso   1.00
C7     C     0.17341   0.85782   0.64407   0.00000  Uiso   1.00
C8     C     0.16505   0.87015   0.73227   0.00000  Uiso   1.00
C9     C     0.17686   0.91202   0.86688   0.00000  Uiso   1.00
C10    C     0.13544   0.67904   0.53271   0.00000  Uiso   1.00
C11    C     0.20247   0.63184   0.48338   0.00000  Uiso   1.00
C12    C     0.20742   0.54082   0.49808   0.00000  Uiso   1.00
C13    C     0.24374   0.39209   0.49714   0.00000  Uiso   1.00
C14    C     0.00753   0.70123   0.64112   0.00000  Uiso   1.00
C15    C     0.96308   0.76055   0.56895   0.00000  Uiso   1.00
C16    C     0.87342   0.77363   0.56220   0.00000  Uiso   1.00
C17    C     0.84581   0.83048   0.49133   0.00000  Uiso   1.00
C18    C     0.05969   0.75958   0.68186   0.00000  Uiso   1.00
C19    C     0.05125   0.77183   0.77004   0.00000  Uiso   1.00
C20    C     0.10497   0.82786   0.79422   0.00000  Uiso   1.00
C21    C     0.07547   0.63682   0.59455   0.00000  Uiso   1.00
C22    C     0.08032   0.54585   0.60934   0.00000  Uiso   1.00
C23    C     0.14734   0.49852   0.56004   0.00000  Uiso   1.00
H24    H     0.16462   0.81182   0.47913   0.00000  Uiso   1.00
H25    H     0.04200   0.89228   0.38840   0.00000  Uiso   1.00
H26    H     0.21981   0.89047   0.59621   0.00000  Uiso   1.00
H27    H     0.24887   0.66453   0.43553   0.00000  Uiso   1.00
H28    H     0.87959   0.96289   0.31510   0.00000  Uiso   1.00
H29    H     0.25454   0.95906   0.75327   0.00000  Uiso   1.00
H30    H     0.31582   0.48262   0.41446   0.00000  Uiso   1.00
H31    H     0.96084   0.66836   0.68927   0.00000  Uiso   1.00
H32    H     0.82703   0.74095   0.61007   0.00000  Uiso   1.00
H33    H     0.00484   0.73914   0.81787   0.00000  Uiso   1.00
H34    H     0.03390   0.51321   0.65720   0.00000  Uiso   1.00
H35    H     0.70511   0.84007   0.49502   0.00000  Uiso   1.00
H36    H     0.08007   0.83623   0.93319   0.00000  Uiso   1.00
H37    H     0.14134   0.35979   0.59438   0.00000  Uiso   1.00
O38    O     0.70800   0.95184   0.34918   0.00000  Uiso   1.00
O39    O     0.19994   0.94679   0.92404   0.00000  Uiso   1.00
O40    O     0.28033   0.32172   0.47953   0.00000  Uiso   1.00
N41    N     0.85689   0.92401   0.36830   0.00000  Uiso   1.00
N42    N     0.20744   0.92043   0.77796   0.00000  Uiso   1.00
N43    N     0.26475   0.47501   0.46122   0.00000  Uiso   1.00
N44    N     0.76301   0.85792   0.46511   0.00000  Uiso   1.00
N45    N     0.11356   0.85434   0.87477   0.00000  Uiso   1.00
N46    N     0.17086   0.40891   0.55803   0.00000  Uiso   1.00
C47    C     0.52676   0.11767   0.77878   0.00000  Uiso   1.00
C48    C     0.50655   0.02288   0.80255   0.00000  Uiso   1.00
C49    C     0.43554   0.99546   0.85936   0.00000  Uiso   1.00
C50    C     0.42867   0.90585   0.87248   0.00000  Uiso   1.00
C51    C     0.38790   0.76778   0.91584   0.00000  Uiso   1.00
C52    C     0.61968   0.11937   0.80157   0.00000  Uiso   1.00
C53    C     0.64379   0.17309   0.85754   0.00000  Uiso   1.00
C54    C     0.73215   0.16472   0.86982   0.00000  Uiso   1.00
C55    C     0.86703   0.17650   0.91161   0.00000  Uiso   1.00
C56    C     0.53221   0.13513   0.67898   0.00000  Uiso   1.00
C57    C     0.48278   0.20210   0.63187   0.00000  Uiso   1.00
C58    C     0.49752   0.20701   0.54094   0.00000  Uiso   1.00
C59    C     0.49658   0.24325   0.39239   0.00000  Uiso   1.00
C60    C     0.64083   0.00731   0.70108   0.00000  Uiso   1.00
C61    C     0.56852   0.96294   0.76035   0.00000  Uiso   1.00
C62    C     0.56175   0.87335   0.77339   0.00000  Uiso   1.00
C63    C     0.49074   0.84580   0.83020   0.00000  Uiso   1.00
C64    C     0.68164   0.05943   0.75937   0.00000  Uiso   1.00
C65    C     0.77000   0.05099   0.77157   0.00000  Uiso   1.00
C66    C     0.79423   0.10467   0.82754   0.00000  Uiso   1.00
C67    C     0.59417   0.07518   0.63678   0.00000  Uiso   1.00
C68    C     0.60899   0.08000   0.54590   0.00000  Uiso   1.00
C69    C     0.55959   0.14696   0.49866   0.00000  Uiso   1.00
H70    H     0.47852   0.16434   0.81164   0.00000  Uiso   1.00
H71    H     0.38761   0.04187   0.89201   0.00000  Uiso   1.00
H72    H     0.59583   0.21948   0.89018   0.00000  Uiso   1.00
H73    H     0.43484   0.24848   0.66455   0.00000  Uiso   1.00
H74    H     0.31416   0.87964   0.96253   0.00000  Uiso   1.00
H75    H     0.75320   0.25416   0.95865   0.00000  Uiso   1.00
H76    H     0.41374   0.31533   0.48287   0.00000  Uiso   1.00
H77    H     0.68907   0.96064   0.66822   0.00000  Uiso   1.00
H78    H     0.60971   0.82698   0.74072   0.00000  Uiso   1.00
H79    H     0.81793   0.00460   0.73889   0.00000  Uiso   1.00
H80    H     0.65694   0.03360   0.51326   0.00000  Uiso   1.00
H81    H     0.49442   0.70523   0.83973   0.00000  Uiso   1.00
H82    H     0.93347   0.07976   0.83585   0.00000  Uiso   1.00
H83    H     0.59400   0.14092   0.36007   0.00000  Uiso   1.00
O84    O     0.34830   0.70818   0.95143   0.00000  Uiso   1.00
O85    O     0.92430   0.19956   0.94633   0.00000  Uiso   1.00
O86    O     0.47894   0.27980   0.32212   0.00000  Uiso   1.00
N87    N     0.36746   0.85694   0.92366   0.00000  Uiso   1.00
N88    N     0.77794   0.20709   0.92005   0.00000  Uiso   1.00
N89    N     0.46059   0.26428   0.47523   0.00000  Uiso   1.00
N90    N     0.46446   0.76309   0.85759   0.00000  Uiso   1.00
N91    N     0.87494   0.11324   0.85398   0.00000  Uiso   1.00
N92    N     0.55759   0.17044   0.40916   0.00000  Uiso   1.00
C93    C     0.77913   0.52699   0.11726   0.00000  Uiso   1.00
C94    C     0.80295   0.50677   0.02256   0.00000  Uiso   1.00
C95    C     0.85986   0.43580   0.99513   0.00000  Uiso   1.00
C96    C     0.87301   0.42890   0.90562   0.00000  Uiso   1.00
C97    C     0.91646   0.38811   0.76768   0.00000  Uiso   1.00
C98    C     0.80196   0.61984   0.11898   0.00000  Uiso   1.00
C99    C     0.85804   0.64392   0.17262   0.00000  Uiso   1.00
C100   C     0.87035   0.73221   0.16428   0.00000  Uiso   1.00
C101   C     0.91222   0.86696   0.17608   0.00000  Uiso   1.00
C102   C     0.67913   0.53247   0.13473   0.00000  Uiso   1.00
C103   C     0.63192   0.48312   0.20164   0.00000  Uiso   1.00
C104   C     0.54081   0.49787   0.20658   0.00000  Uiso   1.00
C105   C     0.39197   0.49697   0.24283   0.00000  Uiso   1.00
C106   C     0.70128   0.64095   0.00708   0.00000  Uiso   1.00
C107   C     0.76066   0.56867   0.96272   0.00000  Uiso   1.00
C108   C     0.77372   0.56188   0.87323   0.00000  Uiso   1.00
C109   C     0.83065   0.49091   0.84567   0.00000  Uiso   1.00
C110   C     0.75968   0.68173   0.05914   0.00000  Uiso   1.00
C111   C     0.77190   0.77001   0.05072   0.00000  Uiso   1.00
C112   C     0.82799   0.79422   0.10433   0.00000  Uiso   1.00
C113   C     0.63684   0.59437   0.07489   0.00000  Uiso   1.00
C114   C     0.54579   0.60920   0.07973   0.00000  Uiso   1.00
C115   C     0.49845   0.55988   0.14662   0.00000  Uiso   1.00
H116   H     0.81205   0.47881   0.16386   0.00000  Uiso   1.00
H117   H     0.89258   0.38791   0.04147   0.00000  Uiso   1.00
H118   H     0.89074   0.59601   0.21894   0.00000  Uiso   1.00
H119   H     0.66467   0.43523   0.24794   0.00000  Uiso   1.00
H120   H     0.96323   0.31446   0.87938   0.00000  Uiso   1.00
H121   H     0.95935   0.75324   0.25360   0.00000  Uiso   1.00
H122   H     0.48262   0.41420   0.31477   0.00000  Uiso   1.00
H123   H     0.66835   0.68915   0.96049   0.00000  Uiso   1.00
H124   H     0.74099   0.60980   0.82693   0.00000  Uiso   1.00
H125   H     0.73917   0.81789   0.00440   0.00000  Uiso   1.00
H126   H     0.51309   0.65711   0.03340   0.00000  Uiso   1.00
H127   H     0.84021   0.49455   0.70525   0.00000  Uiso   1.00
H128   H     0.83632   0.93333   0.07949   0.00000  Uiso   1.00
H129   H     0.35959   0.59429   0.14064   0.00000  Uiso   1.00
O130   O     0.95212   0.34852   0.70812   0.00000  Uiso   1.00
O131   O     0.94701   0.92418   0.19911   0.00000  Uiso   1.00
O132   O     0.32155   0.47938   0.27935   0.00000  Uiso   1.00
N133   N     0.92429   0.36772   0.85673   0.00000  Uiso   1.00
N134   N     0.92067   0.77795   0.20660   0.00000  Uiso   1.00
N135   N     0.47497   0.46100   0.26379   0.00000  Uiso   1.00
N136   N     0.85809   0.46463   0.76303   0.00000  Uiso   1.00
N137   N     0.85447   0.87486   0.11290   0.00000  Uiso   1.00
N138   N     0.40877   0.55790   0.17010   0.00000  Uiso   1.00
C139   C     0.88207   0.22105   0.47273   0.00000  Uiso   1.00
C140   C     0.97695   0.19723   0.49289   0.00000  Uiso   1.00
C141   C     0.00443   0.14038   0.56376   0.00000  Uiso   1.00
C142   C     0.09412   0.12722   0.57061   0.00000  Uiso   1.00
C143   C     0.23233   0.08379   0.61130   0.00000  Uiso   1.00
C144   C     0.88035   0.19820   0.37998   0.00000  Uiso   1.00
C145   C     0.82659   0.14218   0.35593   0.00000  Uiso   1.00
C146   C     0.83495   0.12985   0.26773   0.00000  Uiso   1.00
C147   C     0.82314   0.08798   0.13312   0.00000  Uiso   1.00
C148   C     0.86456   0.32096   0.46729   0.00000  Uiso   1.00
C149   C     0.79753   0.36816   0.51662   0.00000  Uiso   1.00
C150   C     0.79258   0.45918   0.50192   0.00000  Uiso   1.00
C151   C     0.75626   0.60791   0.50286   0.00000  Uiso   1.00
C152   C     0.99247   0.29877   0.35888   0.00000  Uiso   1.00
C153   C     0.03691   0.23945   0.43105   0.00000  Uiso   1.00
C154   C     0.12658   0.22637   0.43780   0.00000  Uiso   1.00
C155   C     0.15419   0.16952   0.50867   0.00000  Uiso   1.00
C156   C     0.94031   0.24042   0.31814   0.00000  Uiso   1.00
C157   C     0.94875   0.22817   0.22996   0.00000  Uiso   1.00
C158   C     0.89503   0.17214   0.20578   0.00000  Uiso   1.00
C159   C     0.92453   0.36318   0.40545   0.00000  Uiso   1.00
C160   C     0.91968   0.45415   0.39066   0.00000  Uiso   1.00
C161   C     0.85266   0.50148   0.43996   0.00000  Uiso   1.00
H162   H     0.83538   0.18818   0.52087   0.00000  Uiso   1.00
H163   H     0.95800   0.10772   0.61160   0.00000  Uiso   1.00
H164   H     0.78019   0.10953   0.40379   0.00000  Uiso   1.00
H165   H     0.75113   0.33547   0.56447   0.00000  Uiso   1.00
H166   H     0.12041   0.03711   0.68490   0.00000  Uiso   1.00
H167   H     0.74546   0.04094   0.24673   0.00000  Uiso   1.00
H168   H     0.68418   0.51738   0.58554   0.00000  Uiso   1.00
H169   H     0.03916   0.33164   0.31073   0.00000  Uiso   1.00
H170   H     0.17297   0.25905   0.38993   0.00000  Uiso   1.00
H171   H     0.99516   0.26086   0.18213   0.00000  Uiso   1.00
H172   H     0.96610   0.48679   0.34280   0.00000  Uiso   1.00
H173   H     0.29489   0.15993   0.50498   0.00000  Uiso   1.00
H174   H     0.91993   0.16377   0.06681   0.00000  Uiso   1.00
H175   H     0.85866   0.64021   0.40562   0.00000  Uiso   1.00
O176   O     0.29200   0.04816   0.65082   0.00000  Uiso   1.00
O177   O     0.80006   0.05321   0.07596   0.00000  Uiso   1.00
O178   O     0.71967   0.67828   0.52047   0.00000  Uiso   1.00
N179   N     0.14311   0.07599   0.63170   0.00000  Uiso   1.00
N180   N     0.79256   0.07957   0.22204   0.00000  Uiso   1.00
N181   N     0.73525   0.52499   0.53878   0.00000  Uiso   1.00
N182   N     0.23699   0.14208   0.53489   0.00000  Uiso   1.00
N183   N     0.88644   0.14566   0.12523   0.00000  Uiso   1.00
N184   N     0.82914   0.59109   0.44197   0.00000  Uiso   1.00
C185   C     0.47324   0.88233   0.22122   0.00000  Uiso   1.00
C186   C     0.49345   0.97712   0.19745   0.00000  Uiso   1.00
C187   C     0.56446   0.00454   0.14064   0.00000  Uiso   1.00
C188   C     0.57133   0.09415   0.12752   0.00000  Uiso   1.00
C189   C     0.61210   0.23222   0.08416   0.00000  Uiso   1.00
C190   C     0.38032   0.88063   0.19843   0.00000  Uiso   1.00
C191   C     0.35621   0.82691   0.14246   0.00000  Uiso   1.00
C192   C     0.26785   0.83528   0.13018   0.00000  Uiso   1.00
C193   C     0.13297   0.82350   0.08839   0.00000  Uiso   1.00
C194   C     0.46779   0.86487   0.32102   0.00000  Uiso   1.00
C195   C     0.51722   0.79790   0.36813   0.00000  Uiso   1.00
C196   C     0.50248   0.79299   0.45906   0.00000  Uiso   1.00
C197   C     0.50342   0.75675   0.60761   0.00000  Uiso   1.00
C198   C     0.35917   0.99269   0.29892   0.00000  Uiso   1.00
C199   C     0.43148   0.03706   0.23965   0.00000  Uiso   1.00
C200   C     0.43825   0.12665   0.22661   0.00000  Uiso   1.00
C201   C     0.50926   0.15420   0.16980   0.00000  Uiso   1.00
C202   C     0.31836   0.94057   0.24063   0.00000  Uiso   1.00
C203   C     0.23000   0.94901   0.22843   0.00000  Uiso   1.00
C204   C     0.20577   0.89533   0.17246   0.00000  Uiso   1.00
C205   C     0.40583   0.92482   0.36322   0.00000  Uiso   1.00
C206   C     0.39101   0.92000   0.45410   0.00000  Uiso   1.00
C207   C     0.44041   0.85304   0.50134   0.00000  Uiso   1.00
H208   H     0.52148   0.83566   0.18836   0.00000  Uiso   1.00
H209   H     0.61239   0.95813   0.10799   0.00000  Uiso   1.00
H210   H     0.40417   0.78052   0.10982   0.00000  Uiso   1.00
H211   H     0.56516   0.75152   0.33545   0.00000  Uiso   1.00
H212   H     0.68584   0.12036   0.03747   0.00000  Uiso   1.00
H213   H     0.24680   0.74584   0.04135   0.00000  Uiso   1.00
H214   H     0.58626   0.68467   0.51713   0.00000  Uiso   1.00
H215   H     0.31093   0.03936   0.33178   0.00000  Uiso   1.00
H216   H     0.39029   0.17302   0.25928   0.00000  Uiso   1.00
H217   H     0.18207   0.99540   0.26111   0.00000  Uiso   1.00
H218   H     0.34306   0.96640   0.48674   0.00000  Uiso   1.00
H219   H     0.50558   0.29477   0.16027   0.00000  Uiso   1.00
H220   H     0.06653   0.92024   0.16415   0.00000  Uiso   1.00
H221   H     0.40600   0.85908   0.63993   0.00000  Uiso   1.00
O222   O     0.65170   0.29182   0.04857   0.00000  Uiso   1.00
O223   O     0.07569   0.80044   0.05367   0.00000  Uiso   1.00
O224   O     0.52106   0.72020   0.67788   0.00000  Uiso   1.00
N225   N     0.63254   0.14306   0.07634   0.00000  Uiso   1.00
N226   N     0.22206   0.79291   0.07995   0.00000  Uiso   1.00
N227   N     0.53941   0.73572   0.52477   0.00000  Uiso   1.00
N228   N     0.53554   0.23691   0.14241   0.00000  Uiso   1.00
N229   N     0.12506   0.88676   0.14602   0.00000  Uiso   1.00
N230   N     0.44241   0.82956   0.59084   0.00000  Uiso   1.00
C231   C     0.22087   0.47301   0.88274   0.00000  Uiso   1.00
C232   C     0.19705   0.49323   0.97744   0.00000  Uiso   1.00
C233   C     0.14014   0.56420   0.00487   0.00000  Uiso   1.00
C234   C     0.12699   0.57110   0.09438   0.00000  Uiso   1.00
C235   C     0.08354   0.61189   0.23232   0.00000  Uiso   1.00
C236   C     0.19804   0.38016   0.88102   0.00000  Uiso   1.00
C237   C     0.14196   0.35608   0.82737   0.00000  Uiso   1.00
C238   C     0.12965   0.26779   0.83571   0.00000  Uiso   1.00
C239   C     0.08778   0.13304   0.82392   0.00000  Uiso   1.00
C240   C     0.32087   0.46753   0.86527   0.00000  Uiso   1.00
C241   C     0.36808   0.51688   0.79836   0.00000  Uiso   1.00
C242   C     0.45919   0.50213   0.79342   0.00000  Uiso   1.00
C243   C     0.60803   0.50303   0.75717   0.00000  Uiso   1.00
C244   C     0.29872   0.35905   0.99292   0.00000  Uiso   1.00
C245   C     0.23934   0.43133   0.03728   0.00000  Uiso   1.00
C246   C     0.22628   0.43812   0.12677   0.00000  Uiso   1.00
C247   C     0.16935   0.50909   0.15433   0.00000  Uiso   1.00
C248   C     0.24032   0.31827   0.94086   0.00000  Uiso   1.00
C249   C     0.22810   0.22999   0.94928   0.00000  Uiso   1.00
C250   C     0.17201   0.20578   0.89567   0.00000  Uiso   1.00
C251   C     0.36316   0.40563   0.92511   0.00000  Uiso   1.00
C252   C     0.45421   0.39080   0.92027   0.00000  Uiso   1.00
C253   C     0.50155   0.44012   0.85338   0.00000  Uiso   1.00
H254   H     0.18795   0.52119   0.83614   0.00000  Uiso   1.00
H255   H     0.10742   0.61209   0.95853   0.00000  Uiso   1.00
H256   H     0.10926   0.40399   0.78106   0.00000  Uiso   1.00
H257   H     0.33533   0.56477   0.75206   0.00000  Uiso   1.00
H258   H     0.03677   0.68554   0.12062   0.00000  Uiso   1.00
H259   H     0.04065   0.24676   0.74639   0.00000  Uiso   1.00
H260   H     0.51738   0.58580   0.68523   0.00000  Uiso   1.00
H261   H     0.33165   0.31085   0.03951   0.00000  Uiso   1.00
H262   H     0.25901   0.39020   0.17307   0.00000  Uiso   1.00
H263   H     0.26083   0.18211   0.99560   0.00000  Uiso   1.00
H264   H     0.48691   0.34289   0.96659   0.00000  Uiso   1.00
H265   H     0.15979   0.50545   0.29475   0.00000  Uiso   1.00
H266   H     0.16368   0.06667   0.92051   0.00000  Uiso   1.00
H267   H     0.64041   0.40571   0.85936   0.00000  Uiso   1.00
O268   O     0.04788   0.65148   0.29188   0.00000  Uiso   1.00
O269   O     0.05299   0.07582   0.80089   0.00000  Uiso   1.00
O270   O     0.67845   0.52062   0.72065   0.00000  Uiso   1.00
N271   N     0.07571   0.63228   0.14327   0.00000  Uiso   1.00
N272   N     0.07933   0.22205   0.79340   0.00000  Uiso   1.00
N273   N     0.52503   0.53900   0.73621   0.00000  Uiso   1.00
N274   N     0.14191   0.53537   0.23697   0.00000  Uiso   1.00
N275   N     0.14553   0.12514   0.88710   0.00000  Uiso   1.00
N276   N     0.59123   0.44210   0.82990   0.00000  Uiso   1.00
