data_job_05137
_audit_creation_date              2018-12-19
_audit_creation_method            'Materials Studio'
_symmetry_space_group_name_H-M    'P1'
_symmetry_Int_Tables_number       1
_symmetry_cell_setting            triclinic
loop_
_symmetry_equiv_pos_as_xyz
  x,y,z
_cell_length_a                    12.4476
_cell_length_b                    26.1793
_cell_length_c                    10.0029
_cell_angle_alpha                 90.0000
_cell_angle_beta                  95.1062
_cell_angle_gamma                 90.0000
loop_
_atom_site_label
_atom_site_type_symbol
_atom_site_fract_x
_atom_site_fract_y
_atom_site_fract_z
_atom_site_U_iso_or_equiv
_atom_site_adp_type
_atom_site_occupancy
C1     C     0.31779   0.45793   0.95741   0.00000  Uiso   1.00
C2     C     0.21382   0.46119   0.02690   0.00000  Uiso   1.00
C3     C     0.15001   0.50437   0.03459   0.00000  Uiso   1.00
C4     C     0.05806   0.49954   0.10262   0.00000  Uiso   1.00
C5     C     0.90077   0.51166   0.20171   0.00000  Uiso   1.00
C6     C     0.40437   0.43926   0.06364   0.00000  Uiso   1.00
C7     C     0.50078   0.46401   0.10219   0.00000  Uiso   1.00
C8     C     0.56925   0.44071   0.20114   0.00000  Uiso   1.00
C9     C     0.70782   0.41877   0.35720   0.00000  Uiso   1.00
C10    C     0.30105   0.41482   0.85515   0.00000  Uiso   1.00
C11    C     0.31061   0.41902   0.71840   0.00000  Uiso   1.00
C12    C     0.29212   0.37514   0.64182   0.00000  Uiso   1.00
C13    C     0.27027   0.31527   0.47417   0.00000  Uiso   1.00
C14    C     0.26798   0.37255   0.06456   0.00000  Uiso   1.00
C15    C     0.18677   0.41481   0.08510   0.00000  Uiso   1.00
C16    C     0.09489   0.40991   0.15313   0.00000  Uiso   1.00
C17    C     0.03095   0.45308   0.16091   0.00000  Uiso   1.00
C18    C     0.37732   0.39289   0.12183   0.00000  Uiso   1.00
C19    C     0.44567   0.36954   0.22074   0.00000  Uiso   1.00
C20    C     0.54214   0.39425   0.25944   0.00000  Uiso   1.00
C21    C     0.27399   0.36845   0.91334   0.00000  Uiso   1.00
C22    C     0.25549   0.32456   0.83695   0.00000  Uiso   1.00
C23    C     0.26501   0.32868   0.70012   0.00000  Uiso   1.00
H24    H     0.33887   0.49403   0.91211   0.00000  Uiso   1.00
H25    H     0.17098   0.54026   0.98954   0.00000  Uiso   1.00
H26    H     0.52170   0.49989   0.05713   0.00000  Uiso   1.00
H27    H     0.33155   0.45491   0.67341   0.00000  Uiso   1.00
H28    H     0.97294   0.57106   0.10110   0.00000  Uiso   1.00
H29    H     0.71247   0.48594   0.24358   0.00000  Uiso   1.00
H30    H     0.31151   0.39109   0.43442   0.00000  Uiso   1.00
H31    H     0.24692   0.33644   0.10987   0.00000  Uiso   1.00
H32    H     0.07398   0.37402   0.19816   0.00000  Uiso   1.00
H33    H     0.42470   0.33366   0.26575   0.00000  Uiso   1.00
H34    H     0.23455   0.28868   0.88202   0.00000  Uiso   1.00
H35    H     0.89421   0.43613   0.27043   0.00000  Uiso   1.00
H36    H     0.63374   0.35102   0.41290   0.00000  Uiso   1.00
H37    H     0.23278   0.25617   0.60374   0.00000  Uiso   1.00
O38    O     0.82149   0.53116   0.24031   0.00000  Uiso   1.00
O39    O     0.79173   0.41949   0.42721   0.00000  Uiso   1.00
O40    O     0.26568   0.29505   0.36562   0.00000  Uiso   1.00
N41    N     0.97813   0.53414   0.12881   0.00000  Uiso   1.00
N42    N     0.66954   0.45457   0.26204   0.00000  Uiso   1.00
N43    N     0.29471   0.36589   0.50554   0.00000  Uiso   1.00
N44    N     0.93576   0.46154   0.21992   0.00000  Uiso   1.00
N45    N     0.62718   0.38197   0.35315   0.00000  Uiso   1.00
N46    N     0.25234   0.29329   0.59665   0.00000  Uiso   1.00
C47    C     0.78523   0.53990   0.66874   0.00000  Uiso   1.00
C48    C     0.88952   0.53683   0.59987   0.00000  Uiso   1.00
C49    C     0.95346   0.49370   0.59199   0.00000  Uiso   1.00
C50    C     0.04570   0.49872   0.52461   0.00000  Uiso   1.00
C51    C     0.20347   0.48688   0.42635   0.00000  Uiso   1.00
C52    C     0.69900   0.55873   0.56229   0.00000  Uiso   1.00
C53    C     0.60274   0.53401   0.52283   0.00000  Uiso   1.00
C54    C     0.53460   0.55747   0.42383   0.00000  Uiso   1.00
C55    C     0.39654   0.57964   0.26730   0.00000  Uiso   1.00
C56    C     0.80152   0.58280   0.77165   0.00000  Uiso   1.00
C57    C     0.79143   0.57833   0.90821   0.00000  Uiso   1.00
C58    C     0.80957   0.62206   0.98547   0.00000  Uiso   1.00
C59    C     0.83068   0.68161   0.15399   0.00000  Uiso   1.00
C60    C     0.83536   0.62552   0.56310   0.00000  Uiso   1.00
C61    C     0.91675   0.58334   0.54249   0.00000  Uiso   1.00
C62    C     0.00892   0.58843   0.47511   0.00000  Uiso   1.00
C63    C     0.07298   0.54531   0.46713   0.00000  Uiso   1.00
C64    C     0.72623   0.60523   0.50492   0.00000  Uiso   1.00
C65    C     0.65821   0.62874   0.40596   0.00000  Uiso   1.00
C66    C     0.56188   0.60406   0.36635   0.00000  Uiso   1.00
C67    C     0.82875   0.62931   0.71427   0.00000  Uiso   1.00
C68    C     0.84690   0.67306   0.79133   0.00000  Uiso   1.00
C69    C     0.83684   0.66865   0.92799   0.00000  Uiso   1.00
H70    H     0.76403   0.50369   0.71340   0.00000  Uiso   1.00
H71    H     0.93235   0.45771   0.63639   0.00000  Uiso   1.00
H72    H     0.58169   0.49802   0.56726   0.00000  Uiso   1.00
H73    H     0.77035   0.54233   0.95257   0.00000  Uiso   1.00
H74    H     0.13096   0.42724   0.52567   0.00000  Uiso   1.00
H75    H     0.39155   0.51225   0.37993   0.00000  Uiso   1.00
H76    H     0.78938   0.60568   0.19244   0.00000  Uiso   1.00
H77    H     0.85656   0.66173   0.51843   0.00000  Uiso   1.00
H78    H     0.02997   0.62442   0.43072   0.00000  Uiso   1.00
H79    H     0.67931   0.66473   0.36159   0.00000  Uiso   1.00
H80    H     0.86797   0.70904   0.74690   0.00000  Uiso   1.00
H81    H     0.21019   0.56255   0.35873   0.00000  Uiso   1.00
H82    H     0.47078   0.64755   0.21300   0.00000  Uiso   1.00
H83    H     0.86861   0.74099   0.02550   0.00000  Uiso   1.00
O84    O     0.28296   0.46750   0.38798   0.00000  Uiso   1.00
O85    O     0.31288   0.57902   0.19680   0.00000  Uiso   1.00
O86    O     0.83482   0.70161   0.26279   0.00000  Uiso   1.00
N87    N     0.12582   0.46421   0.49844   0.00000  Uiso   1.00
N88    N     0.43452   0.54368   0.36217   0.00000  Uiso   1.00
N89    N     0.80643   0.63104   0.12179   0.00000  Uiso   1.00
N90    N     0.16845   0.53701   0.40861   0.00000  Uiso   1.00
N91    N     0.47716   0.61648   0.27234   0.00000  Uiso   1.00
N92    N     0.84907   0.70385   0.03197   0.00000  Uiso   1.00
C93    C     0.68221   0.95793   0.04259   0.00000  Uiso   1.00
C94    C     0.78618   0.96119   0.97310   0.00000  Uiso   1.00
C95    C     0.84999   0.00437   0.96541   0.00000  Uiso   1.00
C96    C     0.94194   0.99954   0.89738   0.00000  Uiso   1.00
C97    C     0.09923   0.01166   0.79829   0.00000  Uiso   1.00
C98    C     0.59563   0.93926   0.93636   0.00000  Uiso   1.00
C99    C     0.49922   0.96401   0.89781   0.00000  Uiso   1.00
C100   C     0.43075   0.94071   0.79886   0.00000  Uiso   1.00
C101   C     0.29218   0.91877   0.64280   0.00000  Uiso   1.00
C102   C     0.69895   0.91482   0.14485   0.00000  Uiso   1.00
C103   C     0.68939   0.91902   0.28160   0.00000  Uiso   1.00
C104   C     0.70788   0.87514   0.35818   0.00000  Uiso   1.00
C105   C     0.72973   0.81527   0.52583   0.00000  Uiso   1.00
C106   C     0.73202   0.87255   0.93544   0.00000  Uiso   1.00
C107   C     0.81323   0.91481   0.91490   0.00000  Uiso   1.00
C108   C     0.90511   0.90991   0.84687   0.00000  Uiso   1.00
C109   C     0.96905   0.95308   0.83909   0.00000  Uiso   1.00
C110   C     0.62268   0.89289   0.87817   0.00000  Uiso   1.00
C111   C     0.55433   0.86954   0.77926   0.00000  Uiso   1.00
C112   C     0.45786   0.89425   0.74056   0.00000  Uiso   1.00
C113   C     0.72601   0.86845   0.08666   0.00000  Uiso   1.00
C114   C     0.74451   0.82456   0.16305   0.00000  Uiso   1.00
C115   C     0.73499   0.82868   0.29988   0.00000  Uiso   1.00
H116   H     0.66113   0.99403   0.08789   0.00000  Uiso   1.00
H117   H     0.82902   0.04026   0.01046   0.00000  Uiso   1.00
H118   H     0.47830   0.99989   0.94287   0.00000  Uiso   1.00
H119   H     0.66845   0.95491   0.32659   0.00000  Uiso   1.00
H120   H     0.02706   0.07106   0.89890   0.00000  Uiso   1.00
H121   H     0.28753   0.98594   0.75642   0.00000  Uiso   1.00
H122   H     0.68849   0.89109   0.56558   0.00000  Uiso   1.00
H123   H     0.75308   0.83644   0.89013   0.00000  Uiso   1.00
H124   H     0.92602   0.87402   0.80184   0.00000  Uiso   1.00
H125   H     0.57530   0.83366   0.73425   0.00000  Uiso   1.00
H126   H     0.76545   0.78868   0.11798   0.00000  Uiso   1.00
H127   H     0.10579   0.93613   0.72957   0.00000  Uiso   1.00
H128   H     0.36626   0.85102   0.58710   0.00000  Uiso   1.00
H129   H     0.76722   0.75617   0.39626   0.00000  Uiso   1.00
O130   O     0.17851   0.03116   0.75969   0.00000  Uiso   1.00
O131   O     0.20827   0.91949   0.57279   0.00000  Uiso   1.00
O132   O     0.73432   0.79505   0.63438   0.00000  Uiso   1.00
N133   N     0.02187   0.03414   0.87119   0.00000  Uiso   1.00
N134   N     0.33046   0.95457   0.73796   0.00000  Uiso   1.00
N135   N     0.70529   0.86589   0.49446   0.00000  Uiso   1.00
N136   N     0.06424   0.96154   0.78008   0.00000  Uiso   1.00
N137   N     0.37282   0.88197   0.64685   0.00000  Uiso   1.00
N138   N     0.74766   0.79329   0.40335   0.00000  Uiso   1.00
C139   C     0.21477   0.03990   0.33126   0.00000  Uiso   1.00
C140   C     0.11048   0.03683   0.40013   0.00000  Uiso   1.00
C141   C     0.04654   0.99370   0.40801   0.00000  Uiso   1.00
C142   C     0.95430   0.99872   0.47539   0.00000  Uiso   1.00
C143   C     0.79653   0.98688   0.57365   0.00000  Uiso   1.00
C144   C     0.30100   0.05873   0.43771   0.00000  Uiso   1.00
C145   C     0.39726   0.03401   0.47717   0.00000  Uiso   1.00
C146   C     0.46540   0.05747   0.57617   0.00000  Uiso   1.00
C147   C     0.60346   0.07964   0.73270   0.00000  Uiso   1.00
C148   C     0.19848   0.08280   0.22835   0.00000  Uiso   1.00
C149   C     0.20857   0.07833   0.09179   0.00000  Uiso   1.00
C150   C     0.19043   0.12206   0.01453   0.00000  Uiso   1.00
C151   C     0.16932   0.18161   0.84601   0.00000  Uiso   1.00
C152   C     0.16464   0.12552   0.43690   0.00000  Uiso   1.00
C153   C     0.08325   0.08334   0.45751   0.00000  Uiso   1.00
C154   C     0.99108   0.08843   0.52489   0.00000  Uiso   1.00
C155   C     0.92702   0.04531   0.53287   0.00000  Uiso   1.00
C156   C     0.27377   0.10523   0.49508   0.00000  Uiso   1.00
C157   C     0.34179   0.12874   0.59404   0.00000  Uiso   1.00
C158   C     0.43812   0.10406   0.63365   0.00000  Uiso   1.00
C159   C     0.17125   0.12931   0.28573   0.00000  Uiso   1.00
C160   C     0.15310   0.17306   0.20867   0.00000  Uiso   1.00
C161   C     0.16316   0.16865   0.07201   0.00000  Uiso   1.00
H162   H     0.23597   0.00369   0.28660   0.00000  Uiso   1.00
H163   H     0.06765   0.95771   0.36361   0.00000  Uiso   1.00
H164   H     0.41831   0.99802   0.43274   0.00000  Uiso   1.00
H165   H     0.22965   0.04233   0.04743   0.00000  Uiso   1.00
H166   H     0.86904   0.92724   0.47433   0.00000  Uiso   1.00
H167   H     0.60845   0.01225   0.62007   0.00000  Uiso   1.00
H168   H     0.21062   0.10568   0.80756   0.00000  Uiso   1.00
H169   H     0.14344   0.16173   0.48157   0.00000  Uiso   1.00
H170   H     0.97003   0.12442   0.56928   0.00000  Uiso   1.00
H171   H     0.32069   0.16473   0.63841   0.00000  Uiso   1.00
H172   H     0.13203   0.20904   0.25310   0.00000  Uiso   1.00
H173   H     0.78981   0.06255   0.64127   0.00000  Uiso   1.00
H174   H     0.52922   0.14755   0.78700   0.00000  Uiso   1.00
H175   H     0.13139   0.24099   0.97450   0.00000  Uiso   1.00
O176   O     0.71704   0.96750   0.61202   0.00000  Uiso   1.00
O177   O     0.68712   0.07902   0.80320   0.00000  Uiso   1.00
O178   O     0.16518   0.20161   0.73721   0.00000  Uiso   1.00
N179   N     0.87418   0.96421   0.50156   0.00000  Uiso   1.00
N180   N     0.56548   0.04368   0.63783   0.00000  Uiso   1.00
N181   N     0.19357   0.13104   0.87821   0.00000  Uiso   1.00
N182   N     0.83155   0.03701   0.59139   0.00000  Uiso   1.00
N183   N     0.52284   0.11648   0.72766   0.00000  Uiso   1.00
N184   N     0.15093   0.20385   0.96803   0.00000  Uiso   1.00
