data_job_02438
_audit_creation_date              2018-12-19
_audit_creation_method            'Materials Studio'
_symmetry_space_group_name_H-M    'P1'
_symmetry_Int_Tables_number       1
_symmetry_cell_setting            triclinic
loop_
_symmetry_equiv_pos_as_xyz
  x,y,z
_cell_length_a                    10.9285
_cell_length_b                    16.0372
_cell_length_c                    14.6806
_cell_angle_alpha                 90.0000
_cell_angle_beta                  90.0000
_cell_angle_gamma                 90.0000
loop_
_atom_site_label
_atom_site_type_symbol
_atom_site_fract_x
_atom_site_fract_y
_atom_site_fract_z
_atom_site_U_iso_or_equiv
_atom_site_adp_type
_atom_site_occupancy
C1     C     0.34989   0.96959   0.91355   0.00000  Uiso   1.00
C2     C     0.28043   0.04074   0.95911   0.00000  Uiso   1.00
C3     C     0.30818   0.07584   0.04301   0.00000  Uiso   1.00
C4     C     0.23353   0.14036   0.07283   0.00000  Uiso   1.00
C5     C     0.14067   0.24649   0.15154   0.00000  Uiso   1.00
C6     C     0.25555   0.90158   0.89516   0.00000  Uiso   1.00
C7     C     0.26240   0.81969   0.92529   0.00000  Uiso   1.00
C8     C     0.16682   0.76706   0.90126   0.00000  Uiso   1.00
C9     C     0.03538   0.65714   0.88064   0.00000  Uiso   1.00
C10    C     0.38903   0.00220   0.82043   0.00000  Uiso   1.00
C11    C     0.50810   0.00488   0.78769   0.00000  Uiso   1.00
C12    C     0.52490   0.03694   0.70074   0.00000  Uiso   1.00
C13    C     0.60070   0.08323   0.56408   0.00000  Uiso   1.00
C14    C     0.16799   0.02175   0.81731   0.00000  Uiso   1.00
C15    C     0.18162   0.06906   0.90684   0.00000  Uiso   1.00
C16    C     0.10692   0.13355   0.93653   0.00000  Uiso   1.00
C17    C     0.13455   0.16874   0.02046   0.00000  Uiso   1.00
C18    C     0.15675   0.92991   0.84289   0.00000  Uiso   1.00
C19    C     0.06114   0.87739   0.81881   0.00000  Uiso   1.00
C20    C     0.06783   0.79544   0.84890   0.00000  Uiso   1.00
C21    C     0.29023   0.03053   0.76815   0.00000  Uiso   1.00
C22    C     0.30684   0.06259   0.68122   0.00000  Uiso   1.00
C23    C     0.42591   0.06532   0.64837   0.00000  Uiso   1.00
H24    H     0.42681   0.94753   0.95424   0.00000  Uiso   1.00
H25    H     0.38464   0.05390   0.08344   0.00000  Uiso   1.00
H26    H     0.33888   0.79778   0.96573   0.00000  Uiso   1.00
H27    H     0.58454   0.98295   0.82816   0.00000  Uiso   1.00
H28    H     0.29429   0.18429   0.20365   0.00000  Uiso   1.00
H29    H     0.19781   0.64425   0.95542   0.00000  Uiso   1.00
H30    H     0.71584   0.03471   0.66533   0.00000  Uiso   1.00
H31    H     0.09106   0.04380   0.77661   0.00000  Uiso   1.00
H32    H     0.03046   0.15546   0.89607   0.00000  Uiso   1.00
H33    H     0.98470   0.89934   0.77836   0.00000  Uiso   1.00
H34    H     0.23036   0.08450   0.64079   0.00000  Uiso   1.00
H35    H     0.00682   0.26672   0.05157   0.00000  Uiso   1.00
H36    H     0.91034   0.72667   0.80334   0.00000  Uiso   1.00
H37    H     0.42837   0.11713   0.51325   0.00000  Uiso   1.00
O38    O     0.11673   0.29719   0.20941   0.00000  Uiso   1.00
O39    O     0.99017   0.58868   0.88373   0.00000  Uiso   1.00
O40    O     0.66980   0.10095   0.50315   0.00000  Uiso   1.00
N41    N     0.23496   0.18838   0.15146   0.00000  Uiso   1.00
N42    N     0.14475   0.68348   0.91939   0.00000  Uiso   1.00
N43    N     0.62906   0.04850   0.64817   0.00000  Uiso   1.00
N44    N     0.08028   0.23273   0.06962   0.00000  Uiso   1.00
N45    N     0.99007   0.72783   0.83755   0.00000  Uiso   1.00
N46    N     0.47438   0.09285   0.56634   0.00000  Uiso   1.00
C47    C     0.15011   0.03041   0.41355   0.00000  Uiso   1.00
C48    C     0.21957   0.95926   0.45911   0.00000  Uiso   1.00
C49    C     0.19182   0.92416   0.54301   0.00000  Uiso   1.00
C50    C     0.26647   0.85964   0.57283   0.00000  Uiso   1.00
C51    C     0.35933   0.75351   0.65154   0.00000  Uiso   1.00
C52    C     0.24445   0.09842   0.39516   0.00000  Uiso   1.00
C53    C     0.23760   0.18031   0.42529   0.00000  Uiso   1.00
C54    C     0.33318   0.23294   0.40126   0.00000  Uiso   1.00
C55    C     0.46462   0.34286   0.38064   0.00000  Uiso   1.00
C56    C     0.11097   0.99780   0.32043   0.00000  Uiso   1.00
C57    C     0.99190   0.99512   0.28769   0.00000  Uiso   1.00
C58    C     0.97510   0.96306   0.20074   0.00000  Uiso   1.00
C59    C     0.89930   0.91677   0.06408   0.00000  Uiso   1.00
C60    C     0.33201   0.97825   0.31731   0.00000  Uiso   1.00
C61    C     0.31838   0.93094   0.40684   0.00000  Uiso   1.00
C62    C     0.39308   0.86645   0.43653   0.00000  Uiso   1.00
C63    C     0.36545   0.83126   0.52046   0.00000  Uiso   1.00
C64    C     0.34325   0.07009   0.34289   0.00000  Uiso   1.00
C65    C     0.43886   0.12261   0.31881   0.00000  Uiso   1.00
C66    C     0.43217   0.20456   0.34890   0.00000  Uiso   1.00
C67    C     0.20977   0.96947   0.26815   0.00000  Uiso   1.00
C68    C     0.19316   0.93741   0.18122   0.00000  Uiso   1.00
C69    C     0.07409   0.93468   0.14837   0.00000  Uiso   1.00
H70    H     0.07319   0.05247   0.45424   0.00000  Uiso   1.00
H71    H     0.11536   0.94610   0.58344   0.00000  Uiso   1.00
H72    H     0.16112   0.20222   0.46573   0.00000  Uiso   1.00
H73    H     0.91546   0.01705   0.32816   0.00000  Uiso   1.00
H74    H     0.20571   0.81571   0.70365   0.00000  Uiso   1.00
H75    H     0.30219   0.35575   0.45542   0.00000  Uiso   1.00
H76    H     0.78416   0.96529   0.16533   0.00000  Uiso   1.00
H77    H     0.40894   0.95620   0.27661   0.00000  Uiso   1.00
H78    H     0.46954   0.84454   0.39607   0.00000  Uiso   1.00
H79    H     0.51530   0.10066   0.27836   0.00000  Uiso   1.00
H80    H     0.26964   0.91550   0.14079   0.00000  Uiso   1.00
H81    H     0.49318   0.73328   0.55157   0.00000  Uiso   1.00
H82    H     0.58966   0.27333   0.30334   0.00000  Uiso   1.00
H83    H     0.07163   0.88287   0.01325   0.00000  Uiso   1.00
O84    O     0.38327   0.70281   0.70941   0.00000  Uiso   1.00
O85    O     0.50983   0.41132   0.38373   0.00000  Uiso   1.00
O86    O     0.83020   0.89905   0.00315   0.00000  Uiso   1.00
N87    N     0.26504   0.81162   0.65146   0.00000  Uiso   1.00
N88    N     0.35525   0.31652   0.41939   0.00000  Uiso   1.00
N89    N     0.87094   0.95150   0.14817   0.00000  Uiso   1.00
N90    N     0.41972   0.76727   0.56962   0.00000  Uiso   1.00
N91    N     0.50993   0.27217   0.33755   0.00000  Uiso   1.00
N92    N     0.02562   0.90715   0.06634   0.00000  Uiso   1.00
C93    C     0.65011   0.46959   0.58645   0.00000  Uiso   1.00
C94    C     0.71957   0.54074   0.54089   0.00000  Uiso   1.00
C95    C     0.69182   0.57584   0.45699   0.00000  Uiso   1.00
C96    C     0.76647   0.64036   0.42717   0.00000  Uiso   1.00
C97    C     0.85933   0.74649   0.34846   0.00000  Uiso   1.00
C98    C     0.74445   0.40158   0.60484   0.00000  Uiso   1.00
C99    C     0.73760   0.31969   0.57471   0.00000  Uiso   1.00
C100   C     0.83318   0.26706   0.59874   0.00000  Uiso   1.00
C101   C     0.96462   0.15714   0.61936   0.00000  Uiso   1.00
C102   C     0.61097   0.50220   0.67957   0.00000  Uiso   1.00
C103   C     0.49190   0.50488   0.71231   0.00000  Uiso   1.00
C104   C     0.47510   0.53694   0.79926   0.00000  Uiso   1.00
C105   C     0.39930   0.58323   0.93592   0.00000  Uiso   1.00
C106   C     0.83201   0.52175   0.68269   0.00000  Uiso   1.00
C107   C     0.81838   0.56906   0.59316   0.00000  Uiso   1.00
C108   C     0.89308   0.63355   0.56347   0.00000  Uiso   1.00
C109   C     0.86545   0.66874   0.47954   0.00000  Uiso   1.00
C110   C     0.84325   0.42991   0.65711   0.00000  Uiso   1.00
C111   C     0.93886   0.37739   0.68119   0.00000  Uiso   1.00
C112   C     0.93217   0.29544   0.65110   0.00000  Uiso   1.00
C113   C     0.70977   0.53053   0.73185   0.00000  Uiso   1.00
C114   C     0.69316   0.56259   0.81878   0.00000  Uiso   1.00
C115   C     0.57409   0.56532   0.85163   0.00000  Uiso   1.00
H116   H     0.57319   0.44753   0.54576   0.00000  Uiso   1.00
H117   H     0.61536   0.55390   0.41656   0.00000  Uiso   1.00
H118   H     0.66112   0.29778   0.53427   0.00000  Uiso   1.00
H119   H     0.41546   0.48295   0.67184   0.00000  Uiso   1.00
H120   H     0.70571   0.68429   0.29635   0.00000  Uiso   1.00
H121   H     0.80219   0.14425   0.54458   0.00000  Uiso   1.00
H122   H     0.28416   0.53471   0.83467   0.00000  Uiso   1.00
H123   H     0.90894   0.54380   0.72339   0.00000  Uiso   1.00
H124   H     0.96954   0.65546   0.60393   0.00000  Uiso   1.00
H125   H     0.01530   0.39934   0.72164   0.00000  Uiso   1.00
H126   H     0.76964   0.58450   0.85921   0.00000  Uiso   1.00
H127   H     0.99318   0.76672   0.44843   0.00000  Uiso   1.00
H128   H     0.08966   0.22667   0.69666   0.00000  Uiso   1.00
H129   H     0.57163   0.61713   0.98675   0.00000  Uiso   1.00
O130   O     0.88327   0.79719   0.29059   0.00000  Uiso   1.00
O131   O     0.00983   0.08868   0.61627   0.00000  Uiso   1.00
O132   O     0.33020   0.60095   0.99685   0.00000  Uiso   1.00
N133   N     0.76504   0.68838   0.34854   0.00000  Uiso   1.00
N134   N     0.85525   0.18348   0.58061   0.00000  Uiso   1.00
N135   N     0.37094   0.54850   0.85183   0.00000  Uiso   1.00
N136   N     0.91972   0.73273   0.43038   0.00000  Uiso   1.00
N137   N     0.00993   0.22783   0.66245   0.00000  Uiso   1.00
N138   N     0.52562   0.59285   0.93366   0.00000  Uiso   1.00
C139   C     0.84989   0.53041   0.08645   0.00000  Uiso   1.00
C140   C     0.78043   0.45926   0.04089   0.00000  Uiso   1.00
C141   C     0.80818   0.42416   0.95699   0.00000  Uiso   1.00
C142   C     0.73353   0.35964   0.92717   0.00000  Uiso   1.00
C143   C     0.64067   0.25351   0.84846   0.00000  Uiso   1.00
C144   C     0.75555   0.59842   0.10484   0.00000  Uiso   1.00
C145   C     0.76240   0.68031   0.07471   0.00000  Uiso   1.00
C146   C     0.66682   0.73294   0.09874   0.00000  Uiso   1.00
C147   C     0.53538   0.84286   0.11936   0.00000  Uiso   1.00
C148   C     0.88903   0.49780   0.17957   0.00000  Uiso   1.00
C149   C     0.00810   0.49512   0.21231   0.00000  Uiso   1.00
C150   C     0.02490   0.46306   0.29926   0.00000  Uiso   1.00
C151   C     0.10070   0.41677   0.43592   0.00000  Uiso   1.00
C152   C     0.66799   0.47825   0.18269   0.00000  Uiso   1.00
C153   C     0.68162   0.43094   0.09316   0.00000  Uiso   1.00
C154   C     0.60692   0.36645   0.06347   0.00000  Uiso   1.00
C155   C     0.63455   0.33126   0.97954   0.00000  Uiso   1.00
C156   C     0.65675   0.57009   0.15711   0.00000  Uiso   1.00
C157   C     0.56114   0.62261   0.18119   0.00000  Uiso   1.00
C158   C     0.56783   0.70456   0.15110   0.00000  Uiso   1.00
C159   C     0.79023   0.46947   0.23185   0.00000  Uiso   1.00
C160   C     0.80684   0.43741   0.31878   0.00000  Uiso   1.00
C161   C     0.92591   0.43468   0.35163   0.00000  Uiso   1.00
H162   H     0.92681   0.55247   0.04576   0.00000  Uiso   1.00
H163   H     0.88464   0.44610   0.91656   0.00000  Uiso   1.00
H164   H     0.83888   0.70222   0.03427   0.00000  Uiso   1.00
H165   H     0.08454   0.51705   0.17184   0.00000  Uiso   1.00
H166   H     0.79429   0.31571   0.79635   0.00000  Uiso   1.00
H167   H     0.69781   0.85575   0.04458   0.00000  Uiso   1.00
H168   H     0.21584   0.46529   0.33467   0.00000  Uiso   1.00
H169   H     0.59106   0.45620   0.22339   0.00000  Uiso   1.00
H170   H     0.53046   0.34454   0.10393   0.00000  Uiso   1.00
H171   H     0.48470   0.60066   0.22164   0.00000  Uiso   1.00
H172   H     0.73036   0.41550   0.35921   0.00000  Uiso   1.00
H173   H     0.50682   0.23328   0.94843   0.00000  Uiso   1.00
H174   H     0.41034   0.77333   0.19666   0.00000  Uiso   1.00
H175   H     0.92837   0.38287   0.48675   0.00000  Uiso   1.00
O176   O     0.61673   0.20281   0.79059   0.00000  Uiso   1.00
O177   O     0.49017   0.91132   0.11627   0.00000  Uiso   1.00
O178   O     0.16980   0.39905   0.49685   0.00000  Uiso   1.00
N179   N     0.73496   0.31162   0.84854   0.00000  Uiso   1.00
N180   N     0.64475   0.81652   0.08061   0.00000  Uiso   1.00
N181   N     0.12906   0.45150   0.35183   0.00000  Uiso   1.00
N182   N     0.58028   0.26727   0.93038   0.00000  Uiso   1.00
N183   N     0.49007   0.77217   0.16245   0.00000  Uiso   1.00
N184   N     0.97438   0.40715   0.43366   0.00000  Uiso   1.00
