data_job_06943
_audit_creation_date              2018-12-19
_audit_creation_method            'Materials Studio'
_symmetry_space_group_name_H-M    'P1'
_symmetry_Int_Tables_number       1
_symmetry_cell_setting            triclinic
loop_
_symmetry_equiv_pos_as_xyz
  x,y,z
_cell_length_a                    20.5786
_cell_length_b                    21.6319
_cell_length_c                    23.5206
_cell_angle_alpha                 113.1154
_cell_angle_beta                  85.5085
_cell_angle_gamma                 63.8236
loop_
_atom_site_label
_atom_site_type_symbol
_atom_site_fract_x
_atom_site_fract_y
_atom_site_fract_z
_atom_site_U_iso_or_equiv
_atom_site_adp_type
_atom_site_occupancy
C1     C     0.06389   0.73375   0.60212   0.00000  Uiso   1.00
C2     C     0.07401   0.77829   0.66613   0.00000  Uiso   1.00
C3     C     0.13400   0.79117   0.67280   0.00000  Uiso   1.00
C4     C     0.13288   0.83325   0.73553   0.00000  Uiso   1.00
C5     C     0.15759   0.89808   0.82670   0.00000  Uiso   1.00
C6     C     0.05686   0.66843   0.60666   0.00000  Uiso   1.00
C7     C     0.10242   0.58895   0.56332   0.00000  Uiso   1.00
C8     C     0.08685   0.53857   0.57599   0.00000  Uiso   1.00
C9     C     0.08490   0.43286   0.57481   0.00000  Uiso   1.00
C10    C     0.98633   0.79005   0.60178   0.00000  Uiso   1.00
C11    C     0.97259   0.81282   0.55433   0.00000  Uiso   1.00
C12    C     0.89764   0.86481   0.56289   0.00000  Uiso   1.00
C13    C     0.78618   0.94793   0.55413   0.00000  Uiso   1.00
C14    C     0.95521   0.78559   0.70167   0.00000  Uiso   1.00
C15    C     0.01498   0.80644   0.72020   0.00000  Uiso   1.00
C16    C     0.01376   0.84852   0.78294   0.00000  Uiso   1.00
C17    C     0.07374   0.86146   0.78970   0.00000  Uiso   1.00
C18    C     0.99783   0.69658   0.66073   0.00000  Uiso   1.00
C19    C     0.98218   0.64630   0.67346   0.00000  Uiso   1.00
C20    C     0.02771   0.56677   0.63016   0.00000  Uiso   1.00
C21    C     0.92730   0.81821   0.65586   0.00000  Uiso   1.00
C22    C     0.85235   0.87017   0.66448   0.00000  Uiso   1.00
C23    C     0.83850   0.89301   0.61705   0.00000  Uiso   1.00
H24    H     0.10985   0.71183   0.56002   0.00000  Uiso   1.00
H25    H     0.17968   0.76936   0.63094   0.00000  Uiso   1.00
H26    H     0.14810   0.56719   0.52148   0.00000  Uiso   1.00
H27    H     0.01829   0.79102   0.51250   0.00000  Uiso   1.00
H28    H     0.23108   0.84554   0.73342   0.00000  Uiso   1.00
H29    H     0.16447   0.41924   0.50260   0.00000  Uiso   1.00
H30    H     0.89074   0.89123   0.48366   0.00000  Uiso   1.00
H31    H     0.90925   0.80750   0.74376   0.00000  Uiso   1.00
H32    H     0.96807   0.87030   0.82477   0.00000  Uiso   1.00
H33    H     0.93649   0.66811   0.71531   0.00000  Uiso   1.00
H34    H     0.80668   0.89194   0.70633   0.00000  Uiso   1.00
H35    H     0.05933   0.92746   0.89073   0.00000  Uiso   1.00
H36    H     0.99272   0.50115   0.65992   0.00000  Uiso   1.00
H37    H     0.71899   0.97314   0.64097   0.00000  Uiso   1.00
O38    O     0.18753   0.92606   0.86205   0.00000  Uiso   1.00
O39    O     0.10014   0.36677   0.55922   0.00000  Uiso   1.00
O40    O     0.74101   0.98600   0.53437   0.00000  Uiso   1.00
N41    N     0.18258   0.85622   0.75932   0.00000  Uiso   1.00
N42    N     0.12031   0.45765   0.54353   0.00000  Uiso   1.00
N43    N     0.86440   0.89890   0.52581   0.00000  Uiso   1.00
N44    N     0.09016   0.90030   0.84398   0.00000  Uiso   1.00
N45    N     0.02789   0.50173   0.62818   0.00000  Uiso   1.00
N46    N     0.77198   0.94298   0.61046   0.00000  Uiso   1.00
C47    C     0.03199   0.68522   0.23288   0.00000  Uiso   1.00
C48    C     0.06801   0.69302   0.17883   0.00000  Uiso   1.00
C49    C     0.11820   0.63166   0.11846   0.00000  Uiso   1.00
C50    C     0.14480   0.65097   0.07576   0.00000  Uiso   1.00
C51    C     0.20423   0.65124   0.98924   0.00000  Uiso   1.00
C52    C     0.05290   0.72394   0.29215   0.00000  Uiso   1.00
C53    C     0.09038   0.68856   0.32706   0.00000  Uiso   1.00
C54    C     0.10425   0.73390   0.37976   0.00000  Uiso   1.00
C55    C     0.14017   0.78218   0.46921   0.00000  Uiso   1.00
C56    C     0.94628   0.73696   0.24926   0.00000  Uiso   1.00
C57    C     0.89411   0.71255   0.24813   0.00000  Uiso   1.00
C58    C     0.81821   0.76886   0.26474   0.00000  Uiso   1.00
C59    C     0.68860   0.83736   0.28759   0.00000  Uiso   1.00
C60    C     0.98999   0.82862   0.26441   0.00000  Uiso   1.00
C61    C     0.04520   0.77092   0.19596   0.00000  Uiso   1.00
C62    C     0.07173   0.79032   0.15334   0.00000  Uiso   1.00
C63    C     0.12195   0.72900   0.09291   0.00000  Uiso   1.00
C64    C     0.03009   0.80182   0.30928   0.00000  Uiso   1.00
C65    C     0.04391   0.84722   0.36194   0.00000  Uiso   1.00
C66    C     0.08140   0.81193   0.39692   0.00000  Uiso   1.00
C67    C     0.92347   0.81485   0.26639   0.00000  Uiso   1.00
C68    C     0.84764   0.87121   0.28301   0.00000  Uiso   1.00
C69    C     0.79536   0.84689   0.28190   0.00000  Uiso   1.00
H70    H     0.04975   0.62458   0.21955   0.00000  Uiso   1.00
H71    H     0.13585   0.57139   0.10522   0.00000  Uiso   1.00
H72    H     0.10802   0.62829   0.31380   0.00000  Uiso   1.00
H73    H     0.91178   0.65227   0.23488   0.00000  Uiso   1.00
H74    H     0.22126   0.54677   0.98603   0.00000  Uiso   1.00
H75    H     0.16256   0.66675   0.42584   0.00000  Uiso   1.00
H76    H     0.74875   0.71733   0.25942   0.00000  Uiso   1.00
H77    H     0.97223   0.88926   0.27775   0.00000  Uiso   1.00
H78    H     0.05407   0.85060   0.16661   0.00000  Uiso   1.00
H79    H     0.02624   0.90750   0.37518   0.00000  Uiso   1.00
H80    H     0.83001   0.93148   0.29626   0.00000  Uiso   1.00
H81    H     0.15489   0.77339   0.03586   0.00000  Uiso   1.00
H82    H     0.09618   0.89337   0.47567   0.00000  Uiso   1.00
H83    H     0.68238   0.94394   0.30924   0.00000  Uiso   1.00
O84    O     0.24333   0.62987   0.93679   0.00000  Uiso   1.00
O85    O     0.16630   0.78728   0.51381   0.00000  Uiso   1.00
O86    O     0.62341   0.85363   0.29546   0.00000  Uiso   1.00
N87    N     0.19439   0.60541   0.01301   0.00000  Uiso   1.00
N88    N     0.13952   0.71758   0.42419   0.00000  Uiso   1.00
N89    N     0.75265   0.76487   0.26862   0.00000  Uiso   1.00
N90    N     0.15868   0.72735   0.03982   0.00000  Uiso   1.00
N91    N     0.10381   0.83953   0.45100   0.00000  Uiso   1.00
N92    N     0.71694   0.88681   0.29543   0.00000  Uiso   1.00
C93    C     0.04224   0.46361   0.38868   0.00000  Uiso   1.00
C94    C     0.09397   0.38562   0.38662   0.00000  Uiso   1.00
C95    C     0.16957   0.35599   0.38511   0.00000  Uiso   1.00
C96    C     0.20711   0.28358   0.38332   0.00000  Uiso   1.00
C97    C     0.29305   0.16873   0.38014   0.00000  Uiso   1.00
C98    C     0.01274   0.44413   0.33043   0.00000  Uiso   1.00
C99    C     0.02002   0.46371   0.28170   0.00000  Uiso   1.00
C100   C     0.98917   0.44057   0.23262   0.00000  Uiso   1.00
C101   C     0.94895   0.41661   0.14223   0.00000  Uiso   1.00
C102   C     0.97357   0.50907   0.44863   0.00000  Uiso   1.00
C103   C     0.94791   0.58326   0.49926   0.00000  Uiso   1.00
C104   C     0.88407   0.61480   0.54969   0.00000  Uiso   1.00
C105   C     0.78304   0.69167   0.64281   0.00000  Uiso   1.00
C106   C     0.97449   0.38771   0.38817   0.00000  Uiso   1.00
C107   C     0.05717   0.34439   0.38634   0.00000  Uiso   1.00
C108   C     0.09461   0.27201   0.38456   0.00000  Uiso   1.00
C109   C     0.17024   0.24228   0.38305   0.00000  Uiso   1.00
C110   C     0.97594   0.40290   0.33016   0.00000  Uiso   1.00
C111   C     0.94506   0.37973   0.28114   0.00000  Uiso   1.00
C112   C     0.95231   0.39926   0.23234   0.00000  Uiso   1.00
C113   C     0.93677   0.46784   0.44836   0.00000  Uiso   1.00
C114   C     0.87296   0.49927   0.49871   0.00000  Uiso   1.00
C115   C     0.84721   0.57350   0.54941   0.00000  Uiso   1.00
H116   H     0.07089   0.49571   0.38888   0.00000  Uiso   1.00
H117   H     0.19803   0.38791   0.38532   0.00000  Uiso   1.00
H118   H     0.04850   0.49563   0.28193   0.00000  Uiso   1.00
H119   H     0.97640   0.61515   0.49946   0.00000  Uiso   1.00
H120   H     0.32277   0.25020   0.38122   0.00000  Uiso   1.00
H121   H     0.00746   0.47734   0.16322   0.00000  Uiso   1.00
H122   H     0.85543   0.72939   0.62193   0.00000  Uiso   1.00
H123   H     0.94583   0.35561   0.38796   0.00000  Uiso   1.00
H124   H     0.06611   0.24011   0.38435   0.00000  Uiso   1.00
H125   H     0.91659   0.34783   0.28095   0.00000  Uiso   1.00
H126   H     0.84449   0.46735   0.49848   0.00000  Uiso   1.00
H127   H     0.21570   0.13024   0.38043   0.00000  Uiso   1.00
H128   H     0.90039   0.35738   0.16243   0.00000  Uiso   1.00
H129   H     0.74836   0.60943   0.62114   0.00000  Uiso   1.00
O130   O     0.35062   0.11676   0.37844   0.00000  Uiso   1.00
O131   O     0.93694   0.41477   0.09244   0.00000  Uiso   1.00
O132   O     0.73748   0.74545   0.69426   0.00000  Uiso   1.00
N133   N     0.28106   0.23782   0.38154   0.00000  Uiso   1.00
N134   N     0.98627   0.45017   0.17772   0.00000  Uiso   1.00
N135   N     0.84412   0.68583   0.60657   0.00000  Uiso   1.00
N136   N     0.22345   0.17327   0.38112   0.00000  Uiso   1.00
N137   N     0.92866   0.38563   0.17730   0.00000  Uiso   1.00
N138   N     0.78651   0.62128   0.60614   0.00000  Uiso   1.00
C139   C     0.64013   0.32421   0.49765   0.00000  Uiso   1.00
C140   C     0.62005   0.26507   0.45548   0.00000  Uiso   1.00
C141   C     0.64898   0.22020   0.38841   0.00000  Uiso   1.00
C142   C     0.62349   0.16950   0.35884   0.00000  Uiso   1.00
C143   C     0.60032   0.07849   0.28785   0.00000  Uiso   1.00
C144   C     0.66906   0.29871   0.54697   0.00000  Uiso   1.00
C145   C     0.73918   0.28213   0.55684   0.00000  Uiso   1.00
C146   C     0.75494   0.25975   0.60429   0.00000  Uiso   1.00
C147   C     0.80783   0.22103   0.67538   0.00000  Uiso   1.00
C148   C     0.56503   0.40181   0.53623   0.00000  Uiso   1.00
C149   C     0.54770   0.47193   0.53708   0.00000  Uiso   1.00
C150   C     0.47589   0.53636   0.57550   0.00000  Uiso   1.00
C151   C     0.36727   0.65771   0.62991   0.00000  Uiso   1.00
C152   C     0.54343   0.31395   0.56439   0.00000  Uiso   1.00
C153   C     0.56752   0.25950   0.49173   0.00000  Uiso   1.00
C154   C     0.54198   0.20886   0.46226   0.00000  Uiso   1.00
C155   C     0.57087   0.16392   0.39515   0.00000  Uiso   1.00
C156   C     0.61653   0.29314   0.58323   0.00000  Uiso   1.00
C157   C     0.63219   0.27079   0.63068   0.00000  Uiso   1.00
C158   C     0.70232   0.25417   0.64061   0.00000  Uiso   1.00
C159   C     0.51251   0.39624   0.57248   0.00000  Uiso   1.00
C160   C     0.44071   0.46058   0.61092   0.00000  Uiso   1.00
C161   C     0.42327   0.53078   0.61182   0.00000  Uiso   1.00
H162   H     0.68103   0.32854   0.46943   0.00000  Uiso   1.00
H163   H     0.68963   0.22452   0.36037   0.00000  Uiso   1.00
H164   H     0.77982   0.28645   0.52878   0.00000  Uiso   1.00
H165   H     0.58836   0.47621   0.50902   0.00000  Uiso   1.00
H166   H     0.67602   0.10672   0.25546   0.00000  Uiso   1.00
H167   H     0.86617   0.23733   0.61056   0.00000  Uiso   1.00
H168   H     0.46246   0.63748   0.56890   0.00000  Uiso   1.00
H169   H     0.50253   0.30962   0.59262   0.00000  Uiso   1.00
H170   H     0.50133   0.20456   0.49032   0.00000  Uiso   1.00
H171   H     0.59152   0.26649   0.65873   0.00000  Uiso   1.00
H172   H     0.40007   0.45625   0.63897   0.00000  Uiso   1.00
H173   H     0.52320   0.09051   0.36093   0.00000  Uiso   1.00
H174   H     0.71335   0.22112   0.71604   0.00000  Uiso   1.00
H175   H     0.30964   0.62127   0.67437   0.00000  Uiso   1.00
O176   O     0.60206   0.02983   0.23868   0.00000  Uiso   1.00
O177   O     0.85153   0.20119   0.70457   0.00000  Uiso   1.00
O178   O     0.32187   0.72618   0.64990   0.00000  Uiso   1.00
N179   N     0.64021   0.11734   0.29432   0.00000  Uiso   1.00
N180   N     0.81799   0.23943   0.62631   0.00000  Uiso   1.00
N181   N     0.44056   0.61354   0.58737   0.00000  Uiso   1.00
N182   N     0.55797   0.10862   0.35107   0.00000  Uiso   1.00
N183   N     0.73576   0.23071   0.68307   0.00000  Uiso   1.00
N184   N     0.35833   0.60482   0.64413   0.00000  Uiso   1.00
C185   C     0.56607   0.81890   0.84052   0.00000  Uiso   1.00
C186   C     0.56356   0.85981   0.79997   0.00000  Uiso   1.00
C187   C     0.59724   0.90402   0.80419   0.00000  Uiso   1.00
C188   C     0.58843   0.93660   0.76286   0.00000  Uiso   1.00
C189   C     0.59080   0.00181   0.70656   0.00000  Uiso   1.00
C190   C     0.59940   0.73268   0.79221   0.00000  Uiso   1.00
C191   C     0.66320   0.67000   0.78992   0.00000  Uiso   1.00
C192   C     0.68455   0.59557   0.74206   0.00000  Uiso   1.00
C193   C     0.74252   0.46340   0.67375   0.00000  Uiso   1.00
C194   C     0.48349   0.85000   0.87393   0.00000  Uiso   1.00
C195   C     0.44985   0.88594   0.94035   0.00000  Uiso   1.00
C196   C     0.37362   0.91026   0.96129   0.00000  Uiso   1.00
C197   C     0.25164   0.96024   0.01986   0.00000  Uiso   1.00
C198   C     0.49052   0.79817   0.75962   0.00000  Uiso   1.00
C199   C     0.52252   0.84855   0.75603   0.00000  Uiso   1.00
C200   C     0.51365   0.88108   0.71469   0.00000  Uiso   1.00
C201   C     0.54731   0.92533   0.71884   0.00000  Uiso   1.00
C202   C     0.55836   0.72142   0.74827   0.00000  Uiso   1.00
C203   C     0.57961   0.64707   0.70042   0.00000  Uiso   1.00
C204   C     0.64343   0.58429   0.69804   0.00000  Uiso   1.00
C205   C     0.44245   0.83874   0.82999   0.00000  Uiso   1.00
C206   C     0.36626   0.86301   0.85084   0.00000  Uiso   1.00
C207   C     0.33250   0.89898   0.91728   0.00000  Uiso   1.00
H208   H     0.59803   0.82766   0.87472   0.00000  Uiso   1.00
H209   H     0.62901   0.91271   0.83819   0.00000  Uiso   1.00
H210   H     0.69495   0.67873   0.82393   0.00000  Uiso   1.00
H211   H     0.48163   0.89464   0.97433   0.00000  Uiso   1.00
H212   H     0.64528   0.00201   0.77830   0.00000  Uiso   1.00
H213   H     0.78430   0.50866   0.74823   0.00000  Uiso   1.00
H214   H     0.33448   0.96394   0.06539   0.00000  Uiso   1.00
H215   H     0.45856   0.78940   0.72541   0.00000  Uiso   1.00
H216   H     0.48189   0.87236   0.68069   0.00000  Uiso   1.00
H217   H     0.54783   0.63838   0.66642   0.00000  Uiso   1.00
H218   H     0.33451   0.85428   0.81683   0.00000  Uiso   1.00
H219   H     0.52587   0.96926   0.65046   0.00000  Uiso   1.00
H220   H     0.66490   0.47590   0.62040   0.00000  Uiso   1.00
H221   H     0.21508   0.93118   0.93755   0.00000  Uiso   1.00
O222   O     0.60346   0.04087   0.68763   0.00000  Uiso   1.00
O223   O     0.78585   0.39361   0.64820   0.00000  Uiso   1.00
O224   O     0.19569   0.99093   0.06431   0.00000  Uiso   1.00
N225   N     0.61396   0.98293   0.75436   0.00000  Uiso   1.00
N226   N     0.74395   0.52168   0.72624   0.00000  Uiso   1.00
N227   N     0.32341   0.94730   0.02276   0.00000  Uiso   1.00
N228   N     0.54971   0.96531   0.68557   0.00000  Uiso   1.00
N229   N     0.67970   0.50405   0.65746   0.00000  Uiso   1.00
N230   N     0.25916   0.92968   0.95397   0.00000  Uiso   1.00
C231   C     0.64562   0.65646   0.01243   0.00000  Uiso   1.00
C232   C     0.66434   0.61879   0.05634   0.00000  Uiso   1.00
C233   C     0.71491   0.54017   0.03601   0.00000  Uiso   1.00
C234   C     0.72415   0.51726   0.08371   0.00000  Uiso   1.00
C235   C     0.75932   0.45059   0.14191   0.00000  Uiso   1.00
C236   C     0.66248   0.72264   0.03778   0.00000  Uiso   1.00
C237   C     0.71148   0.73134   0.00183   0.00000  Uiso   1.00
C238   C     0.71914   0.79585   0.03390   0.00000  Uiso   1.00
C239   C     0.75138   0.89043   0.06327   0.00000  Uiso   1.00
C240   C     0.55966   0.69588   0.02601   0.00000  Uiso   1.00
C241   C     0.52220   0.68210   0.98017   0.00000  Uiso   1.00
C242   C     0.44330   0.72410   0.00233   0.00000  Uiso   1.00
C243   C     0.31589   0.77713   0.01343   0.00000  Uiso   1.00
C244   C     0.57209   0.75557   0.13331   0.00000  Uiso   1.00
C245   C     0.62440   0.67263   0.12200   0.00000  Uiso   1.00
C246   C     0.63356   0.64983   0.16975   0.00000  Uiso   1.00
C247   C     0.68414   0.57119   0.14948   0.00000  Uiso   1.00
C248   C     0.62254   0.77647   0.10343   0.00000  Uiso   1.00
C249   C     0.63013   0.84099   0.13557   0.00000  Uiso   1.00
C250   C     0.67913   0.84978   0.09968   0.00000  Uiso   1.00
C251   C     0.51971   0.74971   0.09167   0.00000  Uiso   1.00
C252   C     0.44085   0.79175   0.11391   0.00000  Uiso   1.00
C253   C     0.40328   0.77803   0.06811   0.00000  Uiso   1.00
H254   H     0.67671   0.61456   0.96131   0.00000  Uiso   1.00
H255   H     0.74582   0.49853   0.98519   0.00000  Uiso   1.00
H256   H     0.74237   0.68967   0.95102   0.00000  Uiso   1.00
H257   H     0.55313   0.64044   0.92936   0.00000  Uiso   1.00
H258   H     0.80484   0.39365   0.04062   0.00000  Uiso   1.00
H259   H     0.79756   0.79669   0.96856   0.00000  Uiso   1.00
H260   H     0.39850   0.69287   0.92289   0.00000  Uiso   1.00
H261   H     0.54099   0.79749   0.18443   0.00000  Uiso   1.00
H262   H     0.60265   0.69150   0.22055   0.00000  Uiso   1.00
H263   H     0.59921   0.88264   0.18638   0.00000  Uiso   1.00
H264   H     0.40996   0.83340   0.16472   0.00000  Uiso   1.00
H265   H     0.68864   0.55026   0.23165   0.00000  Uiso   1.00
H266   H     0.68136   0.95331   0.15958   0.00000  Uiso   1.00
H267   H     0.28230   0.84949   0.11392   0.00000  Uiso   1.00
O268   O     0.78977   0.39894   0.15587   0.00000  Uiso   1.00
O269   O     0.78020   0.92772   0.06132   0.00000  Uiso   1.00
O270   O     0.25665   0.79151   0.00141   0.00000  Uiso   1.00
N271   N     0.76902   0.44505   0.08062   0.00000  Uiso   1.00
N272   N     0.76222   0.82186   0.01325   0.00000  Uiso   1.00
N273   N     0.38913   0.72482   0.97055   0.00000  Uiso   1.00
N274   N     0.70649   0.52932   0.18341   0.00000  Uiso   1.00
N275   N     0.69970   0.90614   0.11604   0.00000  Uiso   1.00
N276   N     0.32661   0.80909   0.07334   0.00000  Uiso   1.00
C277   C     0.00887   0.07969   0.50035   0.00000  Uiso   1.00
C278   C     0.94559   0.07689   0.47179   0.00000  Uiso   1.00
C279   C     0.89834   0.05285   0.48883   0.00000  Uiso   1.00
C280   C     0.84394   0.05457   0.45709   0.00000  Uiso   1.00
C281   C     0.74670   0.04647   0.41992   0.00000  Uiso   1.00
C282   C     0.99121   0.16387   0.52691   0.00000  Uiso   1.00
C283   C     0.98232   0.21295   0.59029   0.00000  Uiso   1.00
C284   C     0.96633   0.28788   0.60494   0.00000  Uiso   1.00
C285   C     0.93996   0.41480   0.65333   0.00000  Uiso   1.00
C286   C     0.08119   0.02973   0.44298   0.00000  Uiso   1.00
C287   C     0.14797   0.96602   0.43580   0.00000  Uiso   1.00
C288   C     0.20775   0.92803   0.37981   0.00000  Uiso   1.00
C289   C     0.32110   0.84667   0.29789   0.00000  Uiso   1.00
C290   C     0.99631   0.12551   0.41368   0.00000  Uiso   1.00
C291   C     0.93877   0.10178   0.42471   0.00000  Uiso   1.00
C292   C     0.88443   0.10354   0.39294   0.00000  Uiso   1.00
C293   C     0.83710   0.07950   0.40993   0.00000  Uiso   1.00
C294   C     0.98438   0.18876   0.47983   0.00000  Uiso   1.00
C295   C     0.96841   0.26364   0.49440   0.00000  Uiso   1.00
C296   C     0.95949   0.31282   0.55778   0.00000  Uiso   1.00
C297   C     0.07437   0.05461   0.39590   0.00000  Uiso   1.00
C298   C     0.13406   0.01671   0.33991   0.00000  Uiso   1.00
C299   C     0.20091   0.95296   0.33265   0.00000  Uiso   1.00
H300   H     0.01419   0.06032   0.53701   0.00000  Uiso   1.00
H301   H     0.90363   0.03360   0.52527   0.00000  Uiso   1.00
H302   H     0.98761   0.19367   0.62671   0.00000  Uiso   1.00
H303   H     0.15323   0.94678   0.47224   0.00000  Uiso   1.00
H304   H     0.77804   0.01497   0.49150   0.00000  Uiso   1.00
H305   H     0.95513   0.35248   0.70539   0.00000  Uiso   1.00
H306   H     0.30438   0.83187   0.37968   0.00000  Uiso   1.00
H307   H     0.99099   0.14489   0.37703   0.00000  Uiso   1.00
H308   H     0.87916   0.12280   0.35651   0.00000  Uiso   1.00
H309   H     0.96314   0.28287   0.45795   0.00000  Uiso   1.00
H310   H     0.12876   0.03599   0.30349   0.00000  Uiso   1.00
H311   H     0.75817   0.08738   0.35454   0.00000  Uiso   1.00
H312   H     0.93527   0.42488   0.56843   0.00000  Uiso   1.00
H313   H     0.28452   0.90428   0.24271   0.00000  Uiso   1.00
O314   O     0.69495   0.03514   0.41242   0.00000  Uiso   1.00
O315   O     0.92730   0.47793   0.69303   0.00000  Uiso   1.00
O316   O     0.38550   0.79491   0.26570   0.00000  Uiso   1.00
N317   N     0.78872   0.03503   0.46208   0.00000  Uiso   1.00
N318   N     0.95428   0.35058   0.66205   0.00000  Uiso   1.00
N319   N     0.28080   0.86387   0.35755   0.00000  Uiso   1.00
N320   N     0.77803   0.07399   0.38838   0.00000  Uiso   1.00
N321   N     0.94359   0.38954   0.58835   0.00000  Uiso   1.00
N322   N     0.27012   0.90283   0.28385   0.00000  Uiso   1.00
C323   C     0.00845   0.24821   0.90875   0.00000  Uiso   1.00
C324   C     0.01509   0.21284   0.95428   0.00000  Uiso   1.00
C325   C     0.95594   0.23535   0.00478   0.00000  Uiso   1.00
C326   C     0.97367   0.19577   0.04082   0.00000  Uiso   1.00
C327   C     0.97268   0.14993   0.11363   0.00000  Uiso   1.00
C328   C     0.03876   0.18008   0.84022   0.00000  Uiso   1.00
C329   C     0.99952   0.17506   0.79481   0.00000  Uiso   1.00
C330   C     0.03718   0.10790   0.73482   0.00000  Uiso   1.00
C331   C     0.07298   0.01124   0.63053   0.00000  Uiso   1.00
C332   C     0.06514   0.27610   0.91406   0.00000  Uiso   1.00
C333   C     0.04808   0.35181   0.93072   0.00000  Uiso   1.00
C334   C     0.10795   0.36549   0.93289   0.00000  Uiso   1.00
C335   C     0.18469   0.41791   0.94326   0.00000  Uiso   1.00
C336   C     0.14511   0.13789   0.88296   0.00000  Uiso   1.00
C337   C     0.08932   0.15291   0.94027   0.00000  Uiso   1.00
C338   C     0.10714   0.11329   0.97625   0.00000  Uiso   1.00
C339   C     0.04803   0.13574   0.02679   0.00000  Uiso   1.00
C340   C     0.11299   0.12016   0.82621   0.00000  Uiso   1.00
C341   C     0.15073   0.05300   0.76627   0.00000  Uiso   1.00
C342   C     0.11155   0.04787   0.72079   0.00000  Uiso   1.00
C343   C     0.13937   0.21618   0.90005   0.00000  Uiso   1.00
C344   C     0.19928   0.22974   0.90219   0.00000  Uiso   1.00
C345   C     0.18231   0.30545   0.91886   0.00000  Uiso   1.00
H346   H     0.95066   0.29487   0.91965   0.00000  Uiso   1.00
H347   H     0.89850   0.28173   0.01560   0.00000  Uiso   1.00
H348   H     0.94208   0.22145   0.80566   0.00000  Uiso   1.00
H349   H     0.99063   0.39817   0.94156   0.00000  Uiso   1.00
H350   H     0.87341   0.24071   0.11579   0.00000  Uiso   1.00
H351   H     0.96531   0.11362   0.67311   0.00000  Uiso   1.00
H352   H     0.06768   0.48627   0.95968   0.00000  Uiso   1.00
H353   H     0.20291   0.09123   0.87205   0.00000  Uiso   1.00
H354   H     0.16459   0.06691   0.96539   0.00000  Uiso   1.00
H355   H     0.20817   0.00664   0.75545   0.00000  Uiso   1.00
H356   H     0.25672   0.18335   0.89135   0.00000  Uiso   1.00
H357   H     0.08938   0.06636   0.07504   0.00000  Uiso   1.00
H358   H     0.18128   0.93927   0.63235   0.00000  Uiso   1.00
H359   H     0.28365   0.31192   0.91893   0.00000  Uiso   1.00
O360   O     0.95163   0.14120   0.15766   0.00000  Uiso   1.00
O361   O     0.07220   0.97447   0.57688   0.00000  Uiso   1.00
O362   O     0.20651   0.46338   0.95286   0.00000  Uiso   1.00
N363   N     0.92950   0.20303   0.09339   0.00000  Uiso   1.00
N364   N     0.01541   0.08420   0.67952   0.00000  Uiso   1.00
N365   N     0.11112   0.43259   0.94742   0.00000  Uiso   1.00
N366   N     0.04571   0.10921   0.07147   0.00000  Uiso   1.00
N367   N     0.13162   0.99038   0.65759   0.00000  Uiso   1.00
N368   N     0.22734   0.33877   0.92549   0.00000  Uiso   1.00
C369   C     0.94604   0.58703   0.83724   0.00000  Uiso   1.00
C370   C     0.90887   0.66858   0.84285   0.00000  Uiso   1.00
C371   C     0.85183   0.69824   0.81671   0.00000  Uiso   1.00
C372   C     0.82535   0.77420   0.82724   0.00000  Uiso   1.00
C373   C     0.76311   0.89406   0.83061   0.00000  Uiso   1.00
C374   C     0.93542   0.59963   0.90659   0.00000  Uiso   1.00
C375   C     0.90072   0.57131   0.93403   0.00000  Uiso   1.00
C376   C     0.89661   0.58921   0.99820   0.00000  Uiso   1.00
C377   C     0.87563   0.60197   0.10050   0.00000  Uiso   1.00
C378   C     0.03112   0.54917   0.80694   0.00000  Uiso   1.00
C379   C     0.07690   0.47841   0.75060   0.00000  Uiso   1.00
C380   C     0.15337   0.45382   0.73089   0.00000  Uiso   1.00
C381   C     0.28099   0.38824   0.67847   0.00000  Uiso   1.00
C382   C     0.00045   0.66918   0.90242   0.00000  Uiso   1.00
C383   C     0.93842   0.71320   0.87826   0.00000  Uiso   1.00
C384   C     0.91203   0.78914   0.88883   0.00000  Uiso   1.00
C385   C     0.85496   0.81890   0.86271   0.00000  Uiso   1.00
C386   C     0.96497   0.64425   0.94200   0.00000  Uiso   1.00
C387   C     0.96092   0.66220   0.00615   0.00000  Uiso   1.00
C388   C     0.92621   0.63391   0.03367   0.00000  Uiso   1.00
C389   C     0.06068   0.59379   0.84235   0.00000  Uiso   1.00
C390   C     0.13709   0.56931   0.82272   0.00000  Uiso   1.00
C391   C     0.18297   0.49852   0.76636   0.00000  Uiso   1.00
H392   H     0.92303   0.55229   0.80967   0.00000  Uiso   1.00
H393   H     0.82897   0.66370   0.78932   0.00000  Uiso   1.00
H394   H     0.87786   0.53677   0.90661   0.00000  Uiso   1.00
H395   H     0.05401   0.44390   0.72322   0.00000  Uiso   1.00
H396   H     0.73769   0.80690   0.78238   0.00000  Uiso   1.00
H397   H     0.84080   0.53925   0.02970   0.00000  Uiso   1.00
H398   H     0.21225   0.34340   0.64297   0.00000  Uiso   1.00
H399   H     0.02346   0.70392   0.92999   0.00000  Uiso   1.00
H400   H     0.93491   0.82365   0.91623   0.00000  Uiso   1.00
H401   H     0.98380   0.69673   0.03353   0.00000  Uiso   1.00
H402   H     0.15995   0.60385   0.85013   0.00000  Uiso   1.00
H403   H     0.82368   0.93673   0.88540   0.00000  Uiso   1.00
H404   H     0.92679   0.66907   0.13271   0.00000  Uiso   1.00
H405   H     0.29823   0.47323   0.74598   0.00000  Uiso   1.00
O406   O     0.72060   0.94785   0.82269   0.00000  Uiso   1.00
O407   O     0.85589   0.59669   0.14715   0.00000  Uiso   1.00
O408   O     0.34322   0.33974   0.63978   0.00000  Uiso   1.00
N409   N     0.77009   0.82102   0.80850   0.00000  Uiso   1.00
N410   N     0.86648   0.57079   0.03973   0.00000  Uiso   1.00
N411   N     0.21376   0.38768   0.67819   0.00000  Uiso   1.00
N412   N     0.81636   0.89088   0.86393   0.00000  Uiso   1.00
N413   N     0.91275   0.64065   0.09516   0.00000  Uiso   1.00
N414   N     0.26003   0.45754   0.73361   0.00000  Uiso   1.00
C415   C     0.40346   0.54215   0.28654   0.00000  Uiso   1.00
C416   C     0.39921   0.60980   0.34492   0.00000  Uiso   1.00
C417   C     0.34106   0.65903   0.40340   0.00000  Uiso   1.00
C418   C     0.34770   0.71743   0.45079   0.00000  Uiso   1.00
C419   C     0.33156   0.82117   0.54308   0.00000  Uiso   1.00
C420   C     0.41141   0.55829   0.22960   0.00000  Uiso   1.00
C421   C     0.36353   0.56420   0.19111   0.00000  Uiso   1.00
C422   C     0.38046   0.57922   0.14142   0.00000  Uiso   1.00
C423   C     0.38330   0.60293   0.05463   0.00000  Uiso   1.00
C424   C     0.47871   0.46944   0.27149   0.00000  Uiso   1.00
C425   C     0.48741   0.40063   0.26821   0.00000  Uiso   1.00
C426   C     0.56100   0.34085   0.25377   0.00000  Uiso   1.00
C427   C     0.66832   0.22660   0.23203   0.00000  Uiso   1.00
C428   C     0.51867   0.55832   0.26670   0.00000  Uiso   1.00
C429   C     0.46179   0.61858   0.33414   0.00000  Uiso   1.00
C430   C     0.46853   0.67692   0.38146   0.00000  Uiso   1.00
C431   C     0.41040   0.72623   0.44000   0.00000  Uiso   1.00
C432   C     0.47399   0.56707   0.21882   0.00000  Uiso   1.00
C433   C     0.49100   0.58209   0.16917   0.00000  Uiso   1.00
C434   C     0.44315   0.58802   0.13062   0.00000  Uiso   1.00
C435   C     0.54129   0.47822   0.26072   0.00000  Uiso   1.00
C436   C     0.61488   0.41852   0.24627   0.00000  Uiso   1.00
C437   C     0.62369   0.34964   0.24298   0.00000  Uiso   1.00
H438   H     0.35474   0.53531   0.29492   0.00000  Uiso   1.00
H439   H     0.29263   0.65222   0.41172   0.00000  Uiso   1.00
H440   H     0.31511   0.55739   0.19946   0.00000  Uiso   1.00
H441   H     0.43897   0.39386   0.27656   0.00000  Uiso   1.00
H442   H     0.25136   0.78573   0.53645   0.00000  Uiso   1.00
H443   H     0.29877   0.58575   0.08888   0.00000  Uiso   1.00
H444   H     0.55995   0.24090   0.25144   0.00000  Uiso   1.00
H445   H     0.56740   0.56515   0.25831   0.00000  Uiso   1.00
H446   H     0.51696   0.68370   0.37310   0.00000  Uiso   1.00
H447   H     0.53943   0.58887   0.16084   0.00000  Uiso   1.00
H448   H     0.66329   0.42534   0.23794   0.00000  Uiso   1.00
H449   H     0.43343   0.81128   0.50511   0.00000  Uiso   1.00
H450   H     0.48084   0.61130   0.05753   0.00000  Uiso   1.00
H451   H     0.74202   0.26646   0.22010   0.00000  Uiso   1.00
O452   O     0.30537   0.87597   0.59695   0.00000  Uiso   1.00
O453   O     0.36757   0.61359   0.00974   0.00000  Uiso   1.00
O454   O     0.71023   0.16116   0.22303   0.00000  Uiso   1.00
N455   N     0.30114   0.77546   0.51333   0.00000  Uiso   1.00
N456   N     0.34545   0.58851   0.09488   0.00000  Uiso   1.00
N457   N     0.58964   0.26610   0.24685   0.00000  Uiso   1.00
N458   N     0.39911   0.78921   0.49646   0.00000  Uiso   1.00
N459   N     0.44343   0.60226   0.07801   0.00000  Uiso   1.00
N460   N     0.68761   0.27985   0.22998   0.00000  Uiso   1.00
C461   C     0.37093   0.21321   0.16049   0.00000  Uiso   1.00
C462   C     0.36033   0.15587   0.17662   0.00000  Uiso   1.00
C463   C     0.31417   0.12608   0.15557   0.00000  Uiso   1.00
C464   C     0.31221   0.07436   0.17565   0.00000  Uiso   1.00
C465   C     0.28922   0.98857   0.19468   0.00000  Uiso   1.00
C466   C     0.35021   0.28335   0.22546   0.00000  Uiso   1.00
C467   C     0.29554   0.36073   0.24547   0.00000  Uiso   1.00
C468   C     0.28507   0.41632   0.30666   0.00000  Uiso   1.00
C469   C     0.24640   0.52844   0.40150   0.00000  Uiso   1.00
C470   C     0.45613   0.17379   0.12948   0.00000  Uiso   1.00
C471   C     0.49053   0.15909   0.06879   0.00000  Uiso   1.00
C472   C     0.56924   0.12246   0.04917   0.00000  Uiso   1.00
C473   C     0.69503   0.06448   0.99499   0.00000  Uiso   1.00
C474   C     0.44954   0.17435   0.23356   0.00000  Uiso   1.00
C475   C     0.40302   0.13476   0.21631   0.00000  Uiso   1.00
C476   C     0.40114   0.08308   0.23642   0.00000  Uiso   1.00
C477   C     0.35499   0.05321   0.21541   0.00000  Uiso   1.00
C478   C     0.39290   0.26224   0.26515   0.00000  Uiso   1.00
C479   C     0.38251   0.31773   0.32632   0.00000  Uiso   1.00
C480   C     0.32784   0.39518   0.34643   0.00000  Uiso   1.00
C481   C     0.49883   0.15268   0.16917   0.00000  Uiso   1.00
C482   C     0.57750   0.11608   0.14964   0.00000  Uiso   1.00
C483   C     0.61201   0.10131   0.08894   0.00000  Uiso   1.00
H484   H     0.33769   0.22965   0.12959   0.00000  Uiso   1.00
H485   H     0.28113   0.14243   0.12486   0.00000  Uiso   1.00
H486   H     0.26252   0.37705   0.21475   0.00000  Uiso   1.00
H487   H     0.45747   0.17543   0.03809   0.00000  Uiso   1.00
H488   H     0.23723   0.03645   0.13714   0.00000  Uiso   1.00
H489   H     0.19800   0.53115   0.32666   0.00000  Uiso   1.00
H490   H     0.60910   0.10600   0.95415   0.00000  Uiso   1.00
H491   H     0.48278   0.15791   0.26447   0.00000  Uiso   1.00
H492   H     0.43418   0.06675   0.26714   0.00000  Uiso   1.00
H493   H     0.41556   0.30137   0.35702   0.00000  Uiso   1.00
H494   H     0.61052   0.09975   0.18037   0.00000  Uiso   1.00
H495   H     0.36145   0.97503   0.25262   0.00000  Uiso   1.00
H496   H     0.32221   0.46973   0.44213   0.00000  Uiso   1.00
H497   H     0.73332   0.04458   0.06963   0.00000  Uiso   1.00
O498   O     0.26474   0.94708   0.19422   0.00000  Uiso   1.00
O499   O     0.21327   0.59612   0.44285   0.00000  Uiso   1.00
O500   O     0.75262   0.03833   0.95413   0.00000  Uiso   1.00
N501   N     0.27315   0.03449   0.16394   0.00000  Uiso   1.00
N502   N     0.23646   0.49701   0.34113   0.00000  Uiso   1.00
N503   N     0.62080   0.09955   0.99287   0.00000  Uiso   1.00
N504   N     0.33999   0.00144   0.22608   0.00000  Uiso   1.00
N505   N     0.30330   0.46396   0.40327   0.00000  Uiso   1.00
N506   N     0.68764   0.06649   0.05501   0.00000  Uiso   1.00
C507   C     0.42484   0.34634   0.99821   0.00000  Uiso   1.00
C508   C     0.42753   0.35753   0.93815   0.00000  Uiso   1.00
C509   C     0.38445   0.42744   0.93701   0.00000  Uiso   1.00
C510   C     0.39521   0.42551   0.87719   0.00000  Uiso   1.00
C511   C     0.39146   0.45343   0.79254   0.00000  Uiso   1.00
C512   C     0.40654   0.28162   0.98331   0.00000  Uiso   1.00
C513   C     0.34581   0.28770   0.02016   0.00000  Uiso   1.00
C514   C     0.33891   0.22186   0.99836   0.00000  Uiso   1.00
C515   C     0.30259   0.13191   0.98385   0.00000  Uiso   1.00
C516   C     0.50603   0.31235   0.00174   0.00000  Uiso   1.00
C517   C     0.52896   0.34424   0.05409   0.00000  Uiso   1.00
C518   C     0.60582   0.30427   0.04782   0.00000  Uiso   1.00
C519   C     0.72399   0.26202   0.06192   0.00000  Uiso   1.00
C520   C     0.52056   0.21862   0.89398   0.00000  Uiso   1.00
C521   C     0.47953   0.28815   0.88154   0.00000  Uiso   1.00
C522   C     0.49036   0.28612   0.82170   0.00000  Uiso   1.00
C523   C     0.44730   0.35601   0.82048   0.00000  Uiso   1.00
C524   C     0.45853   0.21224   0.92670   0.00000  Uiso   1.00
C525   C     0.45172   0.14638   0.90485   0.00000  Uiso   1.00
C526   C     0.39099   0.15236   0.94165   0.00000  Uiso   1.00
C527   C     0.55803   0.24297   0.94513   0.00000  Uiso   1.00
C528   C     0.63487   0.20293   0.93877   0.00000  Uiso   1.00
C529   C     0.65791   0.23477   0.99110   0.00000  Uiso   1.00
H530   H     0.38436   0.40035   0.04228   0.00000  Uiso   1.00
H531   H     0.34421   0.48111   0.98084   0.00000  Uiso   1.00
H532   H     0.30559   0.34139   0.06397   0.00000  Uiso   1.00
H533   H     0.48871   0.39793   0.09789   0.00000  Uiso   1.00
H534   H     0.32261   0.54005   0.88774   0.00000  Uiso   1.00
H535   H     0.24119   0.24543   0.06305   0.00000  Uiso   1.00
H536   H     0.62733   0.36466   0.13458   0.00000  Uiso   1.00
H537   H     0.56104   0.16460   0.84991   0.00000  Uiso   1.00
H538   H     0.53060   0.23243   0.77790   0.00000  Uiso   1.00
H539   H     0.49197   0.09271   0.86104   0.00000  Uiso   1.00
H540   H     0.67509   0.14925   0.89496   0.00000  Uiso   1.00
H541   H     0.47389   0.33821   0.72303   0.00000  Uiso   1.00
H542   H     0.39246   0.04359   0.89834   0.00000  Uiso   1.00
H543   H     0.77861   0.16281   0.96987   0.00000  Uiso   1.00
O544   O     0.37501   0.48799   0.76148   0.00000  Uiso   1.00
O545   O     0.26819   0.10146   0.99149   0.00000  Uiso   1.00
O546   O     0.77481   0.25789   0.08534   0.00000  Uiso   1.00
N547   N     0.36241   0.48324   0.85886   0.00000  Uiso   1.00
N548   N     0.28627   0.20779   0.02276   0.00000  Uiso   1.00
N549   N     0.64728   0.31925   0.08964   0.00000  Uiso   1.00
N550   N     0.44381   0.37463   0.77023   0.00000  Uiso   1.00
N551   N     0.36767   0.09918   0.93413   0.00000  Uiso   1.00
N552   N     0.72868   0.21064   0.00101   0.00000  Uiso   1.00
