data_job_01935
_audit_creation_date              2018-12-19
_audit_creation_method            'Materials Studio'
_symmetry_space_group_name_H-M    'P1'
_symmetry_Int_Tables_number       1
_symmetry_cell_setting            triclinic
loop_
_symmetry_equiv_pos_as_xyz
  x,y,z
_cell_length_a                    19.6389
_cell_length_b                    19.6389
_cell_length_c                    13.8158
_cell_angle_alpha                 90.0000
_cell_angle_beta                  90.0000
_cell_angle_gamma                 90.0000
loop_
_atom_site_label
_atom_site_type_symbol
_atom_site_fract_x
_atom_site_fract_y
_atom_site_fract_z
_atom_site_U_iso_or_equiv
_atom_site_adp_type
_atom_site_occupancy
C1     C     0.76934   0.67794   0.47410   0.00000  Uiso   1.00
C2     C     0.76834   0.75069   0.51270   0.00000  Uiso   1.00
C3     C     0.80706   0.80445   0.47776   0.00000  Uiso   1.00
C4     C     0.79881   0.86707   0.52289   0.00000  Uiso   1.00
C5     C     0.80418   0.97872   0.57109   0.00000  Uiso   1.00
C6     C     0.78647   0.63264   0.56037   0.00000  Uiso   1.00
C7     C     0.84042   0.58714   0.56551   0.00000  Uiso   1.00
C8     C     0.84742   0.55038   0.65078   0.00000  Uiso   1.00
C9     C     0.88090   0.47872   0.77297   0.00000  Uiso   1.00
C10    C     0.69600   0.66121   0.44676   0.00000  Uiso   1.00
C11    C     0.67389   0.63972   0.35637   0.00000  Uiso   1.00
C12    C     0.60473   0.62700   0.34599   0.00000  Uiso   1.00
C13    C     0.49775   0.59971   0.29178   0.00000  Uiso   1.00
C14    C     0.68584   0.69356   0.61639   0.00000  Uiso   1.00
C15    C     0.72299   0.75916   0.58998   0.00000  Uiso   1.00
C16    C     0.71467   0.82172   0.63518   0.00000  Uiso   1.00
C17    C     0.75337   0.87557   0.60031   0.00000  Uiso   1.00
C18    C     0.74111   0.64112   0.63766   0.00000  Uiso   1.00
C19    C     0.74803   0.60441   0.72293   0.00000  Uiso   1.00
C20    C     0.80198   0.55887   0.72820   0.00000  Uiso   1.00
C21    C     0.65065   0.66969   0.52404   0.00000  Uiso   1.00
C22    C     0.58150   0.65700   0.51380   0.00000  Uiso   1.00
C23    C     0.55929   0.63550   0.42341   0.00000  Uiso   1.00
H24    H     0.80465   0.67134   0.41394   0.00000  Uiso   1.00
H25    H     0.84216   0.79786   0.41795   0.00000  Uiso   1.00
H26    H     0.87550   0.58058   0.50569   0.00000  Uiso   1.00
H27    H     0.70900   0.63316   0.29659   0.00000  Uiso   1.00
H28    H     0.86375   0.94187   0.45650   0.00000  Uiso   1.00
H29    H     0.93405   0.48370   0.64149   0.00000  Uiso   1.00
H30    H     0.58295   0.59458   0.20055   0.00000  Uiso   1.00
H31    H     0.65053   0.70016   0.67656   0.00000  Uiso   1.00
H32    H     0.67957   0.82827   0.69498   0.00000  Uiso   1.00
H33    H     0.71292   0.61099   0.78272   0.00000  Uiso   1.00
H34    H     0.54642   0.66357   0.57362   0.00000  Uiso   1.00
H35    H     0.73179   0.96655   0.68136   0.00000  Uiso   1.00
H36    H     0.80209   0.50838   0.86634   0.00000  Uiso   1.00
H37    H     0.45100   0.61926   0.42541   0.00000  Uiso   1.00
O38    O     0.81968   0.03796   0.57633   0.00000  Uiso   1.00
O39    O     0.91190   0.43685   0.81902   0.00000  Uiso   1.00
O40    O     0.45127   0.58232   0.24052   0.00000  Uiso   1.00
N41    N     0.82870   0.93010   0.50688   0.00000  Uiso   1.00
N42    N     0.89443   0.50175   0.67984   0.00000  Uiso   1.00
N43    N     0.56619   0.60539   0.26761   0.00000  Uiso   1.00
N44    N     0.75769   0.94338   0.62787   0.00000  Uiso   1.00
N45    N     0.82343   0.51503   0.80083   0.00000  Uiso   1.00
N46    N     0.49518   0.61867   0.38860   0.00000  Uiso   1.00
C47    C     0.82775   0.71024   0.99918   0.00000  Uiso   1.00
C48    C     0.75318   0.70728   0.96866   0.00000  Uiso   1.00
C49    C     0.70742   0.65611   0.99247   0.00000  Uiso   1.00
C50    C     0.64147   0.66274   0.95749   0.00000  Uiso   1.00
C51    C     0.52865   0.64963   0.91871   0.00000  Uiso   1.00
C52    C     0.86877   0.71585   0.90580   0.00000  Uiso   1.00
C53    C     0.92019   0.67188   0.87676   0.00000  Uiso   1.00
C54    C     0.95155   0.68573   0.78887   0.00000  Uiso   1.00
C55    C     0.01822   0.68596   0.65252   0.00000  Uiso   1.00
C56    C     0.83681   0.77801   0.05148   0.00000  Uiso   1.00
C57    C     0.86138   0.78632   0.14492   0.00000  Uiso   1.00
C58    C     0.86585   0.85250   0.17968   0.00000  Uiso   1.00
C59    C     0.88289   0.94925   0.26952   0.00000  Uiso   1.00
C60    C     0.79202   0.81300   0.89473   0.00000  Uiso   1.00
C61    C     0.73378   0.76310   0.91193   0.00000  Uiso   1.00
C62    C     0.66789   0.76981   0.87691   0.00000  Uiso   1.00
C63    C     0.62203   0.71865   0.90067   0.00000  Uiso   1.00
C64    C     0.84937   0.77166   0.84907   0.00000  Uiso   1.00
C65    C     0.88066   0.78558   0.76121   0.00000  Uiso   1.00
C66    C     0.93211   0.74165   0.73204   0.00000  Uiso   1.00
C67    C     0.81740   0.83383   0.99475   0.00000  Uiso   1.00
C68    C     0.82184   0.90001   0.02936   0.00000  Uiso   1.00
C69    C     0.84641   0.90842   0.12284   0.00000  Uiso   1.00
H70    H     0.84286   0.66678   0.04334   0.00000  Uiso   1.00
H71    H     0.72246   0.61292   0.03637   0.00000  Uiso   1.00
H72    H     0.93520   0.62870   0.92068   0.00000  Uiso   1.00
H73    H     0.87639   0.74311   0.18880   0.00000  Uiso   1.00
H74    H     0.58041   0.57780   0.00359   0.00000  Uiso   1.00
H75    H     0.02902   0.61109   0.75968   0.00000  Uiso   1.00
H76    H     0.90500   0.85235   0.32506   0.00000  Uiso   1.00
H77    H     0.77691   0.85646   0.85056   0.00000  Uiso   1.00
H78    H     0.65289   0.81301   0.83301   0.00000  Uiso   1.00
H79    H     0.86563   0.82878   0.71733   0.00000  Uiso   1.00
H80    H     0.80682   0.94320   0.98544   0.00000  Uiso   1.00
H81    H     0.52395   0.74020   0.83854   0.00000  Uiso   1.00
H82    H     0.97256   0.77349   0.59463   0.00000  Uiso   1.00
H83    H     0.84854   0.01475   0.16000   0.00000  Uiso   1.00
O84    O     0.47179   0.62698   0.91297   0.00000  Uiso   1.00
O85    O     0.06035   0.67066   0.59298   0.00000  Uiso   1.00
O86    O     0.89764   0.98719   0.33474   0.00000  Uiso   1.00
N87    N     0.58414   0.62199   0.96717   0.00000  Uiso   1.00
N88    N     0.00355   0.65311   0.73912   0.00000  Uiso   1.00
N89    N     0.88763   0.87867   0.26769   0.00000  Uiso   1.00
N90    N     0.55376   0.70938   0.87836   0.00000  Uiso   1.00
N91    N     0.97317   0.74049   0.65031   0.00000  Uiso   1.00
N92    N     0.85724   0.96605   0.17888   0.00000  Uiso   1.00
C93    C     0.23066   0.32206   0.47410   0.00000  Uiso   1.00
C94    C     0.23166   0.24931   0.51270   0.00000  Uiso   1.00
C95    C     0.19294   0.19555   0.47776   0.00000  Uiso   1.00
C96    C     0.20119   0.13293   0.52289   0.00000  Uiso   1.00
C97    C     0.19582   0.02128   0.57109   0.00000  Uiso   1.00
C98    C     0.21353   0.36736   0.56037   0.00000  Uiso   1.00
C99    C     0.15958   0.41286   0.56551   0.00000  Uiso   1.00
C100   C     0.15258   0.44962   0.65078   0.00000  Uiso   1.00
C101   C     0.11910   0.52128   0.77297   0.00000  Uiso   1.00
C102   C     0.30400   0.33879   0.44676   0.00000  Uiso   1.00
C103   C     0.32611   0.36028   0.35637   0.00000  Uiso   1.00
C104   C     0.39527   0.37300   0.34599   0.00000  Uiso   1.00
C105   C     0.50225   0.40029   0.29178   0.00000  Uiso   1.00
C106   C     0.31416   0.30644   0.61639   0.00000  Uiso   1.00
C107   C     0.27701   0.24084   0.58998   0.00000  Uiso   1.00
C108   C     0.28533   0.17828   0.63518   0.00000  Uiso   1.00
C109   C     0.24663   0.12443   0.60031   0.00000  Uiso   1.00
C110   C     0.25889   0.35888   0.63766   0.00000  Uiso   1.00
C111   C     0.25197   0.39559   0.72293   0.00000  Uiso   1.00
C112   C     0.19802   0.44113   0.72820   0.00000  Uiso   1.00
C113   C     0.34935   0.33031   0.52404   0.00000  Uiso   1.00
C114   C     0.41850   0.34300   0.51380   0.00000  Uiso   1.00
C115   C     0.44071   0.36450   0.42341   0.00000  Uiso   1.00
H116   H     0.19535   0.32866   0.41394   0.00000  Uiso   1.00
H117   H     0.15784   0.20214   0.41795   0.00000  Uiso   1.00
H118   H     0.12450   0.41942   0.50569   0.00000  Uiso   1.00
H119   H     0.29100   0.36684   0.29659   0.00000  Uiso   1.00
H120   H     0.13625   0.05813   0.45650   0.00000  Uiso   1.00
H121   H     0.06595   0.51630   0.64149   0.00000  Uiso   1.00
H122   H     0.41705   0.40542   0.20055   0.00000  Uiso   1.00
H123   H     0.34947   0.29984   0.67656   0.00000  Uiso   1.00
H124   H     0.32043   0.17173   0.69498   0.00000  Uiso   1.00
H125   H     0.28708   0.38901   0.78272   0.00000  Uiso   1.00
H126   H     0.45358   0.33643   0.57362   0.00000  Uiso   1.00
H127   H     0.26821   0.03345   0.68136   0.00000  Uiso   1.00
H128   H     0.19791   0.49162   0.86634   0.00000  Uiso   1.00
H129   H     0.54900   0.38074   0.42541   0.00000  Uiso   1.00
O130   O     0.18032   0.96204   0.57633   0.00000  Uiso   1.00
O131   O     0.08810   0.56315   0.81902   0.00000  Uiso   1.00
O132   O     0.54873   0.41768   0.24052   0.00000  Uiso   1.00
N133   N     0.17130   0.06990   0.50688   0.00000  Uiso   1.00
N134   N     0.10557   0.49825   0.67984   0.00000  Uiso   1.00
N135   N     0.43381   0.39461   0.26761   0.00000  Uiso   1.00
N136   N     0.24231   0.05662   0.62787   0.00000  Uiso   1.00
N137   N     0.17657   0.48497   0.80083   0.00000  Uiso   1.00
N138   N     0.50482   0.38133   0.38860   0.00000  Uiso   1.00
C139   C     0.17225   0.28976   0.99918   0.00000  Uiso   1.00
C140   C     0.24682   0.29272   0.96866   0.00000  Uiso   1.00
C141   C     0.29258   0.34389   0.99247   0.00000  Uiso   1.00
C142   C     0.35853   0.33726   0.95749   0.00000  Uiso   1.00
C143   C     0.47135   0.35037   0.91871   0.00000  Uiso   1.00
C144   C     0.13123   0.28415   0.90580   0.00000  Uiso   1.00
C145   C     0.07981   0.32812   0.87676   0.00000  Uiso   1.00
C146   C     0.04845   0.31427   0.78887   0.00000  Uiso   1.00
C147   C     0.98178   0.31404   0.65252   0.00000  Uiso   1.00
C148   C     0.16319   0.22199   0.05148   0.00000  Uiso   1.00
C149   C     0.13862   0.21368   0.14492   0.00000  Uiso   1.00
C150   C     0.13415   0.14750   0.17968   0.00000  Uiso   1.00
C151   C     0.11711   0.05075   0.26952   0.00000  Uiso   1.00
C152   C     0.20798   0.18700   0.89473   0.00000  Uiso   1.00
C153   C     0.26622   0.23690   0.91193   0.00000  Uiso   1.00
C154   C     0.33211   0.23019   0.87691   0.00000  Uiso   1.00
C155   C     0.37797   0.28135   0.90067   0.00000  Uiso   1.00
C156   C     0.15063   0.22834   0.84907   0.00000  Uiso   1.00
C157   C     0.11934   0.21442   0.76121   0.00000  Uiso   1.00
C158   C     0.06789   0.25835   0.73204   0.00000  Uiso   1.00
C159   C     0.18260   0.16617   0.99475   0.00000  Uiso   1.00
C160   C     0.17816   0.09999   0.02936   0.00000  Uiso   1.00
C161   C     0.15359   0.09158   0.12284   0.00000  Uiso   1.00
H162   H     0.15714   0.33322   0.04334   0.00000  Uiso   1.00
H163   H     0.27754   0.38708   0.03637   0.00000  Uiso   1.00
H164   H     0.06480   0.37130   0.92068   0.00000  Uiso   1.00
H165   H     0.12361   0.25689   0.18880   0.00000  Uiso   1.00
H166   H     0.41959   0.42220   0.00359   0.00000  Uiso   1.00
H167   H     0.97098   0.38891   0.75968   0.00000  Uiso   1.00
H168   H     0.09500   0.14765   0.32506   0.00000  Uiso   1.00
H169   H     0.22309   0.14354   0.85056   0.00000  Uiso   1.00
H170   H     0.34711   0.18699   0.83301   0.00000  Uiso   1.00
H171   H     0.13437   0.17122   0.71733   0.00000  Uiso   1.00
H172   H     0.19318   0.05680   0.98544   0.00000  Uiso   1.00
H173   H     0.47605   0.25980   0.83854   0.00000  Uiso   1.00
H174   H     0.02744   0.22651   0.59463   0.00000  Uiso   1.00
H175   H     0.15146   0.98525   0.16000   0.00000  Uiso   1.00
O176   O     0.52821   0.37302   0.91297   0.00000  Uiso   1.00
O177   O     0.93965   0.32934   0.59298   0.00000  Uiso   1.00
O178   O     0.10236   0.01281   0.33474   0.00000  Uiso   1.00
N179   N     0.41586   0.37801   0.96717   0.00000  Uiso   1.00
N180   N     0.99645   0.34689   0.73912   0.00000  Uiso   1.00
N181   N     0.11237   0.12133   0.26769   0.00000  Uiso   1.00
N182   N     0.44624   0.29062   0.87836   0.00000  Uiso   1.00
N183   N     0.02683   0.25951   0.65031   0.00000  Uiso   1.00
N184   N     0.14276   0.03395   0.17888   0.00000  Uiso   1.00
C185   C     0.67794   0.23066   0.52590   0.00000  Uiso   1.00
C186   C     0.75069   0.23166   0.48730   0.00000  Uiso   1.00
C187   C     0.80445   0.19294   0.52224   0.00000  Uiso   1.00
C188   C     0.86707   0.20119   0.47711   0.00000  Uiso   1.00
C189   C     0.97872   0.19582   0.42891   0.00000  Uiso   1.00
C190   C     0.63264   0.21353   0.43963   0.00000  Uiso   1.00
C191   C     0.58714   0.15958   0.43449   0.00000  Uiso   1.00
C192   C     0.55038   0.15258   0.34922   0.00000  Uiso   1.00
C193   C     0.47872   0.11910   0.22703   0.00000  Uiso   1.00
C194   C     0.66121   0.30400   0.55324   0.00000  Uiso   1.00
C195   C     0.63972   0.32611   0.64363   0.00000  Uiso   1.00
C196   C     0.62700   0.39527   0.65401   0.00000  Uiso   1.00
C197   C     0.59971   0.50225   0.70822   0.00000  Uiso   1.00
C198   C     0.69356   0.31416   0.38361   0.00000  Uiso   1.00
C199   C     0.75916   0.27701   0.41002   0.00000  Uiso   1.00
C200   C     0.82172   0.28533   0.36482   0.00000  Uiso   1.00
C201   C     0.87557   0.24663   0.39969   0.00000  Uiso   1.00
C202   C     0.64112   0.25889   0.36234   0.00000  Uiso   1.00
C203   C     0.60441   0.25197   0.27707   0.00000  Uiso   1.00
C204   C     0.55887   0.19802   0.27180   0.00000  Uiso   1.00
C205   C     0.66969   0.34935   0.47596   0.00000  Uiso   1.00
C206   C     0.65700   0.41850   0.48620   0.00000  Uiso   1.00
C207   C     0.63550   0.44071   0.57659   0.00000  Uiso   1.00
H208   H     0.67134   0.19535   0.58606   0.00000  Uiso   1.00
H209   H     0.79786   0.15784   0.58205   0.00000  Uiso   1.00
H210   H     0.58058   0.12450   0.49431   0.00000  Uiso   1.00
H211   H     0.63316   0.29100   0.70341   0.00000  Uiso   1.00
H212   H     0.94187   0.13625   0.54350   0.00000  Uiso   1.00
H213   H     0.48370   0.06595   0.35851   0.00000  Uiso   1.00
H214   H     0.59458   0.41705   0.79945   0.00000  Uiso   1.00
H215   H     0.70016   0.34947   0.32344   0.00000  Uiso   1.00
H216   H     0.82827   0.32043   0.30502   0.00000  Uiso   1.00
H217   H     0.61099   0.28708   0.21728   0.00000  Uiso   1.00
H218   H     0.66357   0.45358   0.42638   0.00000  Uiso   1.00
H219   H     0.96655   0.26821   0.31864   0.00000  Uiso   1.00
H220   H     0.50838   0.19791   0.13366   0.00000  Uiso   1.00
H221   H     0.61926   0.54900   0.57459   0.00000  Uiso   1.00
O222   O     0.03796   0.18032   0.42367   0.00000  Uiso   1.00
O223   O     0.43685   0.08810   0.18098   0.00000  Uiso   1.00
O224   O     0.58232   0.54873   0.75948   0.00000  Uiso   1.00
N225   N     0.93010   0.17130   0.49312   0.00000  Uiso   1.00
N226   N     0.50175   0.10557   0.32016   0.00000  Uiso   1.00
N227   N     0.60539   0.43381   0.73239   0.00000  Uiso   1.00
N228   N     0.94338   0.24231   0.37213   0.00000  Uiso   1.00
N229   N     0.51503   0.17657   0.19917   0.00000  Uiso   1.00
N230   N     0.61867   0.50482   0.61140   0.00000  Uiso   1.00
C231   C     0.71024   0.17225   0.00082   0.00000  Uiso   1.00
C232   C     0.70728   0.24682   0.03134   0.00000  Uiso   1.00
C233   C     0.65611   0.29258   0.00753   0.00000  Uiso   1.00
C234   C     0.66274   0.35853   0.04251   0.00000  Uiso   1.00
C235   C     0.64963   0.47135   0.08129   0.00000  Uiso   1.00
C236   C     0.71585   0.13123   0.09420   0.00000  Uiso   1.00
C237   C     0.67188   0.07981   0.12324   0.00000  Uiso   1.00
C238   C     0.68573   0.04845   0.21113   0.00000  Uiso   1.00
C239   C     0.68596   0.98178   0.34748   0.00000  Uiso   1.00
C240   C     0.77801   0.16319   0.94852   0.00000  Uiso   1.00
C241   C     0.78632   0.13862   0.85508   0.00000  Uiso   1.00
C242   C     0.85250   0.13415   0.82032   0.00000  Uiso   1.00
C243   C     0.94925   0.11711   0.73048   0.00000  Uiso   1.00
C244   C     0.81300   0.20798   0.10527   0.00000  Uiso   1.00
C245   C     0.76310   0.26622   0.08807   0.00000  Uiso   1.00
C246   C     0.76981   0.33211   0.12309   0.00000  Uiso   1.00
C247   C     0.71865   0.37797   0.09933   0.00000  Uiso   1.00
C248   C     0.77166   0.15063   0.15093   0.00000  Uiso   1.00
C249   C     0.78558   0.11934   0.23879   0.00000  Uiso   1.00
C250   C     0.74165   0.06789   0.26796   0.00000  Uiso   1.00
C251   C     0.83383   0.18260   0.00525   0.00000  Uiso   1.00
C252   C     0.90001   0.17816   0.97064   0.00000  Uiso   1.00
C253   C     0.90842   0.15359   0.87716   0.00000  Uiso   1.00
H254   H     0.66678   0.15714   0.95666   0.00000  Uiso   1.00
H255   H     0.61292   0.27754   0.96363   0.00000  Uiso   1.00
H256   H     0.62870   0.06480   0.07932   0.00000  Uiso   1.00
H257   H     0.74311   0.12361   0.81120   0.00000  Uiso   1.00
H258   H     0.57780   0.41959   0.99641   0.00000  Uiso   1.00
H259   H     0.61109   0.97098   0.24032   0.00000  Uiso   1.00
H260   H     0.85235   0.09500   0.67494   0.00000  Uiso   1.00
H261   H     0.85646   0.22309   0.14944   0.00000  Uiso   1.00
H262   H     0.81301   0.34711   0.16699   0.00000  Uiso   1.00
H263   H     0.82878   0.13437   0.28267   0.00000  Uiso   1.00
H264   H     0.94320   0.19318   0.01456   0.00000  Uiso   1.00
H265   H     0.74020   0.47605   0.16146   0.00000  Uiso   1.00
H266   H     0.77349   0.02744   0.40537   0.00000  Uiso   1.00
H267   H     0.01475   0.15146   0.84000   0.00000  Uiso   1.00
O268   O     0.62698   0.52821   0.08703   0.00000  Uiso   1.00
O269   O     0.67066   0.93965   0.40702   0.00000  Uiso   1.00
O270   O     0.98719   0.10236   0.66526   0.00000  Uiso   1.00
N271   N     0.62199   0.41586   0.03283   0.00000  Uiso   1.00
N272   N     0.65311   0.99645   0.26088   0.00000  Uiso   1.00
N273   N     0.87867   0.11237   0.73231   0.00000  Uiso   1.00
N274   N     0.70938   0.44624   0.12164   0.00000  Uiso   1.00
N275   N     0.74049   0.02683   0.34969   0.00000  Uiso   1.00
N276   N     0.96605   0.14276   0.82112   0.00000  Uiso   1.00
C277   C     0.32206   0.76934   0.52590   0.00000  Uiso   1.00
C278   C     0.24931   0.76834   0.48730   0.00000  Uiso   1.00
C279   C     0.19555   0.80706   0.52224   0.00000  Uiso   1.00
C280   C     0.13293   0.79881   0.47711   0.00000  Uiso   1.00
C281   C     0.02128   0.80418   0.42891   0.00000  Uiso   1.00
C282   C     0.36736   0.78647   0.43963   0.00000  Uiso   1.00
C283   C     0.41286   0.84042   0.43449   0.00000  Uiso   1.00
C284   C     0.44962   0.84742   0.34922   0.00000  Uiso   1.00
C285   C     0.52128   0.88090   0.22703   0.00000  Uiso   1.00
C286   C     0.33879   0.69600   0.55324   0.00000  Uiso   1.00
C287   C     0.36028   0.67389   0.64363   0.00000  Uiso   1.00
C288   C     0.37300   0.60473   0.65401   0.00000  Uiso   1.00
C289   C     0.40029   0.49775   0.70822   0.00000  Uiso   1.00
C290   C     0.30644   0.68584   0.38361   0.00000  Uiso   1.00
C291   C     0.24084   0.72299   0.41002   0.00000  Uiso   1.00
C292   C     0.17828   0.71467   0.36482   0.00000  Uiso   1.00
C293   C     0.12443   0.75337   0.39969   0.00000  Uiso   1.00
C294   C     0.35888   0.74111   0.36234   0.00000  Uiso   1.00
C295   C     0.39559   0.74803   0.27707   0.00000  Uiso   1.00
C296   C     0.44113   0.80198   0.27180   0.00000  Uiso   1.00
C297   C     0.33031   0.65065   0.47596   0.00000  Uiso   1.00
C298   C     0.34300   0.58150   0.48620   0.00000  Uiso   1.00
C299   C     0.36450   0.55929   0.57659   0.00000  Uiso   1.00
H300   H     0.32866   0.80465   0.58606   0.00000  Uiso   1.00
H301   H     0.20214   0.84216   0.58205   0.00000  Uiso   1.00
H302   H     0.41942   0.87550   0.49431   0.00000  Uiso   1.00
H303   H     0.36684   0.70900   0.70341   0.00000  Uiso   1.00
H304   H     0.05813   0.86375   0.54350   0.00000  Uiso   1.00
H305   H     0.51630   0.93405   0.35851   0.00000  Uiso   1.00
H306   H     0.40542   0.58295   0.79945   0.00000  Uiso   1.00
H307   H     0.29984   0.65053   0.32344   0.00000  Uiso   1.00
H308   H     0.17173   0.67957   0.30502   0.00000  Uiso   1.00
H309   H     0.38901   0.71292   0.21728   0.00000  Uiso   1.00
H310   H     0.33643   0.54642   0.42638   0.00000  Uiso   1.00
H311   H     0.03345   0.73179   0.31864   0.00000  Uiso   1.00
H312   H     0.49162   0.80209   0.13366   0.00000  Uiso   1.00
H313   H     0.38074   0.45100   0.57459   0.00000  Uiso   1.00
O314   O     0.96204   0.81968   0.42367   0.00000  Uiso   1.00
O315   O     0.56315   0.91190   0.18098   0.00000  Uiso   1.00
O316   O     0.41768   0.45127   0.75948   0.00000  Uiso   1.00
N317   N     0.06990   0.82870   0.49312   0.00000  Uiso   1.00
N318   N     0.49825   0.89443   0.32016   0.00000  Uiso   1.00
N319   N     0.39461   0.56619   0.73239   0.00000  Uiso   1.00
N320   N     0.05662   0.75769   0.37213   0.00000  Uiso   1.00
N321   N     0.48497   0.82343   0.19917   0.00000  Uiso   1.00
N322   N     0.38133   0.49518   0.61140   0.00000  Uiso   1.00
C323   C     0.28976   0.82775   0.00082   0.00000  Uiso   1.00
C324   C     0.29272   0.75318   0.03134   0.00000  Uiso   1.00
C325   C     0.34389   0.70742   0.00753   0.00000  Uiso   1.00
C326   C     0.33726   0.64147   0.04251   0.00000  Uiso   1.00
C327   C     0.35037   0.52865   0.08129   0.00000  Uiso   1.00
C328   C     0.28415   0.86877   0.09420   0.00000  Uiso   1.00
C329   C     0.32812   0.92019   0.12324   0.00000  Uiso   1.00
C330   C     0.31427   0.95155   0.21113   0.00000  Uiso   1.00
C331   C     0.31404   0.01822   0.34748   0.00000  Uiso   1.00
C332   C     0.22199   0.83681   0.94852   0.00000  Uiso   1.00
C333   C     0.21368   0.86138   0.85508   0.00000  Uiso   1.00
C334   C     0.14750   0.86585   0.82032   0.00000  Uiso   1.00
C335   C     0.05075   0.88289   0.73048   0.00000  Uiso   1.00
C336   C     0.18700   0.79202   0.10527   0.00000  Uiso   1.00
C337   C     0.23690   0.73378   0.08807   0.00000  Uiso   1.00
C338   C     0.23019   0.66789   0.12309   0.00000  Uiso   1.00
C339   C     0.28135   0.62203   0.09933   0.00000  Uiso   1.00
C340   C     0.22834   0.84937   0.15093   0.00000  Uiso   1.00
C341   C     0.21442   0.88066   0.23879   0.00000  Uiso   1.00
C342   C     0.25835   0.93211   0.26796   0.00000  Uiso   1.00
C343   C     0.16617   0.81740   0.00525   0.00000  Uiso   1.00
C344   C     0.09999   0.82184   0.97064   0.00000  Uiso   1.00
C345   C     0.09158   0.84641   0.87716   0.00000  Uiso   1.00
H346   H     0.33322   0.84286   0.95666   0.00000  Uiso   1.00
H347   H     0.38708   0.72246   0.96363   0.00000  Uiso   1.00
H348   H     0.37130   0.93520   0.07932   0.00000  Uiso   1.00
H349   H     0.25689   0.87639   0.81120   0.00000  Uiso   1.00
H350   H     0.42220   0.58041   0.99641   0.00000  Uiso   1.00
H351   H     0.38891   0.02902   0.24032   0.00000  Uiso   1.00
H352   H     0.14765   0.90500   0.67494   0.00000  Uiso   1.00
H353   H     0.14354   0.77691   0.14944   0.00000  Uiso   1.00
H354   H     0.18699   0.65289   0.16699   0.00000  Uiso   1.00
H355   H     0.17122   0.86563   0.28267   0.00000  Uiso   1.00
H356   H     0.05680   0.80682   0.01456   0.00000  Uiso   1.00
H357   H     0.25980   0.52395   0.16146   0.00000  Uiso   1.00
H358   H     0.22651   0.97256   0.40537   0.00000  Uiso   1.00
H359   H     0.98525   0.84854   0.84000   0.00000  Uiso   1.00
O360   O     0.37302   0.47179   0.08703   0.00000  Uiso   1.00
O361   O     0.32934   0.06035   0.40702   0.00000  Uiso   1.00
O362   O     0.01281   0.89764   0.66526   0.00000  Uiso   1.00
N363   N     0.37801   0.58414   0.03283   0.00000  Uiso   1.00
N364   N     0.34689   0.00355   0.26088   0.00000  Uiso   1.00
N365   N     0.12133   0.88763   0.73231   0.00000  Uiso   1.00
N366   N     0.29062   0.55376   0.12164   0.00000  Uiso   1.00
N367   N     0.25951   0.97317   0.34969   0.00000  Uiso   1.00
N368   N     0.03395   0.85724   0.82112   0.00000  Uiso   1.00
