data_job_03432
_audit_creation_date              2018-12-19
_audit_creation_method            'Materials Studio'
_symmetry_space_group_name_H-M    'P1'
_symmetry_Int_Tables_number       1
_symmetry_cell_setting            triclinic
loop_
_symmetry_equiv_pos_as_xyz
  x,y,z
_cell_length_a                    21.2155
_cell_length_b                    21.2155
_cell_length_c                    12.4763
_cell_angle_alpha                 90.0000
_cell_angle_beta                  90.0000
_cell_angle_gamma                 90.0000
loop_
_atom_site_label
_atom_site_type_symbol
_atom_site_fract_x
_atom_site_fract_y
_atom_site_fract_z
_atom_site_U_iso_or_equiv
_atom_site_adp_type
_atom_site_occupancy
C1     C     0.90572   0.48362   0.32024   0.00000  Uiso   1.00
C2     C     0.90029   0.45306   0.20999   0.00000  Uiso   1.00
C3     C     0.95033   0.43647   0.14414   0.00000  Uiso   1.00
C4     C     0.93552   0.40904   0.04629   0.00000  Uiso   1.00
C5     C     0.93661   0.36321   0.87977   0.00000  Uiso   1.00
C6     C     0.86733   0.54430   0.31450   0.00000  Uiso   1.00
C7     C     0.88966   0.60440   0.33654   0.00000  Uiso   1.00
C8     C     0.84710   0.65378   0.32668   0.00000  Uiso   1.00
C9     C     0.79701   0.74958   0.32249   0.00000  Uiso   1.00
C10    C     0.87054   0.44037   0.39737   0.00000  Uiso   1.00
C11    C     0.89556   0.41310   0.48910   0.00000  Uiso   1.00
C12    C     0.85570   0.37499   0.54901   0.00000  Uiso   1.00
C13    C     0.81059   0.30942   0.67348   0.00000  Uiso   1.00
C14    C     0.79044   0.46444   0.26356   0.00000  Uiso   1.00
C15    C     0.83767   0.44264   0.17921   0.00000  Uiso   1.00
C16    C     0.82278   0.41524   0.08143   0.00000  Uiso   1.00
C17    C     0.87279   0.39860   0.01545   0.00000  Uiso   1.00
C18    C     0.80472   0.53388   0.28372   0.00000  Uiso   1.00
C19    C     0.76211   0.58318   0.27383   0.00000  Uiso   1.00
C20    C     0.78437   0.64334   0.29583   0.00000  Uiso   1.00
C21    C     0.80792   0.42994   0.36658   0.00000  Uiso   1.00
C22    C     0.76801   0.39187   0.42638   0.00000  Uiso   1.00
C23    C     0.79297   0.36455   0.51817   0.00000  Uiso   1.00
H24    H     0.95447   0.49174   0.34421   0.00000  Uiso   1.00
H25    H     0.99878   0.44454   0.16799   0.00000  Uiso   1.00
H26    H     0.93812   0.61245   0.36037   0.00000  Uiso   1.00
H27    H     0.94402   0.42118   0.51289   0.00000  Uiso   1.00
H28    H     0.02029   0.38764   0.95904   0.00000  Uiso   1.00
H29    H     0.89237   0.74169   0.36471   0.00000  Uiso   1.00
H30    H     0.90482   0.33835   0.68634   0.00000  Uiso   1.00
H31    H     0.74169   0.45632   0.23959   0.00000  Uiso   1.00
H32    H     0.77432   0.40718   0.05763   0.00000  Uiso   1.00
H33    H     0.71366   0.57509   0.25001   0.00000  Uiso   1.00
H34    H     0.71956   0.38382   0.40253   0.00000  Uiso   1.00
H35    H     0.83811   0.35732   0.86946   0.00000  Uiso   1.00
H36    H     0.71020   0.71137   0.27513   0.00000  Uiso   1.00
H37    H     0.72264   0.30802   0.59676   0.00000  Uiso   1.00
O38    O     0.95450   0.34081   0.79642   0.00000  Uiso   1.00
O39    O     0.78669   0.80530   0.32867   0.00000  Uiso   1.00
O40    O     0.80301   0.27613   0.75063   0.00000  Uiso   1.00
N41    N     0.97293   0.38724   0.96293   0.00000  Uiso   1.00
N42    N     0.85335   0.71825   0.34220   0.00000  Uiso   1.00
N43    N     0.86498   0.34118   0.64291   0.00000  Uiso   1.00
N44    N     0.87490   0.37092   0.91473   0.00000  Uiso   1.00
N45    N     0.75532   0.70193   0.29399   0.00000  Uiso   1.00
N46    N     0.76695   0.32486   0.59471   0.00000  Uiso   1.00
C47    C     0.40572   0.98362   0.82024   0.00000  Uiso   1.00
C48    C     0.40029   0.95306   0.70999   0.00000  Uiso   1.00
C49    C     0.45033   0.93647   0.64414   0.00000  Uiso   1.00
C50    C     0.43552   0.90904   0.54629   0.00000  Uiso   1.00
C51    C     0.43661   0.86321   0.37977   0.00000  Uiso   1.00
C52    C     0.36733   0.04430   0.81450   0.00000  Uiso   1.00
C53    C     0.38966   0.10440   0.83654   0.00000  Uiso   1.00
C54    C     0.34710   0.15378   0.82668   0.00000  Uiso   1.00
C55    C     0.29701   0.24958   0.82249   0.00000  Uiso   1.00
C56    C     0.37054   0.94037   0.89737   0.00000  Uiso   1.00
C57    C     0.39556   0.91310   0.98910   0.00000  Uiso   1.00
C58    C     0.35570   0.87499   0.04901   0.00000  Uiso   1.00
C59    C     0.31059   0.80942   0.17348   0.00000  Uiso   1.00
C60    C     0.29044   0.96444   0.76356   0.00000  Uiso   1.00
C61    C     0.33767   0.94264   0.67921   0.00000  Uiso   1.00
C62    C     0.32278   0.91524   0.58143   0.00000  Uiso   1.00
C63    C     0.37279   0.89860   0.51545   0.00000  Uiso   1.00
C64    C     0.30472   0.03388   0.78372   0.00000  Uiso   1.00
C65    C     0.26211   0.08318   0.77383   0.00000  Uiso   1.00
C66    C     0.28437   0.14334   0.79583   0.00000  Uiso   1.00
C67    C     0.30792   0.92994   0.86658   0.00000  Uiso   1.00
C68    C     0.26801   0.89187   0.92638   0.00000  Uiso   1.00
C69    C     0.29297   0.86455   0.01817   0.00000  Uiso   1.00
H70    H     0.45447   0.99174   0.84421   0.00000  Uiso   1.00
H71    H     0.49878   0.94454   0.66799   0.00000  Uiso   1.00
H72    H     0.43812   0.11245   0.86037   0.00000  Uiso   1.00
H73    H     0.44402   0.92118   0.01289   0.00000  Uiso   1.00
H74    H     0.52029   0.88764   0.45904   0.00000  Uiso   1.00
H75    H     0.39237   0.24169   0.86471   0.00000  Uiso   1.00
H76    H     0.40482   0.83835   0.18634   0.00000  Uiso   1.00
H77    H     0.24169   0.95632   0.73959   0.00000  Uiso   1.00
H78    H     0.27432   0.90718   0.55763   0.00000  Uiso   1.00
H79    H     0.21366   0.07509   0.75001   0.00000  Uiso   1.00
H80    H     0.21956   0.88382   0.90253   0.00000  Uiso   1.00
H81    H     0.33811   0.85732   0.36946   0.00000  Uiso   1.00
H82    H     0.21020   0.21137   0.77513   0.00000  Uiso   1.00
H83    H     0.22264   0.80802   0.09676   0.00000  Uiso   1.00
O84    O     0.45450   0.84081   0.29642   0.00000  Uiso   1.00
O85    O     0.28669   0.30530   0.82867   0.00000  Uiso   1.00
O86    O     0.30301   0.77613   0.25063   0.00000  Uiso   1.00
N87    N     0.47293   0.88724   0.46293   0.00000  Uiso   1.00
N88    N     0.35335   0.21825   0.84220   0.00000  Uiso   1.00
N89    N     0.36498   0.84118   0.14291   0.00000  Uiso   1.00
N90    N     0.37490   0.87092   0.41473   0.00000  Uiso   1.00
N91    N     0.25532   0.20193   0.79399   0.00000  Uiso   1.00
N92    N     0.26695   0.82486   0.09471   0.00000  Uiso   1.00
C93    C     0.59428   0.01638   0.82024   0.00000  Uiso   1.00
C94    C     0.59971   0.04694   0.70999   0.00000  Uiso   1.00
C95    C     0.54967   0.06353   0.64414   0.00000  Uiso   1.00
C96    C     0.56448   0.09096   0.54629   0.00000  Uiso   1.00
C97    C     0.56339   0.13679   0.37977   0.00000  Uiso   1.00
C98    C     0.63267   0.95570   0.81450   0.00000  Uiso   1.00
C99    C     0.61034   0.89560   0.83654   0.00000  Uiso   1.00
C100   C     0.65290   0.84622   0.82668   0.00000  Uiso   1.00
C101   C     0.70299   0.75042   0.82249   0.00000  Uiso   1.00
C102   C     0.62946   0.05963   0.89737   0.00000  Uiso   1.00
C103   C     0.60444   0.08690   0.98910   0.00000  Uiso   1.00
C104   C     0.64430   0.12501   0.04901   0.00000  Uiso   1.00
C105   C     0.68941   0.19058   0.17348   0.00000  Uiso   1.00
C106   C     0.70956   0.03556   0.76356   0.00000  Uiso   1.00
C107   C     0.66233   0.05736   0.67921   0.00000  Uiso   1.00
C108   C     0.67722   0.08476   0.58143   0.00000  Uiso   1.00
C109   C     0.62721   0.10140   0.51545   0.00000  Uiso   1.00
C110   C     0.69528   0.96612   0.78372   0.00000  Uiso   1.00
C111   C     0.73789   0.91682   0.77383   0.00000  Uiso   1.00
C112   C     0.71563   0.85666   0.79583   0.00000  Uiso   1.00
C113   C     0.69208   0.07006   0.86658   0.00000  Uiso   1.00
C114   C     0.73199   0.10813   0.92638   0.00000  Uiso   1.00
C115   C     0.70703   0.13545   0.01817   0.00000  Uiso   1.00
H116   H     0.54553   0.00826   0.84421   0.00000  Uiso   1.00
H117   H     0.50122   0.05546   0.66799   0.00000  Uiso   1.00
H118   H     0.56188   0.88755   0.86037   0.00000  Uiso   1.00
H119   H     0.55598   0.07882   0.01289   0.00000  Uiso   1.00
H120   H     0.47971   0.11236   0.45904   0.00000  Uiso   1.00
H121   H     0.60763   0.75831   0.86471   0.00000  Uiso   1.00
H122   H     0.59518   0.16165   0.18634   0.00000  Uiso   1.00
H123   H     0.75831   0.04368   0.73959   0.00000  Uiso   1.00
H124   H     0.72568   0.09282   0.55763   0.00000  Uiso   1.00
H125   H     0.78634   0.92491   0.75001   0.00000  Uiso   1.00
H126   H     0.78044   0.11618   0.90253   0.00000  Uiso   1.00
H127   H     0.66189   0.14268   0.36946   0.00000  Uiso   1.00
H128   H     0.78980   0.78863   0.77513   0.00000  Uiso   1.00
H129   H     0.77736   0.19198   0.09676   0.00000  Uiso   1.00
O130   O     0.54550   0.15919   0.29642   0.00000  Uiso   1.00
O131   O     0.71331   0.69470   0.82867   0.00000  Uiso   1.00
O132   O     0.69699   0.22387   0.25063   0.00000  Uiso   1.00
N133   N     0.52707   0.11276   0.46293   0.00000  Uiso   1.00
N134   N     0.64665   0.78175   0.84220   0.00000  Uiso   1.00
N135   N     0.63502   0.15882   0.14291   0.00000  Uiso   1.00
N136   N     0.62510   0.12908   0.41473   0.00000  Uiso   1.00
N137   N     0.74468   0.79807   0.79399   0.00000  Uiso   1.00
N138   N     0.73305   0.17514   0.09471   0.00000  Uiso   1.00
C139   C     0.09428   0.51638   0.32024   0.00000  Uiso   1.00
C140   C     0.09971   0.54694   0.20999   0.00000  Uiso   1.00
C141   C     0.04967   0.56353   0.14414   0.00000  Uiso   1.00
C142   C     0.06448   0.59096   0.04629   0.00000  Uiso   1.00
C143   C     0.06339   0.63679   0.87977   0.00000  Uiso   1.00
C144   C     0.13267   0.45570   0.31450   0.00000  Uiso   1.00
C145   C     0.11034   0.39560   0.33654   0.00000  Uiso   1.00
C146   C     0.15290   0.34622   0.32668   0.00000  Uiso   1.00
C147   C     0.20299   0.25042   0.32249   0.00000  Uiso   1.00
C148   C     0.12946   0.55963   0.39737   0.00000  Uiso   1.00
C149   C     0.10444   0.58690   0.48910   0.00000  Uiso   1.00
C150   C     0.14430   0.62501   0.54901   0.00000  Uiso   1.00
C151   C     0.18941   0.69058   0.67348   0.00000  Uiso   1.00
C152   C     0.20956   0.53556   0.26356   0.00000  Uiso   1.00
C153   C     0.16233   0.55736   0.17921   0.00000  Uiso   1.00
C154   C     0.17722   0.58476   0.08143   0.00000  Uiso   1.00
C155   C     0.12721   0.60140   0.01545   0.00000  Uiso   1.00
C156   C     0.19528   0.46612   0.28372   0.00000  Uiso   1.00
C157   C     0.23789   0.41682   0.27383   0.00000  Uiso   1.00
C158   C     0.21563   0.35666   0.29583   0.00000  Uiso   1.00
C159   C     0.19208   0.57006   0.36658   0.00000  Uiso   1.00
C160   C     0.23199   0.60813   0.42638   0.00000  Uiso   1.00
C161   C     0.20703   0.63545   0.51817   0.00000  Uiso   1.00
H162   H     0.04553   0.50826   0.34421   0.00000  Uiso   1.00
H163   H     0.00122   0.55546   0.16799   0.00000  Uiso   1.00
H164   H     0.06188   0.38755   0.36037   0.00000  Uiso   1.00
H165   H     0.05598   0.57882   0.51289   0.00000  Uiso   1.00
H166   H     0.97971   0.61236   0.95904   0.00000  Uiso   1.00
H167   H     0.10763   0.25831   0.36471   0.00000  Uiso   1.00
H168   H     0.09518   0.66165   0.68634   0.00000  Uiso   1.00
H169   H     0.25831   0.54368   0.23959   0.00000  Uiso   1.00
H170   H     0.22568   0.59282   0.05763   0.00000  Uiso   1.00
H171   H     0.28634   0.42491   0.25001   0.00000  Uiso   1.00
H172   H     0.28044   0.61618   0.40253   0.00000  Uiso   1.00
H173   H     0.16189   0.64268   0.86946   0.00000  Uiso   1.00
H174   H     0.28980   0.28863   0.27513   0.00000  Uiso   1.00
H175   H     0.27736   0.69198   0.59676   0.00000  Uiso   1.00
O176   O     0.04550   0.65919   0.79642   0.00000  Uiso   1.00
O177   O     0.21331   0.19470   0.32867   0.00000  Uiso   1.00
O178   O     0.19699   0.72387   0.75063   0.00000  Uiso   1.00
N179   N     0.02707   0.61276   0.96293   0.00000  Uiso   1.00
N180   N     0.14665   0.28175   0.34220   0.00000  Uiso   1.00
N181   N     0.13502   0.65882   0.64291   0.00000  Uiso   1.00
N182   N     0.12510   0.62908   0.91473   0.00000  Uiso   1.00
N183   N     0.24468   0.29807   0.29399   0.00000  Uiso   1.00
N184   N     0.23305   0.67514   0.59471   0.00000  Uiso   1.00
C185   C     0.51638   0.40572   0.57024   0.00000  Uiso   1.00
C186   C     0.54694   0.40029   0.45999   0.00000  Uiso   1.00
C187   C     0.56353   0.45033   0.39414   0.00000  Uiso   1.00
C188   C     0.59096   0.43552   0.29629   0.00000  Uiso   1.00
C189   C     0.63679   0.43661   0.12977   0.00000  Uiso   1.00
C190   C     0.45570   0.36733   0.56450   0.00000  Uiso   1.00
C191   C     0.39560   0.38966   0.58654   0.00000  Uiso   1.00
C192   C     0.34622   0.34710   0.57668   0.00000  Uiso   1.00
C193   C     0.25042   0.29701   0.57249   0.00000  Uiso   1.00
C194   C     0.55963   0.37054   0.64737   0.00000  Uiso   1.00
C195   C     0.58690   0.39556   0.73910   0.00000  Uiso   1.00
C196   C     0.62501   0.35570   0.79901   0.00000  Uiso   1.00
C197   C     0.69058   0.31059   0.92348   0.00000  Uiso   1.00
C198   C     0.53556   0.29044   0.51356   0.00000  Uiso   1.00
C199   C     0.55736   0.33767   0.42921   0.00000  Uiso   1.00
C200   C     0.58476   0.32278   0.33143   0.00000  Uiso   1.00
C201   C     0.60140   0.37279   0.26545   0.00000  Uiso   1.00
C202   C     0.46612   0.30472   0.53372   0.00000  Uiso   1.00
C203   C     0.41682   0.26211   0.52383   0.00000  Uiso   1.00
C204   C     0.35666   0.28437   0.54583   0.00000  Uiso   1.00
C205   C     0.57006   0.30792   0.61658   0.00000  Uiso   1.00
C206   C     0.60813   0.26801   0.67638   0.00000  Uiso   1.00
C207   C     0.63545   0.29297   0.76817   0.00000  Uiso   1.00
H208   H     0.50826   0.45447   0.59421   0.00000  Uiso   1.00
H209   H     0.55546   0.49878   0.41799   0.00000  Uiso   1.00
H210   H     0.38755   0.43812   0.61037   0.00000  Uiso   1.00
H211   H     0.57882   0.44402   0.76289   0.00000  Uiso   1.00
H212   H     0.61236   0.52029   0.20904   0.00000  Uiso   1.00
H213   H     0.25831   0.39237   0.61471   0.00000  Uiso   1.00
H214   H     0.66165   0.40482   0.93634   0.00000  Uiso   1.00
H215   H     0.54368   0.24169   0.48959   0.00000  Uiso   1.00
H216   H     0.59282   0.27432   0.30763   0.00000  Uiso   1.00
H217   H     0.42491   0.21366   0.50001   0.00000  Uiso   1.00
H218   H     0.61618   0.21956   0.65253   0.00000  Uiso   1.00
H219   H     0.64268   0.33811   0.11946   0.00000  Uiso   1.00
H220   H     0.28863   0.21020   0.52513   0.00000  Uiso   1.00
H221   H     0.69198   0.22264   0.84676   0.00000  Uiso   1.00
O222   O     0.65919   0.45450   0.04642   0.00000  Uiso   1.00
O223   O     0.19470   0.28669   0.57867   0.00000  Uiso   1.00
O224   O     0.72387   0.30301   0.00063   0.00000  Uiso   1.00
N225   N     0.61276   0.47293   0.21293   0.00000  Uiso   1.00
N226   N     0.28175   0.35335   0.59220   0.00000  Uiso   1.00
N227   N     0.65882   0.36498   0.89291   0.00000  Uiso   1.00
N228   N     0.62908   0.37490   0.16473   0.00000  Uiso   1.00
N229   N     0.29807   0.25532   0.54399   0.00000  Uiso   1.00
N230   N     0.67514   0.26695   0.84471   0.00000  Uiso   1.00
C231   C     0.01638   0.90572   0.07024   0.00000  Uiso   1.00
C232   C     0.04694   0.90029   0.95999   0.00000  Uiso   1.00
C233   C     0.06353   0.95033   0.89414   0.00000  Uiso   1.00
C234   C     0.09096   0.93552   0.79629   0.00000  Uiso   1.00
C235   C     0.13679   0.93661   0.62977   0.00000  Uiso   1.00
C236   C     0.95570   0.86733   0.06450   0.00000  Uiso   1.00
C237   C     0.89560   0.88966   0.08654   0.00000  Uiso   1.00
C238   C     0.84622   0.84710   0.07668   0.00000  Uiso   1.00
C239   C     0.75042   0.79701   0.07249   0.00000  Uiso   1.00
C240   C     0.05963   0.87054   0.14737   0.00000  Uiso   1.00
C241   C     0.08690   0.89556   0.23910   0.00000  Uiso   1.00
C242   C     0.12501   0.85570   0.29901   0.00000  Uiso   1.00
C243   C     0.19058   0.81059   0.42348   0.00000  Uiso   1.00
C244   C     0.03556   0.79044   0.01356   0.00000  Uiso   1.00
C245   C     0.05736   0.83767   0.92921   0.00000  Uiso   1.00
C246   C     0.08476   0.82278   0.83143   0.00000  Uiso   1.00
C247   C     0.10140   0.87279   0.76545   0.00000  Uiso   1.00
C248   C     0.96612   0.80472   0.03372   0.00000  Uiso   1.00
C249   C     0.91682   0.76211   0.02383   0.00000  Uiso   1.00
C250   C     0.85666   0.78437   0.04583   0.00000  Uiso   1.00
C251   C     0.07006   0.80792   0.11658   0.00000  Uiso   1.00
C252   C     0.10813   0.76801   0.17638   0.00000  Uiso   1.00
C253   C     0.13545   0.79297   0.26817   0.00000  Uiso   1.00
H254   H     0.00826   0.95447   0.09421   0.00000  Uiso   1.00
H255   H     0.05546   0.99878   0.91799   0.00000  Uiso   1.00
H256   H     0.88755   0.93812   0.11037   0.00000  Uiso   1.00
H257   H     0.07882   0.94402   0.26289   0.00000  Uiso   1.00
H258   H     0.11236   0.02029   0.70904   0.00000  Uiso   1.00
H259   H     0.75831   0.89237   0.11471   0.00000  Uiso   1.00
H260   H     0.16165   0.90482   0.43634   0.00000  Uiso   1.00
H261   H     0.04368   0.74169   0.98959   0.00000  Uiso   1.00
H262   H     0.09282   0.77432   0.80763   0.00000  Uiso   1.00
H263   H     0.92491   0.71366   0.00001   0.00000  Uiso   1.00
H264   H     0.11618   0.71956   0.15253   0.00000  Uiso   1.00
H265   H     0.14268   0.83811   0.61946   0.00000  Uiso   1.00
H266   H     0.78863   0.71020   0.02513   0.00000  Uiso   1.00
H267   H     0.19198   0.72264   0.34676   0.00000  Uiso   1.00
O268   O     0.15919   0.95450   0.54642   0.00000  Uiso   1.00
O269   O     0.69470   0.78669   0.07867   0.00000  Uiso   1.00
O270   O     0.22387   0.80301   0.50063   0.00000  Uiso   1.00
N271   N     0.11276   0.97293   0.71293   0.00000  Uiso   1.00
N272   N     0.78175   0.85335   0.09220   0.00000  Uiso   1.00
N273   N     0.15882   0.86498   0.39291   0.00000  Uiso   1.00
N274   N     0.12908   0.87490   0.66473   0.00000  Uiso   1.00
N275   N     0.79807   0.75532   0.04399   0.00000  Uiso   1.00
N276   N     0.17514   0.76695   0.34471   0.00000  Uiso   1.00
C277   C     0.98362   0.09428   0.07024   0.00000  Uiso   1.00
C278   C     0.95306   0.09971   0.95999   0.00000  Uiso   1.00
C279   C     0.93647   0.04967   0.89414   0.00000  Uiso   1.00
C280   C     0.90904   0.06448   0.79629   0.00000  Uiso   1.00
C281   C     0.86321   0.06339   0.62977   0.00000  Uiso   1.00
C282   C     0.04430   0.13267   0.06450   0.00000  Uiso   1.00
C283   C     0.10440   0.11034   0.08654   0.00000  Uiso   1.00
C284   C     0.15378   0.15290   0.07668   0.00000  Uiso   1.00
C285   C     0.24958   0.20299   0.07249   0.00000  Uiso   1.00
C286   C     0.94037   0.12946   0.14737   0.00000  Uiso   1.00
C287   C     0.91310   0.10444   0.23910   0.00000  Uiso   1.00
C288   C     0.87499   0.14430   0.29901   0.00000  Uiso   1.00
C289   C     0.80942   0.18941   0.42348   0.00000  Uiso   1.00
C290   C     0.96444   0.20956   0.01356   0.00000  Uiso   1.00
C291   C     0.94264   0.16233   0.92921   0.00000  Uiso   1.00
C292   C     0.91524   0.17722   0.83143   0.00000  Uiso   1.00
C293   C     0.89860   0.12721   0.76545   0.00000  Uiso   1.00
C294   C     0.03388   0.19528   0.03372   0.00000  Uiso   1.00
C295   C     0.08318   0.23789   0.02383   0.00000  Uiso   1.00
C296   C     0.14334   0.21563   0.04583   0.00000  Uiso   1.00
C297   C     0.92994   0.19208   0.11658   0.00000  Uiso   1.00
C298   C     0.89187   0.23199   0.17638   0.00000  Uiso   1.00
C299   C     0.86455   0.20703   0.26817   0.00000  Uiso   1.00
H300   H     0.99174   0.04553   0.09421   0.00000  Uiso   1.00
H301   H     0.94454   0.00122   0.91799   0.00000  Uiso   1.00
H302   H     0.11245   0.06188   0.11037   0.00000  Uiso   1.00
H303   H     0.92118   0.05598   0.26289   0.00000  Uiso   1.00
H304   H     0.88764   0.97971   0.70904   0.00000  Uiso   1.00
H305   H     0.24169   0.10763   0.11471   0.00000  Uiso   1.00
H306   H     0.83835   0.09518   0.43634   0.00000  Uiso   1.00
H307   H     0.95632   0.25831   0.98959   0.00000  Uiso   1.00
H308   H     0.90718   0.22568   0.80763   0.00000  Uiso   1.00
H309   H     0.07509   0.28634   0.00001   0.00000  Uiso   1.00
H310   H     0.88382   0.28044   0.15253   0.00000  Uiso   1.00
H311   H     0.85732   0.16189   0.61946   0.00000  Uiso   1.00
H312   H     0.21137   0.28980   0.02513   0.00000  Uiso   1.00
H313   H     0.80802   0.27736   0.34676   0.00000  Uiso   1.00
O314   O     0.84081   0.04550   0.54642   0.00000  Uiso   1.00
O315   O     0.30530   0.21331   0.07867   0.00000  Uiso   1.00
O316   O     0.77613   0.19699   0.50063   0.00000  Uiso   1.00
N317   N     0.88724   0.02707   0.71293   0.00000  Uiso   1.00
N318   N     0.21825   0.14665   0.09220   0.00000  Uiso   1.00
N319   N     0.84118   0.13502   0.39291   0.00000  Uiso   1.00
N320   N     0.87092   0.12510   0.66473   0.00000  Uiso   1.00
N321   N     0.20193   0.24468   0.04399   0.00000  Uiso   1.00
N322   N     0.82486   0.23305   0.34471   0.00000  Uiso   1.00
C323   C     0.48362   0.59428   0.57024   0.00000  Uiso   1.00
C324   C     0.45306   0.59971   0.45999   0.00000  Uiso   1.00
C325   C     0.43647   0.54967   0.39414   0.00000  Uiso   1.00
C326   C     0.40904   0.56448   0.29629   0.00000  Uiso   1.00
C327   C     0.36321   0.56339   0.12977   0.00000  Uiso   1.00
C328   C     0.54430   0.63267   0.56450   0.00000  Uiso   1.00
C329   C     0.60440   0.61034   0.58654   0.00000  Uiso   1.00
C330   C     0.65378   0.65290   0.57668   0.00000  Uiso   1.00
C331   C     0.74958   0.70299   0.57249   0.00000  Uiso   1.00
C332   C     0.44037   0.62946   0.64737   0.00000  Uiso   1.00
C333   C     0.41310   0.60444   0.73910   0.00000  Uiso   1.00
C334   C     0.37499   0.64430   0.79901   0.00000  Uiso   1.00
C335   C     0.30942   0.68941   0.92348   0.00000  Uiso   1.00
C336   C     0.46444   0.70956   0.51356   0.00000  Uiso   1.00
C337   C     0.44264   0.66233   0.42921   0.00000  Uiso   1.00
C338   C     0.41524   0.67722   0.33143   0.00000  Uiso   1.00
C339   C     0.39860   0.62721   0.26545   0.00000  Uiso   1.00
C340   C     0.53388   0.69528   0.53372   0.00000  Uiso   1.00
C341   C     0.58318   0.73789   0.52383   0.00000  Uiso   1.00
C342   C     0.64334   0.71563   0.54583   0.00000  Uiso   1.00
C343   C     0.42994   0.69208   0.61658   0.00000  Uiso   1.00
C344   C     0.39187   0.73199   0.67638   0.00000  Uiso   1.00
C345   C     0.36455   0.70703   0.76817   0.00000  Uiso   1.00
H346   H     0.49174   0.54553   0.59421   0.00000  Uiso   1.00
H347   H     0.44454   0.50122   0.41799   0.00000  Uiso   1.00
H348   H     0.61245   0.56188   0.61037   0.00000  Uiso   1.00
H349   H     0.42118   0.55598   0.76289   0.00000  Uiso   1.00
H350   H     0.38764   0.47971   0.20904   0.00000  Uiso   1.00
H351   H     0.74169   0.60763   0.61471   0.00000  Uiso   1.00
H352   H     0.33835   0.59518   0.93634   0.00000  Uiso   1.00
H353   H     0.45632   0.75831   0.48959   0.00000  Uiso   1.00
H354   H     0.40718   0.72568   0.30763   0.00000  Uiso   1.00
H355   H     0.57509   0.78634   0.50001   0.00000  Uiso   1.00
H356   H     0.38382   0.78044   0.65253   0.00000  Uiso   1.00
H357   H     0.35732   0.66189   0.11946   0.00000  Uiso   1.00
H358   H     0.71137   0.78980   0.52513   0.00000  Uiso   1.00
H359   H     0.30802   0.77736   0.84676   0.00000  Uiso   1.00
O360   O     0.34081   0.54550   0.04642   0.00000  Uiso   1.00
O361   O     0.80530   0.71331   0.57867   0.00000  Uiso   1.00
O362   O     0.27613   0.69699   0.00063   0.00000  Uiso   1.00
N363   N     0.38724   0.52707   0.21293   0.00000  Uiso   1.00
N364   N     0.71825   0.64665   0.59220   0.00000  Uiso   1.00
N365   N     0.34118   0.63502   0.89291   0.00000  Uiso   1.00
N366   N     0.37092   0.62510   0.16473   0.00000  Uiso   1.00
N367   N     0.70193   0.74468   0.54399   0.00000  Uiso   1.00
N368   N     0.32486   0.73305   0.84471   0.00000  Uiso   1.00
