data_job_02568
_audit_creation_date              2018-12-19
_audit_creation_method            'Materials Studio'
_symmetry_space_group_name_H-M    'P1'
_symmetry_Int_Tables_number       1
_symmetry_cell_setting            triclinic
loop_
_symmetry_equiv_pos_as_xyz
  x,y,z
_cell_length_a                    27.5815
_cell_length_b                    12.6244
_cell_length_c                    32.1213
_cell_angle_alpha                 90.0000
_cell_angle_beta                  136.3668
_cell_angle_gamma                 90.0000
loop_
_atom_site_label
_atom_site_type_symbol
_atom_site_fract_x
_atom_site_fract_y
_atom_site_fract_z
_atom_site_U_iso_or_equiv
_atom_site_adp_type
_atom_site_occupancy
C1     C     0.63812   0.44499   0.37133   0.00000  Uiso   1.00
C2     C     0.71776   0.45105   0.42540   0.00000  Uiso   1.00
C3     C     0.76539   0.37558   0.44119   0.00000  Uiso   1.00
C4     C     0.83607   0.39577   0.49229   0.00000  Uiso   1.00
C5     C     0.95636   0.39109   0.57110   0.00000  Uiso   1.00
C6     C     0.60833   0.45497   0.39672   0.00000  Uiso   1.00
C7     C     0.56394   0.38280   0.38838   0.00000  Uiso   1.00
C8     C     0.54250   0.40630   0.41532   0.00000  Uiso   1.00
C9     C     0.49286   0.40774   0.44955   0.00000  Uiso   1.00
C10    C     0.61623   0.54550   0.33481   0.00000  Uiso   1.00
C11    C     0.57847   0.54946   0.27441   0.00000  Uiso   1.00
C12    C     0.56366   0.64919   0.24923   0.00000  Uiso   1.00
C13    C     0.52629   0.79120   0.18734   0.00000  Uiso   1.00
C14    C     0.67896   0.61505   0.43400   0.00000  Uiso   1.00
C15    C     0.73994   0.54341   0.45944   0.00000  Uiso   1.00
C16    C     0.81057   0.56372   0.51053   0.00000  Uiso   1.00
C17    C     0.85829   0.48830   0.52639   0.00000  Uiso   1.00
C18    C     0.63052   0.54733   0.43076   0.00000  Uiso   1.00
C19    C     0.60913   0.57094   0.45771   0.00000  Uiso   1.00
C20    C     0.56472   0.49883   0.44942   0.00000  Uiso   1.00
C21    C     0.63842   0.63787   0.36885   0.00000  Uiso   1.00
C22    C     0.62366   0.73760   0.34375   0.00000  Uiso   1.00
C23    C     0.58588   0.74172   0.28333   0.00000  Uiso   1.00
H24    H     0.62084   0.37308   0.34483   0.00000  Uiso   1.00
H25    H     0.74820   0.30410   0.41484   0.00000  Uiso   1.00
H26    H     0.54678   0.31133   0.36203   0.00000  Uiso   1.00
H27    H     0.56131   0.47797   0.24809   0.00000  Uiso   1.00
H28    H     0.89918   0.26835   0.50749   0.00000  Uiso   1.00
H29    H     0.47446   0.28360   0.39611   0.00000  Uiso   1.00
H30    H     0.50509   0.63498   0.15584   0.00000  Uiso   1.00
H31    H     0.69623   0.68696   0.46050   0.00000  Uiso   1.00
H32    H     0.82772   0.63521   0.53686   0.00000  Uiso   1.00
H33    H     0.62630   0.64243   0.48405   0.00000  Uiso   1.00
H34    H     0.64083   0.80906   0.37011   0.00000  Uiso   1.00
H35    H     0.96372   0.53708   0.60653   0.00000  Uiso   1.00
H36    H     0.53900   0.55233   0.49515   0.00000  Uiso   1.00
H37    H     0.56963   0.90372   0.25488   0.00000  Uiso   1.00
O38    O     0.01659   0.36299   0.60516   0.00000  Uiso   1.00
O39    O     0.45936   0.38301   0.45903   0.00000  Uiso   1.00
O40    O     0.49956   0.84401   0.14381   0.00000  Uiso   1.00
N41    N     0.89632   0.33870   0.52031   0.00000  Uiso   1.00
N42    N     0.49924   0.35296   0.41619   0.00000  Uiso   1.00
N43    N     0.52787   0.68147   0.19155   0.00000  Uiso   1.00
N44    N     0.93105   0.48331   0.57360   0.00000  Uiso   1.00
N45    N     0.53397   0.49756   0.46948   0.00000  Uiso   1.00
N46    N     0.56260   0.82607   0.24484   0.00000  Uiso   1.00
C47    C     0.13812   0.94499   0.37133   0.00000  Uiso   1.00
C48    C     0.21776   0.95105   0.42540   0.00000  Uiso   1.00
C49    C     0.26539   0.87558   0.44119   0.00000  Uiso   1.00
C50    C     0.33607   0.89577   0.49229   0.00000  Uiso   1.00
C51    C     0.45636   0.89109   0.57110   0.00000  Uiso   1.00
C52    C     0.10833   0.95497   0.39672   0.00000  Uiso   1.00
C53    C     0.06394   0.88280   0.38838   0.00000  Uiso   1.00
C54    C     0.04250   0.90630   0.41532   0.00000  Uiso   1.00
C55    C     0.99286   0.90774   0.44955   0.00000  Uiso   1.00
C56    C     0.11623   0.04550   0.33481   0.00000  Uiso   1.00
C57    C     0.07847   0.04946   0.27441   0.00000  Uiso   1.00
C58    C     0.06366   0.14919   0.24923   0.00000  Uiso   1.00
C59    C     0.02629   0.29120   0.18734   0.00000  Uiso   1.00
C60    C     0.17896   0.11505   0.43400   0.00000  Uiso   1.00
C61    C     0.23994   0.04341   0.45944   0.00000  Uiso   1.00
C62    C     0.31057   0.06372   0.51053   0.00000  Uiso   1.00
C63    C     0.35829   0.98830   0.52639   0.00000  Uiso   1.00
C64    C     0.13052   0.04733   0.43076   0.00000  Uiso   1.00
C65    C     0.10913   0.07094   0.45771   0.00000  Uiso   1.00
C66    C     0.06472   0.99883   0.44942   0.00000  Uiso   1.00
C67    C     0.13842   0.13787   0.36885   0.00000  Uiso   1.00
C68    C     0.12366   0.23760   0.34375   0.00000  Uiso   1.00
C69    C     0.08588   0.24172   0.28333   0.00000  Uiso   1.00
H70    H     0.12084   0.87308   0.34483   0.00000  Uiso   1.00
H71    H     0.24820   0.80410   0.41484   0.00000  Uiso   1.00
H72    H     0.04678   0.81133   0.36203   0.00000  Uiso   1.00
H73    H     0.06131   0.97797   0.24809   0.00000  Uiso   1.00
H74    H     0.39918   0.76835   0.50749   0.00000  Uiso   1.00
H75    H     0.97446   0.78360   0.39611   0.00000  Uiso   1.00
H76    H     0.00509   0.13498   0.15584   0.00000  Uiso   1.00
H77    H     0.19623   0.18696   0.46050   0.00000  Uiso   1.00
H78    H     0.32772   0.13521   0.53686   0.00000  Uiso   1.00
H79    H     0.12630   0.14243   0.48405   0.00000  Uiso   1.00
H80    H     0.14083   0.30906   0.37011   0.00000  Uiso   1.00
H81    H     0.46372   0.03708   0.60653   0.00000  Uiso   1.00
H82    H     0.03900   0.05233   0.49515   0.00000  Uiso   1.00
H83    H     0.06963   0.40372   0.25488   0.00000  Uiso   1.00
O84    O     0.51659   0.86299   0.60516   0.00000  Uiso   1.00
O85    O     0.95936   0.88301   0.45903   0.00000  Uiso   1.00
O86    O     0.99956   0.34401   0.14381   0.00000  Uiso   1.00
N87    N     0.39632   0.83870   0.52031   0.00000  Uiso   1.00
N88    N     0.99924   0.85296   0.41619   0.00000  Uiso   1.00
N89    N     0.02787   0.18147   0.19155   0.00000  Uiso   1.00
N90    N     0.43105   0.98331   0.57360   0.00000  Uiso   1.00
N91    N     0.03397   0.99756   0.46948   0.00000  Uiso   1.00
N92    N     0.06260   0.32607   0.24484   0.00000  Uiso   1.00
C93    C     0.36188   0.44499   0.12867   0.00000  Uiso   1.00
C94    C     0.28224   0.45105   0.07460   0.00000  Uiso   1.00
C95    C     0.23461   0.37558   0.05881   0.00000  Uiso   1.00
C96    C     0.16393   0.39577   0.00771   0.00000  Uiso   1.00
C97    C     0.04364   0.39109   0.92890   0.00000  Uiso   1.00
C98    C     0.39167   0.45497   0.10328   0.00000  Uiso   1.00
C99    C     0.43606   0.38280   0.11162   0.00000  Uiso   1.00
C100   C     0.45750   0.40630   0.08468   0.00000  Uiso   1.00
C101   C     0.50714   0.40774   0.05045   0.00000  Uiso   1.00
C102   C     0.38377   0.54550   0.16519   0.00000  Uiso   1.00
C103   C     0.42153   0.54946   0.22559   0.00000  Uiso   1.00
C104   C     0.43634   0.64919   0.25077   0.00000  Uiso   1.00
C105   C     0.47371   0.79120   0.31266   0.00000  Uiso   1.00
C106   C     0.32104   0.61505   0.06600   0.00000  Uiso   1.00
C107   C     0.26006   0.54341   0.04056   0.00000  Uiso   1.00
C108   C     0.18943   0.56372   0.98947   0.00000  Uiso   1.00
C109   C     0.14171   0.48830   0.97361   0.00000  Uiso   1.00
C110   C     0.36948   0.54733   0.06924   0.00000  Uiso   1.00
C111   C     0.39087   0.57094   0.04229   0.00000  Uiso   1.00
C112   C     0.43528   0.49883   0.05058   0.00000  Uiso   1.00
C113   C     0.36158   0.63787   0.13115   0.00000  Uiso   1.00
C114   C     0.37634   0.73760   0.15625   0.00000  Uiso   1.00
C115   C     0.41412   0.74172   0.21667   0.00000  Uiso   1.00
H116   H     0.37916   0.37308   0.15517   0.00000  Uiso   1.00
H117   H     0.25180   0.30410   0.08516   0.00000  Uiso   1.00
H118   H     0.45322   0.31133   0.13797   0.00000  Uiso   1.00
H119   H     0.43869   0.47797   0.25191   0.00000  Uiso   1.00
H120   H     0.10082   0.26835   0.99251   0.00000  Uiso   1.00
H121   H     0.52554   0.28360   0.10389   0.00000  Uiso   1.00
H122   H     0.49491   0.63498   0.34416   0.00000  Uiso   1.00
H123   H     0.30377   0.68696   0.03950   0.00000  Uiso   1.00
H124   H     0.17228   0.63521   0.96314   0.00000  Uiso   1.00
H125   H     0.37370   0.64243   0.01595   0.00000  Uiso   1.00
H126   H     0.35917   0.80906   0.12989   0.00000  Uiso   1.00
H127   H     0.03628   0.53708   0.89347   0.00000  Uiso   1.00
H128   H     0.46100   0.55233   0.00485   0.00000  Uiso   1.00
H129   H     0.43037   0.90372   0.24512   0.00000  Uiso   1.00
O130   O     0.98341   0.36299   0.89484   0.00000  Uiso   1.00
O131   O     0.54064   0.38301   0.04097   0.00000  Uiso   1.00
O132   O     0.50044   0.84401   0.35619   0.00000  Uiso   1.00
N133   N     0.10368   0.33870   0.97969   0.00000  Uiso   1.00
N134   N     0.50076   0.35296   0.08381   0.00000  Uiso   1.00
N135   N     0.47213   0.68147   0.30845   0.00000  Uiso   1.00
N136   N     0.06895   0.48331   0.92640   0.00000  Uiso   1.00
N137   N     0.46603   0.49756   0.03052   0.00000  Uiso   1.00
N138   N     0.43740   0.82607   0.25516   0.00000  Uiso   1.00
C139   C     0.86188   0.94499   0.12867   0.00000  Uiso   1.00
C140   C     0.78224   0.95105   0.07460   0.00000  Uiso   1.00
C141   C     0.73461   0.87558   0.05881   0.00000  Uiso   1.00
C142   C     0.66393   0.89577   0.00771   0.00000  Uiso   1.00
C143   C     0.54364   0.89109   0.92890   0.00000  Uiso   1.00
C144   C     0.89167   0.95497   0.10328   0.00000  Uiso   1.00
C145   C     0.93606   0.88280   0.11162   0.00000  Uiso   1.00
C146   C     0.95750   0.90630   0.08468   0.00000  Uiso   1.00
C147   C     0.00714   0.90774   0.05045   0.00000  Uiso   1.00
C148   C     0.88377   0.04550   0.16519   0.00000  Uiso   1.00
C149   C     0.92153   0.04946   0.22559   0.00000  Uiso   1.00
C150   C     0.93634   0.14919   0.25077   0.00000  Uiso   1.00
C151   C     0.97371   0.29120   0.31266   0.00000  Uiso   1.00
C152   C     0.82104   0.11505   0.06600   0.00000  Uiso   1.00
C153   C     0.76006   0.04341   0.04056   0.00000  Uiso   1.00
C154   C     0.68943   0.06372   0.98947   0.00000  Uiso   1.00
C155   C     0.64171   0.98830   0.97361   0.00000  Uiso   1.00
C156   C     0.86948   0.04733   0.06924   0.00000  Uiso   1.00
C157   C     0.89087   0.07094   0.04229   0.00000  Uiso   1.00
C158   C     0.93528   0.99883   0.05058   0.00000  Uiso   1.00
C159   C     0.86158   0.13787   0.13115   0.00000  Uiso   1.00
C160   C     0.87634   0.23760   0.15625   0.00000  Uiso   1.00
C161   C     0.91412   0.24172   0.21667   0.00000  Uiso   1.00
H162   H     0.87916   0.87308   0.15517   0.00000  Uiso   1.00
H163   H     0.75180   0.80410   0.08516   0.00000  Uiso   1.00
H164   H     0.95322   0.81133   0.13797   0.00000  Uiso   1.00
H165   H     0.93869   0.97797   0.25191   0.00000  Uiso   1.00
H166   H     0.60082   0.76835   0.99251   0.00000  Uiso   1.00
H167   H     0.02554   0.78360   0.10389   0.00000  Uiso   1.00
H168   H     0.99491   0.13498   0.34416   0.00000  Uiso   1.00
H169   H     0.80377   0.18696   0.03950   0.00000  Uiso   1.00
H170   H     0.67228   0.13521   0.96314   0.00000  Uiso   1.00
H171   H     0.87370   0.14243   0.01595   0.00000  Uiso   1.00
H172   H     0.85917   0.30906   0.12989   0.00000  Uiso   1.00
H173   H     0.53628   0.03708   0.89347   0.00000  Uiso   1.00
H174   H     0.96100   0.05233   0.00485   0.00000  Uiso   1.00
H175   H     0.93037   0.40372   0.24512   0.00000  Uiso   1.00
O176   O     0.48341   0.86299   0.89484   0.00000  Uiso   1.00
O177   O     0.04064   0.88301   0.04097   0.00000  Uiso   1.00
O178   O     0.00044   0.34401   0.35619   0.00000  Uiso   1.00
N179   N     0.60368   0.83870   0.97969   0.00000  Uiso   1.00
N180   N     0.00076   0.85296   0.08381   0.00000  Uiso   1.00
N181   N     0.97213   0.18147   0.30845   0.00000  Uiso   1.00
N182   N     0.56895   0.98331   0.92640   0.00000  Uiso   1.00
N183   N     0.96603   0.99756   0.03052   0.00000  Uiso   1.00
N184   N     0.93740   0.32607   0.25516   0.00000  Uiso   1.00
C185   C     0.36188   0.55501   0.62867   0.00000  Uiso   1.00
C186   C     0.28224   0.54895   0.57460   0.00000  Uiso   1.00
C187   C     0.23461   0.62442   0.55881   0.00000  Uiso   1.00
C188   C     0.16393   0.60423   0.50771   0.00000  Uiso   1.00
C189   C     0.04364   0.60891   0.42890   0.00000  Uiso   1.00
C190   C     0.39167   0.54503   0.60328   0.00000  Uiso   1.00
C191   C     0.43606   0.61720   0.61162   0.00000  Uiso   1.00
C192   C     0.45750   0.59370   0.58468   0.00000  Uiso   1.00
C193   C     0.50714   0.59226   0.55045   0.00000  Uiso   1.00
C194   C     0.38377   0.45450   0.66519   0.00000  Uiso   1.00
C195   C     0.42153   0.45054   0.72559   0.00000  Uiso   1.00
C196   C     0.43634   0.35081   0.75077   0.00000  Uiso   1.00
C197   C     0.47371   0.20880   0.81266   0.00000  Uiso   1.00
C198   C     0.32104   0.38495   0.56600   0.00000  Uiso   1.00
C199   C     0.26006   0.45659   0.54056   0.00000  Uiso   1.00
C200   C     0.18943   0.43628   0.48947   0.00000  Uiso   1.00
C201   C     0.14171   0.51170   0.47361   0.00000  Uiso   1.00
C202   C     0.36948   0.45267   0.56924   0.00000  Uiso   1.00
C203   C     0.39087   0.42906   0.54229   0.00000  Uiso   1.00
C204   C     0.43528   0.50117   0.55058   0.00000  Uiso   1.00
C205   C     0.36158   0.36213   0.63115   0.00000  Uiso   1.00
C206   C     0.37634   0.26240   0.65625   0.00000  Uiso   1.00
C207   C     0.41412   0.25828   0.71667   0.00000  Uiso   1.00
H208   H     0.37916   0.62692   0.65517   0.00000  Uiso   1.00
H209   H     0.25180   0.69590   0.58516   0.00000  Uiso   1.00
H210   H     0.45322   0.68867   0.63797   0.00000  Uiso   1.00
H211   H     0.43869   0.52203   0.75191   0.00000  Uiso   1.00
H212   H     0.10082   0.73165   0.49251   0.00000  Uiso   1.00
H213   H     0.52554   0.71640   0.60389   0.00000  Uiso   1.00
H214   H     0.49491   0.36502   0.84416   0.00000  Uiso   1.00
H215   H     0.30377   0.31304   0.53950   0.00000  Uiso   1.00
H216   H     0.17228   0.36479   0.46314   0.00000  Uiso   1.00
H217   H     0.37370   0.35757   0.51595   0.00000  Uiso   1.00
H218   H     0.35917   0.19094   0.62989   0.00000  Uiso   1.00
H219   H     0.03628   0.46292   0.39347   0.00000  Uiso   1.00
H220   H     0.46100   0.44767   0.50485   0.00000  Uiso   1.00
H221   H     0.43037   0.09628   0.74512   0.00000  Uiso   1.00
O222   O     0.98341   0.63701   0.39484   0.00000  Uiso   1.00
O223   O     0.54064   0.61699   0.54097   0.00000  Uiso   1.00
O224   O     0.50044   0.15599   0.85619   0.00000  Uiso   1.00
N225   N     0.10368   0.66130   0.47969   0.00000  Uiso   1.00
N226   N     0.50076   0.64704   0.58381   0.00000  Uiso   1.00
N227   N     0.47213   0.31853   0.80845   0.00000  Uiso   1.00
N228   N     0.06895   0.51669   0.42640   0.00000  Uiso   1.00
N229   N     0.46603   0.50244   0.53052   0.00000  Uiso   1.00
N230   N     0.43740   0.17393   0.75516   0.00000  Uiso   1.00
C231   C     0.86188   0.05501   0.62867   0.00000  Uiso   1.00
C232   C     0.78224   0.04895   0.57460   0.00000  Uiso   1.00
C233   C     0.73461   0.12442   0.55881   0.00000  Uiso   1.00
C234   C     0.66393   0.10423   0.50771   0.00000  Uiso   1.00
C235   C     0.54364   0.10891   0.42890   0.00000  Uiso   1.00
C236   C     0.89167   0.04503   0.60328   0.00000  Uiso   1.00
C237   C     0.93606   0.11720   0.61162   0.00000  Uiso   1.00
C238   C     0.95750   0.09370   0.58468   0.00000  Uiso   1.00
C239   C     0.00714   0.09226   0.55045   0.00000  Uiso   1.00
C240   C     0.88377   0.95450   0.66519   0.00000  Uiso   1.00
C241   C     0.92153   0.95054   0.72559   0.00000  Uiso   1.00
C242   C     0.93634   0.85081   0.75077   0.00000  Uiso   1.00
C243   C     0.97371   0.70880   0.81266   0.00000  Uiso   1.00
C244   C     0.82104   0.88495   0.56600   0.00000  Uiso   1.00
C245   C     0.76006   0.95659   0.54056   0.00000  Uiso   1.00
C246   C     0.68943   0.93628   0.48947   0.00000  Uiso   1.00
C247   C     0.64171   0.01170   0.47361   0.00000  Uiso   1.00
C248   C     0.86948   0.95267   0.56924   0.00000  Uiso   1.00
C249   C     0.89087   0.92906   0.54229   0.00000  Uiso   1.00
C250   C     0.93528   0.00117   0.55058   0.00000  Uiso   1.00
C251   C     0.86158   0.86213   0.63115   0.00000  Uiso   1.00
C252   C     0.87634   0.76240   0.65625   0.00000  Uiso   1.00
C253   C     0.91412   0.75828   0.71667   0.00000  Uiso   1.00
H254   H     0.87916   0.12692   0.65517   0.00000  Uiso   1.00
H255   H     0.75180   0.19590   0.58516   0.00000  Uiso   1.00
H256   H     0.95322   0.18867   0.63797   0.00000  Uiso   1.00
H257   H     0.93869   0.02203   0.75191   0.00000  Uiso   1.00
H258   H     0.60082   0.23165   0.49251   0.00000  Uiso   1.00
H259   H     0.02554   0.21640   0.60389   0.00000  Uiso   1.00
H260   H     0.99491   0.86502   0.84416   0.00000  Uiso   1.00
H261   H     0.80377   0.81304   0.53950   0.00000  Uiso   1.00
H262   H     0.67228   0.86479   0.46314   0.00000  Uiso   1.00
H263   H     0.87370   0.85757   0.51595   0.00000  Uiso   1.00
H264   H     0.85917   0.69094   0.62989   0.00000  Uiso   1.00
H265   H     0.53628   0.96292   0.39347   0.00000  Uiso   1.00
H266   H     0.96100   0.94767   0.50485   0.00000  Uiso   1.00
H267   H     0.93037   0.59628   0.74512   0.00000  Uiso   1.00
O268   O     0.48341   0.13701   0.39484   0.00000  Uiso   1.00
O269   O     0.04064   0.11699   0.54097   0.00000  Uiso   1.00
O270   O     0.00044   0.65599   0.85619   0.00000  Uiso   1.00
N271   N     0.60368   0.16130   0.47969   0.00000  Uiso   1.00
N272   N     0.00076   0.14704   0.58381   0.00000  Uiso   1.00
N273   N     0.97213   0.81853   0.80845   0.00000  Uiso   1.00
N274   N     0.56895   0.01669   0.42640   0.00000  Uiso   1.00
N275   N     0.96603   0.00244   0.53052   0.00000  Uiso   1.00
N276   N     0.93740   0.67393   0.75516   0.00000  Uiso   1.00
C277   C     0.63812   0.55501   0.87133   0.00000  Uiso   1.00
C278   C     0.71776   0.54895   0.92540   0.00000  Uiso   1.00
C279   C     0.76539   0.62442   0.94119   0.00000  Uiso   1.00
C280   C     0.83607   0.60423   0.99229   0.00000  Uiso   1.00
C281   C     0.95636   0.60891   0.07110   0.00000  Uiso   1.00
C282   C     0.60833   0.54503   0.89672   0.00000  Uiso   1.00
C283   C     0.56394   0.61720   0.88838   0.00000  Uiso   1.00
C284   C     0.54250   0.59370   0.91532   0.00000  Uiso   1.00
C285   C     0.49286   0.59226   0.94955   0.00000  Uiso   1.00
C286   C     0.61623   0.45450   0.83481   0.00000  Uiso   1.00
C287   C     0.57847   0.45054   0.77441   0.00000  Uiso   1.00
C288   C     0.56366   0.35081   0.74923   0.00000  Uiso   1.00
C289   C     0.52629   0.20880   0.68734   0.00000  Uiso   1.00
C290   C     0.67896   0.38495   0.93400   0.00000  Uiso   1.00
C291   C     0.73994   0.45659   0.95944   0.00000  Uiso   1.00
C292   C     0.81057   0.43628   0.01053   0.00000  Uiso   1.00
C293   C     0.85829   0.51170   0.02639   0.00000  Uiso   1.00
C294   C     0.63052   0.45267   0.93076   0.00000  Uiso   1.00
C295   C     0.60913   0.42906   0.95771   0.00000  Uiso   1.00
C296   C     0.56472   0.50117   0.94942   0.00000  Uiso   1.00
C297   C     0.63842   0.36213   0.86885   0.00000  Uiso   1.00
C298   C     0.62366   0.26240   0.84375   0.00000  Uiso   1.00
C299   C     0.58588   0.25828   0.78333   0.00000  Uiso   1.00
H300   H     0.62084   0.62692   0.84483   0.00000  Uiso   1.00
H301   H     0.74820   0.69590   0.91484   0.00000  Uiso   1.00
H302   H     0.54678   0.68867   0.86203   0.00000  Uiso   1.00
H303   H     0.56131   0.52203   0.74809   0.00000  Uiso   1.00
H304   H     0.89918   0.73165   0.00749   0.00000  Uiso   1.00
H305   H     0.47446   0.71640   0.89611   0.00000  Uiso   1.00
H306   H     0.50509   0.36502   0.65584   0.00000  Uiso   1.00
H307   H     0.69623   0.31304   0.96050   0.00000  Uiso   1.00
H308   H     0.82772   0.36479   0.03686   0.00000  Uiso   1.00
H309   H     0.62630   0.35757   0.98405   0.00000  Uiso   1.00
H310   H     0.64083   0.19094   0.87011   0.00000  Uiso   1.00
H311   H     0.96372   0.46292   0.10653   0.00000  Uiso   1.00
H312   H     0.53900   0.44767   0.99515   0.00000  Uiso   1.00
H313   H     0.56963   0.09628   0.75488   0.00000  Uiso   1.00
O314   O     0.01659   0.63701   0.10516   0.00000  Uiso   1.00
O315   O     0.45936   0.61699   0.95903   0.00000  Uiso   1.00
O316   O     0.49956   0.15599   0.64381   0.00000  Uiso   1.00
N317   N     0.89632   0.66130   0.02031   0.00000  Uiso   1.00
N318   N     0.49924   0.64704   0.91619   0.00000  Uiso   1.00
N319   N     0.52787   0.31853   0.69155   0.00000  Uiso   1.00
N320   N     0.93105   0.51669   0.07360   0.00000  Uiso   1.00
N321   N     0.53397   0.50244   0.96948   0.00000  Uiso   1.00
N322   N     0.56260   0.17393   0.74484   0.00000  Uiso   1.00
C323   C     0.13812   0.05501   0.87133   0.00000  Uiso   1.00
C324   C     0.21776   0.04895   0.92540   0.00000  Uiso   1.00
C325   C     0.26539   0.12442   0.94119   0.00000  Uiso   1.00
C326   C     0.33607   0.10423   0.99229   0.00000  Uiso   1.00
C327   C     0.45636   0.10891   0.07110   0.00000  Uiso   1.00
C328   C     0.10833   0.04503   0.89672   0.00000  Uiso   1.00
C329   C     0.06394   0.11720   0.88838   0.00000  Uiso   1.00
C330   C     0.04250   0.09370   0.91532   0.00000  Uiso   1.00
C331   C     0.99286   0.09226   0.94955   0.00000  Uiso   1.00
C332   C     0.11623   0.95450   0.83481   0.00000  Uiso   1.00
C333   C     0.07847   0.95054   0.77441   0.00000  Uiso   1.00
C334   C     0.06366   0.85081   0.74923   0.00000  Uiso   1.00
C335   C     0.02629   0.70880   0.68734   0.00000  Uiso   1.00
C336   C     0.17896   0.88495   0.93400   0.00000  Uiso   1.00
C337   C     0.23994   0.95659   0.95944   0.00000  Uiso   1.00
C338   C     0.31057   0.93628   0.01053   0.00000  Uiso   1.00
C339   C     0.35829   0.01170   0.02639   0.00000  Uiso   1.00
C340   C     0.13052   0.95267   0.93076   0.00000  Uiso   1.00
C341   C     0.10913   0.92906   0.95771   0.00000  Uiso   1.00
C342   C     0.06472   0.00117   0.94942   0.00000  Uiso   1.00
C343   C     0.13842   0.86213   0.86885   0.00000  Uiso   1.00
C344   C     0.12366   0.76240   0.84375   0.00000  Uiso   1.00
C345   C     0.08588   0.75828   0.78333   0.00000  Uiso   1.00
H346   H     0.12084   0.12692   0.84483   0.00000  Uiso   1.00
H347   H     0.24820   0.19590   0.91484   0.00000  Uiso   1.00
H348   H     0.04678   0.18867   0.86203   0.00000  Uiso   1.00
H349   H     0.06131   0.02203   0.74809   0.00000  Uiso   1.00
H350   H     0.39918   0.23165   0.00749   0.00000  Uiso   1.00
H351   H     0.97446   0.21640   0.89611   0.00000  Uiso   1.00
H352   H     0.00509   0.86502   0.65584   0.00000  Uiso   1.00
H353   H     0.19623   0.81304   0.96050   0.00000  Uiso   1.00
H354   H     0.32772   0.86479   0.03686   0.00000  Uiso   1.00
H355   H     0.12630   0.85757   0.98405   0.00000  Uiso   1.00
H356   H     0.14083   0.69094   0.87011   0.00000  Uiso   1.00
H357   H     0.46372   0.96292   0.10653   0.00000  Uiso   1.00
H358   H     0.03900   0.94767   0.99515   0.00000  Uiso   1.00
H359   H     0.06963   0.59628   0.75488   0.00000  Uiso   1.00
O360   O     0.51659   0.13701   0.10516   0.00000  Uiso   1.00
O361   O     0.95936   0.11699   0.95903   0.00000  Uiso   1.00
O362   O     0.99956   0.65599   0.64381   0.00000  Uiso   1.00
N363   N     0.39632   0.16130   0.02031   0.00000  Uiso   1.00
N364   N     0.99924   0.14704   0.91619   0.00000  Uiso   1.00
N365   N     0.02787   0.81853   0.69155   0.00000  Uiso   1.00
N366   N     0.43105   0.01669   0.07360   0.00000  Uiso   1.00
N367   N     0.03397   0.00244   0.96948   0.00000  Uiso   1.00
N368   N     0.06260   0.67393   0.74484   0.00000  Uiso   1.00
