data_job_01460
_audit_creation_date              2018-12-19
_audit_creation_method            'Materials Studio'
_symmetry_space_group_name_H-M    'P1'
_symmetry_Int_Tables_number       1
_symmetry_cell_setting            triclinic
loop_
_symmetry_equiv_pos_as_xyz
  x,y,z
_cell_length_a                    10.9185
_cell_length_b                    11.5517
_cell_length_c                    14.7677
_cell_angle_alpha                 69.3972
_cell_angle_beta                  78.3653
_cell_angle_gamma                 65.5646
loop_
_atom_site_label
_atom_site_type_symbol
_atom_site_fract_x
_atom_site_fract_y
_atom_site_fract_z
_atom_site_U_iso_or_equiv
_atom_site_adp_type
_atom_site_occupancy
C1     C     0.30843   0.60234   0.21619   0.00000  Uiso   1.00
C2     C     0.18959   0.66867   0.27908   0.00000  Uiso   1.00
C3     C     0.18728   0.75247   0.32806   0.00000  Uiso   1.00
C4     C     0.06895   0.80304   0.38175   0.00000  Uiso   1.00
C5     C     0.90148   0.91087   0.47876   0.00000  Uiso   1.00
C6     C     0.33898   0.45303   0.25825   0.00000  Uiso   1.00
C7     C     0.46228   0.35553   0.28970   0.00000  Uiso   1.00
C8     C     0.46970   0.22457   0.32584   0.00000  Uiso   1.00
C9     C     0.53418   0.99761   0.39044   0.00000  Uiso   1.00
C10    C     0.25551   0.64473   0.11692   0.00000  Uiso   1.00
C11    C     0.30865   0.70838   0.02952   0.00000  Uiso   1.00
C12    C     0.24582   0.73879   0.94667   0.00000  Uiso   1.00
C13    C     0.18071   0.80947   0.79183   0.00000  Uiso   1.00
C14    C     0.10238   0.54313   0.22446   0.00000  Uiso   1.00
C15    C     0.07768   0.63650   0.28357   0.00000  Uiso   1.00
C16    C     0.95931   0.68696   0.33720   0.00000  Uiso   1.00
C17    C     0.95683   0.77082   0.38625   0.00000  Uiso   1.00
C18    C     0.22707   0.42087   0.26274   0.00000  Uiso   1.00
C19    C     0.23431   0.29002   0.29884   0.00000  Uiso   1.00
C20    C     0.35758   0.19235   0.33034   0.00000  Uiso   1.00
C21    C     0.14359   0.61257   0.12141   0.00000  Uiso   1.00
C22    C     0.08068   0.64288   0.03867   0.00000  Uiso   1.00
C23    C     0.13371   0.70657   0.95116   0.00000  Uiso   1.00
H24    H     0.39556   0.62737   0.21270   0.00000  Uiso   1.00
H25    H     0.27392   0.77732   0.32457   0.00000  Uiso   1.00
H26    H     0.54887   0.38045   0.28621   0.00000  Uiso   1.00
H27    H     0.39526   0.73325   0.02608   0.00000  Uiso   1.00
H28    H     0.08971   0.92935   0.45061   0.00000  Uiso   1.00
H29    H     0.66948   0.09252   0.36968   0.00000  Uiso   1.00
H30    H     0.34557   0.83646   0.82114   0.00000  Uiso   1.00
H31    H     0.01525   0.51809   0.22796   0.00000  Uiso   1.00
H32    H     0.87272   0.66206   0.34066   0.00000  Uiso   1.00
H33    H     0.14768   0.26517   0.30230   0.00000  Uiso   1.00
H34    H     0.99407   0.61798   0.04217   0.00000  Uiso   1.00
H35    H     0.76409   0.83579   0.46368   0.00000  Uiso   1.00
H36    H     0.34387   0.99895   0.38274   0.00000  Uiso   1.00
H37    H     0.01995   0.74290   0.83421   0.00000  Uiso   1.00
O38    O     0.84003   0.97921   0.53104   0.00000  Uiso   1.00
O39    O     0.60067   0.88131   0.42484   0.00000  Uiso   1.00
O40    O     0.17570   0.85736   0.70518   0.00000  Uiso   1.00
N41    N     0.03263   0.88760   0.43820   0.00000  Uiso   1.00
N42    N     0.57467   0.10520   0.36255   0.00000  Uiso   1.00
N43    N     0.27187   0.80070   0.84971   0.00000  Uiso   1.00
N44    N     0.85741   0.83726   0.44523   0.00000  Uiso   1.00
N45    N     0.39946   0.05486   0.36958   0.00000  Uiso   1.00
N46    N     0.09665   0.75036   0.85674   0.00000  Uiso   1.00
C47    C     0.69157   0.39766   0.78381   0.00000  Uiso   1.00
C48    C     0.81041   0.33133   0.72092   0.00000  Uiso   1.00
C49    C     0.81272   0.24753   0.67194   0.00000  Uiso   1.00
C50    C     0.93105   0.19696   0.61825   0.00000  Uiso   1.00
C51    C     0.09852   0.08913   0.52124   0.00000  Uiso   1.00
C52    C     0.66102   0.54697   0.74175   0.00000  Uiso   1.00
C53    C     0.53772   0.64447   0.71030   0.00000  Uiso   1.00
C54    C     0.53030   0.77543   0.67416   0.00000  Uiso   1.00
C55    C     0.46582   0.00239   0.60956   0.00000  Uiso   1.00
C56    C     0.74449   0.35527   0.88308   0.00000  Uiso   1.00
C57    C     0.69135   0.29162   0.97048   0.00000  Uiso   1.00
C58    C     0.75418   0.26121   0.05333   0.00000  Uiso   1.00
C59    C     0.81929   0.19053   0.20817   0.00000  Uiso   1.00
C60    C     0.89762   0.45687   0.77554   0.00000  Uiso   1.00
C61    C     0.92232   0.36350   0.71643   0.00000  Uiso   1.00
C62    C     0.04069   0.31304   0.66280   0.00000  Uiso   1.00
C63    C     0.04317   0.22918   0.61375   0.00000  Uiso   1.00
C64    C     0.77293   0.57913   0.73726   0.00000  Uiso   1.00
C65    C     0.76569   0.70998   0.70116   0.00000  Uiso   1.00
C66    C     0.64242   0.80765   0.66966   0.00000  Uiso   1.00
C67    C     0.85641   0.38743   0.87859   0.00000  Uiso   1.00
C68    C     0.91932   0.35712   0.96133   0.00000  Uiso   1.00
C69    C     0.86629   0.29343   0.04884   0.00000  Uiso   1.00
H70    H     0.60444   0.37263   0.78730   0.00000  Uiso   1.00
H71    H     0.72608   0.22268   0.67543   0.00000  Uiso   1.00
H72    H     0.45113   0.61955   0.71379   0.00000  Uiso   1.00
H73    H     0.60474   0.26675   0.97392   0.00000  Uiso   1.00
H74    H     0.91029   0.07065   0.54939   0.00000  Uiso   1.00
H75    H     0.33052   0.90748   0.63032   0.00000  Uiso   1.00
H76    H     0.65443   0.16354   0.17886   0.00000  Uiso   1.00
H77    H     0.98475   0.48191   0.77204   0.00000  Uiso   1.00
H78    H     0.12728   0.33794   0.65934   0.00000  Uiso   1.00
H79    H     0.85232   0.73483   0.69770   0.00000  Uiso   1.00
H80    H     0.00593   0.38202   0.95783   0.00000  Uiso   1.00
H81    H     0.23591   0.16421   0.53632   0.00000  Uiso   1.00
H82    H     0.65613   0.00105   0.61726   0.00000  Uiso   1.00
H83    H     0.98005   0.25710   0.16579   0.00000  Uiso   1.00
O84    O     0.15997   0.02079   0.46896   0.00000  Uiso   1.00
O85    O     0.39933   0.11869   0.57516   0.00000  Uiso   1.00
O86    O     0.82430   0.14264   0.29482   0.00000  Uiso   1.00
N87    N     0.96737   0.11240   0.56180   0.00000  Uiso   1.00
N88    N     0.42533   0.89480   0.63745   0.00000  Uiso   1.00
N89    N     0.72813   0.19930   0.15029   0.00000  Uiso   1.00
N90    N     0.14259   0.16274   0.55477   0.00000  Uiso   1.00
N91    N     0.60054   0.94514   0.63042   0.00000  Uiso   1.00
N92    N     0.90335   0.24964   0.14326   0.00000  Uiso   1.00
