data_job_06052
_audit_creation_date              2018-12-19
_audit_creation_method            'Materials Studio'
_symmetry_space_group_name_H-M    'P1'
_symmetry_Int_Tables_number       1
_symmetry_cell_setting            triclinic
loop_
_symmetry_equiv_pos_as_xyz
  x,y,z
_cell_length_a                    13.2750
_cell_length_b                    19.1541
_cell_length_c                    19.1926
_cell_angle_alpha                 114.8540
_cell_angle_beta                  76.5567
_cell_angle_gamma                 76.8936
loop_
_atom_site_label
_atom_site_type_symbol
_atom_site_fract_x
_atom_site_fract_y
_atom_site_fract_z
_atom_site_U_iso_or_equiv
_atom_site_adp_type
_atom_site_occupancy
C1     C     0.08830   0.75432   0.52221   0.00000  Uiso   1.00
C2     C     0.19014   0.74474   0.54633   0.00000  Uiso   1.00
C3     C     0.23346   0.80571   0.57707   0.00000  Uiso   1.00
C4     C     0.32714   0.78469   0.59540   0.00000  Uiso   1.00
C5     C     0.47792   0.78184   0.63464   0.00000  Uiso   1.00
C6     C     0.12749   0.68643   0.43238   0.00000  Uiso   1.00
C7     C     0.11811   0.69838   0.36733   0.00000  Uiso   1.00
C8     C     0.15904   0.62827   0.28975   0.00000  Uiso   1.00
C9     C     0.21247   0.53489   0.15210   0.00000  Uiso   1.00
C10    C     0.00851   0.73192   0.57274   0.00000  Uiso   1.00
C11    C     0.89908   0.78211   0.62569   0.00000  Uiso   1.00
C12    C     0.83982   0.75030   0.66626   0.00000  Uiso   1.00
C13    C     0.70852   0.72755   0.74654   0.00000  Uiso   1.00
C14    C     0.17763   0.60858   0.50009   0.00000  Uiso   1.00
C15    C     0.23866   0.66557   0.53431   0.00000  Uiso   1.00
C16    C     0.33229   0.64446   0.55260   0.00000  Uiso   1.00
C17    C     0.37574   0.70539   0.58337   0.00000  Uiso   1.00
C18    C     0.17601   0.60727   0.42037   0.00000  Uiso   1.00
C19    C     0.21694   0.53713   0.34286   0.00000  Uiso   1.00
C20    C     0.20764   0.54897   0.27771   0.00000  Uiso   1.00
C21    C     0.05702   0.65276   0.56073   0.00000  Uiso   1.00
C22    C     0.99792   0.62086   0.60122   0.00000  Uiso   1.00
C23    C     0.88843   0.67099   0.65422   0.00000  Uiso   1.00
H24    H     0.05053   0.81595   0.53155   0.00000  Uiso   1.00
H25    H     0.19589   0.86696   0.58635   0.00000  Uiso   1.00
H26    H     0.08055   0.75964   0.37665   0.00000  Uiso   1.00
H27    H     0.86156   0.84336   0.63497   0.00000  Uiso   1.00
H28    H     0.37848   0.88860   0.64178   0.00000  Uiso   1.00
H29    H     0.13524   0.66231   0.19961   0.00000  Uiso   1.00
H30    H     0.67345   0.83885   0.74433   0.00000  Uiso   1.00
H31    H     0.21541   0.54694   0.49073   0.00000  Uiso   1.00
H32    H     0.36982   0.58320   0.54330   0.00000  Uiso   1.00
H33    H     0.25448   0.47588   0.33359   0.00000  Uiso   1.00
H34    H     0.03549   0.55960   0.59191   0.00000  Uiso   1.00
H35    H     0.51965   0.65828   0.60683   0.00000  Uiso   1.00
H36    H     0.27640   0.43200   0.16466   0.00000  Uiso   1.00
H37    H     0.81462   0.60854   0.70938   0.00000  Uiso   1.00
O38    O     0.54769   0.80213   0.65960   0.00000  Uiso   1.00
O39    O     0.22855   0.50525   0.07949   0.00000  Uiso   1.00
O40    O     0.62270   0.73687   0.79415   0.00000  Uiso   1.00
N41    N     0.39050   0.82942   0.62636   0.00000  Uiso   1.00
N42    N     0.16310   0.61786   0.21295   0.00000  Uiso   1.00
N43    N     0.73136   0.78290   0.72221   0.00000  Uiso   1.00
N44    N     0.46646   0.70549   0.60755   0.00000  Uiso   1.00
N45    N     0.23906   0.49393   0.19415   0.00000  Uiso   1.00
N46    N     0.80732   0.65897   0.70340   0.00000  Uiso   1.00
C47    C     0.61072   0.47808   0.23207   0.00000  Uiso   1.00
C48    C     0.73670   0.45415   0.19824   0.00000  Uiso   1.00
C49    C     0.81051   0.42347   0.22832   0.00000  Uiso   1.00
C50    C     0.92258   0.40531   0.18888   0.00000  Uiso   1.00
C51    C     0.11257   0.36635   0.14660   0.00000  Uiso   1.00
C52    C     0.56039   0.56796   0.25401   0.00000  Uiso   1.00
C53    C     0.48595   0.63296   0.33098   0.00000  Uiso   1.00
C54    C     0.44959   0.71061   0.33848   0.00000  Uiso   1.00
C55    C     0.36580   0.84832   0.38276   0.00000  Uiso   1.00
C56    C     0.58153   0.42743   0.15929   0.00000  Uiso   1.00
C57    C     0.52484   0.37430   0.15663   0.00000  Uiso   1.00
C58    C     0.50626   0.33365   0.08440   0.00000  Uiso   1.00
C59    C     0.45529   0.25318   0.98162   0.00000  Uiso   1.00
C60    C     0.67849   0.50039   0.10853   0.00000  Uiso   1.00
C61    C     0.77350   0.46627   0.13114   0.00000  Uiso   1.00
C62    C     0.88549   0.44815   0.09164   0.00000  Uiso   1.00
C63    C     0.95945   0.41745   0.12166   0.00000  Uiso   1.00
C64    C     0.59719   0.58007   0.18691   0.00000  Uiso   1.00
C65    C     0.56093   0.65764   0.19430   0.00000  Uiso   1.00
C66    C     0.48647   0.72275   0.27126   0.00000  Uiso   1.00
C67    C     0.61834   0.43955   0.09219   0.00000  Uiso   1.00
C68    C     0.59983   0.39898   0.01995   0.00000  Uiso   1.00
C69    C     0.54313   0.34579   0.01718   0.00000  Uiso   1.00
H70    H     0.58206   0.46865   0.28431   0.00000  Uiso   1.00
H71    H     0.78199   0.41411   0.28026   0.00000  Uiso   1.00
H72    H     0.45748   0.62357   0.38289   0.00000  Uiso   1.00
H73    H     0.49637   0.36494   0.20857   0.00000  Uiso   1.00
H74    H     0.01988   0.35901   0.24619   0.00000  Uiso   1.00
H75    H     0.33559   0.80066   0.46260   0.00000  Uiso   1.00
H76    H     0.41759   0.25530   0.09501   0.00000  Uiso   1.00
H77    H     0.70714   0.50982   0.05629   0.00000  Uiso   1.00
H78    H     0.91395   0.45753   0.03972   0.00000  Uiso   1.00
H79    H     0.58943   0.66699   0.14236   0.00000  Uiso   1.00
H80    H     0.62832   0.40837   0.96804   0.00000  Uiso   1.00
H81    H     0.12697   0.39426   0.05096   0.00000  Uiso   1.00
H82    H     0.44268   0.83591   0.26737   0.00000  Uiso   1.00
H83    H     0.52469   0.29055   0.89978   0.00000  Uiso   1.00
O84    O     0.20720   0.34152   0.14181   0.00000  Uiso   1.00
O85    O     0.30943   0.92094   0.42572   0.00000  Uiso   1.00
O86    O     0.41703   0.20544   0.94346   0.00000  Uiso   1.00
N87    N     0.01670   0.37446   0.20251   0.00000  Uiso   1.00
N88    N     0.37695   0.78738   0.40484   0.00000  Uiso   1.00
N89    N     0.45359   0.27754   0.06118   0.00000  Uiso   1.00
N90    N     0.07433   0.39343   0.09746   0.00000  Uiso   1.00
N91    N     0.43458   0.80635   0.29979   0.00000  Uiso   1.00
N92    N     0.51122   0.29650   0.95613   0.00000  Uiso   1.00
C93    C     0.84293   0.76819   0.24576   0.00000  Uiso   1.00
C94    C     0.93518   0.80223   0.25550   0.00000  Uiso   1.00
C95    C     0.03917   0.77229   0.19469   0.00000  Uiso   1.00
C96    C     0.11188   0.81191   0.21583   0.00000  Uiso   1.00
C97    C     0.25974   0.85453   0.21892   0.00000  Uiso   1.00
C98    C     0.81419   0.74615   0.31364   0.00000  Uiso   1.00
C99    C     0.81644   0.66906   0.30171   0.00000  Uiso   1.00
C100   C     0.78729   0.66148   0.37180   0.00000  Uiso   1.00
C101   C     0.74724   0.61703   0.46516   0.00000  Uiso   1.00
C102   C     0.74120   0.84090   0.26798   0.00000  Uiso   1.00
C103   C     0.68206   0.84348   0.21767   0.00000  Uiso   1.00
C104   C     0.59144   0.91567   0.24931   0.00000  Uiso   1.00
C105   C     0.43806   0.01834   0.27178   0.00000  Uiso   1.00
C106   C     0.78714   0.89179   0.39143   0.00000  Uiso   1.00
C107   C     0.90487   0.86936   0.33462   0.00000  Uiso   1.00
C108   C     0.97743   0.90904   0.35586   0.00000  Uiso   1.00
C109   C     0.08151   0.87917   0.29509   0.00000  Uiso   1.00
C110   C     0.78388   0.81328   0.39276   0.00000  Uiso   1.00
C111   C     0.75471   0.80581   0.46288   0.00000  Uiso   1.00
C112   C     0.75693   0.72873   0.45106   0.00000  Uiso   1.00
C113   C     0.71089   0.90804   0.34710   0.00000  Uiso   1.00
C114   C     0.62034   0.98023   0.37883   0.00000  Uiso   1.00
C115   C     0.56107   0.98292   0.32858   0.00000  Uiso   1.00
H116   H     0.86652   0.71592   0.18417   0.00000  Uiso   1.00
H117   H     0.06259   0.72033   0.13347   0.00000  Uiso   1.00
H118   H     0.83989   0.61712   0.24048   0.00000  Uiso   1.00
H119   H     0.70554   0.79151   0.15645   0.00000  Uiso   1.00
H120   H     0.26662   0.75481   0.11217   0.00000  Uiso   1.00
H121   H     0.79700   0.53718   0.33780   0.00000  Uiso   1.00
H122   H     0.51369   0.90493   0.16060   0.00000  Uiso   1.00
H123   H     0.76354   0.94406   0.45303   0.00000  Uiso   1.00
H124   H     0.95396   0.96099   0.41709   0.00000  Uiso   1.00
H125   H     0.73126   0.85778   0.52409   0.00000  Uiso   1.00
H126   H     0.59691   0.03217   0.44006   0.00000  Uiso   1.00
H127   H     0.17845   0.95013   0.34236   0.00000  Uiso   1.00
H128   H     0.70883   0.73251   0.56799   0.00000  Uiso   1.00
H129   H     0.42552   0.10025   0.39079   0.00000  Uiso   1.00
O130   O     0.34967   0.85948   0.19878   0.00000  Uiso   1.00
O131   O     0.73353   0.57396   0.49479   0.00000  Uiso   1.00
O132   O     0.36184   0.05643   0.26231   0.00000  Uiso   1.00
N133   N     0.21973   0.79847   0.17127   0.00000  Uiso   1.00
N134   N     0.78068   0.59500   0.38222   0.00000  Uiso   1.00
N135   N     0.51579   0.93880   0.21656   0.00000  Uiso   1.00
N136   N     0.17229   0.90357   0.29514   0.00000  Uiso   1.00
N137   N     0.73324   0.70010   0.50609   0.00000  Uiso   1.00
N138   N     0.46835   0.04390   0.34043   0.00000  Uiso   1.00
C139   C     0.91170   0.24568   0.47779   0.00000  Uiso   1.00
C140   C     0.80986   0.25526   0.45367   0.00000  Uiso   1.00
C141   C     0.76654   0.19429   0.42293   0.00000  Uiso   1.00
C142   C     0.67286   0.21531   0.40460   0.00000  Uiso   1.00
C143   C     0.52208   0.21816   0.36536   0.00000  Uiso   1.00
C144   C     0.87251   0.31357   0.56762   0.00000  Uiso   1.00
C145   C     0.88189   0.30162   0.63267   0.00000  Uiso   1.00
C146   C     0.84096   0.37173   0.71026   0.00000  Uiso   1.00
C147   C     0.78753   0.46511   0.84790   0.00000  Uiso   1.00
C148   C     0.99149   0.26808   0.42726   0.00000  Uiso   1.00
C149   C     0.10092   0.21789   0.37431   0.00000  Uiso   1.00
C150   C     0.16018   0.24970   0.33374   0.00000  Uiso   1.00
C151   C     0.29148   0.27245   0.25346   0.00000  Uiso   1.00
C152   C     0.82237   0.39142   0.49991   0.00000  Uiso   1.00
C153   C     0.76134   0.33443   0.46569   0.00000  Uiso   1.00
C154   C     0.66771   0.35554   0.44740   0.00000  Uiso   1.00
C155   C     0.62426   0.29461   0.41663   0.00000  Uiso   1.00
C156   C     0.82400   0.39273   0.57963   0.00000  Uiso   1.00
C157   C     0.78306   0.46287   0.65714   0.00000  Uiso   1.00
C158   C     0.79236   0.45103   0.72229   0.00000  Uiso   1.00
C159   C     0.94298   0.34724   0.43927   0.00000  Uiso   1.00
C160   C     0.00208   0.37914   0.39878   0.00000  Uiso   1.00
C161   C     0.11157   0.32901   0.34578   0.00000  Uiso   1.00
H162   H     0.94947   0.18405   0.46845   0.00000  Uiso   1.00
H163   H     0.80411   0.13304   0.41365   0.00000  Uiso   1.00
H164   H     0.91945   0.24036   0.62335   0.00000  Uiso   1.00
H165   H     0.13844   0.15664   0.36503   0.00000  Uiso   1.00
H166   H     0.62152   0.11140   0.35822   0.00000  Uiso   1.00
H167   H     0.86476   0.33769   0.80039   0.00000  Uiso   1.00
H168   H     0.32655   0.16115   0.25567   0.00000  Uiso   1.00
H169   H     0.78459   0.45306   0.50927   0.00000  Uiso   1.00
H170   H     0.63018   0.41680   0.45670   0.00000  Uiso   1.00
H171   H     0.74552   0.52412   0.66641   0.00000  Uiso   1.00
H172   H     0.96451   0.44040   0.40809   0.00000  Uiso   1.00
H173   H     0.48035   0.34172   0.39317   0.00000  Uiso   1.00
H174   H     0.72360   0.56801   0.83534   0.00000  Uiso   1.00
H175   H     0.18538   0.39146   0.29062   0.00000  Uiso   1.00
O176   O     0.45231   0.19787   0.34040   0.00000  Uiso   1.00
O177   O     0.77145   0.49475   0.92051   0.00000  Uiso   1.00
O178   O     0.37730   0.26313   0.20585   0.00000  Uiso   1.00
N179   N     0.60950   0.17058   0.37364   0.00000  Uiso   1.00
N180   N     0.83690   0.38214   0.78705   0.00000  Uiso   1.00
N181   N     0.26864   0.21710   0.27779   0.00000  Uiso   1.00
N182   N     0.53354   0.29451   0.39245   0.00000  Uiso   1.00
N183   N     0.76094   0.50607   0.80585   0.00000  Uiso   1.00
N184   N     0.19268   0.34103   0.29660   0.00000  Uiso   1.00
C185   C     0.38928   0.52192   0.76794   0.00000  Uiso   1.00
C186   C     0.26330   0.54585   0.80176   0.00000  Uiso   1.00
C187   C     0.18949   0.57653   0.77168   0.00000  Uiso   1.00
C188   C     0.07742   0.59469   0.81112   0.00000  Uiso   1.00
C189   C     0.88743   0.63365   0.85341   0.00000  Uiso   1.00
C190   C     0.43961   0.43204   0.74599   0.00000  Uiso   1.00
C191   C     0.51405   0.36704   0.66902   0.00000  Uiso   1.00
C192   C     0.55041   0.28939   0.66152   0.00000  Uiso   1.00
C193   C     0.63420   0.15168   0.61724   0.00000  Uiso   1.00
C194   C     0.41847   0.57257   0.84071   0.00000  Uiso   1.00
C195   C     0.47516   0.62570   0.84337   0.00000  Uiso   1.00
C196   C     0.49374   0.66635   0.91560   0.00000  Uiso   1.00
C197   C     0.54471   0.74682   0.01838   0.00000  Uiso   1.00
C198   C     0.32151   0.49961   0.89147   0.00000  Uiso   1.00
C199   C     0.22650   0.53373   0.86886   0.00000  Uiso   1.00
C200   C     0.11451   0.55185   0.90836   0.00000  Uiso   1.00
C201   C     0.04055   0.58255   0.87834   0.00000  Uiso   1.00
C202   C     0.40281   0.41993   0.81309   0.00000  Uiso   1.00
C203   C     0.43907   0.34236   0.80570   0.00000  Uiso   1.00
C204   C     0.51354   0.27725   0.72874   0.00000  Uiso   1.00
C205   C     0.38166   0.56045   0.90781   0.00000  Uiso   1.00
C206   C     0.40018   0.60102   0.98005   0.00000  Uiso   1.00
C207   C     0.45687   0.65421   0.98282   0.00000  Uiso   1.00
H208   H     0.41794   0.53135   0.71569   0.00000  Uiso   1.00
H209   H     0.21801   0.58589   0.71974   0.00000  Uiso   1.00
H210   H     0.54252   0.37643   0.61711   0.00000  Uiso   1.00
H211   H     0.50363   0.63506   0.79143   0.00000  Uiso   1.00
H212   H     0.98012   0.64099   0.75381   0.00000  Uiso   1.00
H213   H     0.66441   0.19934   0.53740   0.00000  Uiso   1.00
H214   H     0.58241   0.74470   0.90499   0.00000  Uiso   1.00
H215   H     0.29286   0.49018   0.94372   0.00000  Uiso   1.00
H216   H     0.08605   0.54247   0.96028   0.00000  Uiso   1.00
H217   H     0.41057   0.33301   0.85764   0.00000  Uiso   1.00
H218   H     0.37168   0.59163   0.03196   0.00000  Uiso   1.00
H219   H     0.87303   0.60574   0.94904   0.00000  Uiso   1.00
H220   H     0.55732   0.16409   0.73263   0.00000  Uiso   1.00
H221   H     0.47531   0.70945   0.10022   0.00000  Uiso   1.00
O222   O     0.79280   0.65848   0.85819   0.00000  Uiso   1.00
O223   O     0.69057   0.07906   0.57428   0.00000  Uiso   1.00
O224   O     0.58297   0.79456   0.05654   0.00000  Uiso   1.00
N225   N     0.98330   0.62554   0.79749   0.00000  Uiso   1.00
N226   N     0.62305   0.21262   0.59516   0.00000  Uiso   1.00
N227   N     0.54641   0.72246   0.93882   0.00000  Uiso   1.00
N228   N     0.92567   0.60657   0.90254   0.00000  Uiso   1.00
N229   N     0.56542   0.19365   0.70021   0.00000  Uiso   1.00
N230   N     0.48878   0.70350   0.04387   0.00000  Uiso   1.00
C231   C     0.15707   0.23181   0.75424   0.00000  Uiso   1.00
C232   C     0.06483   0.19777   0.74450   0.00000  Uiso   1.00
C233   C     0.96083   0.22771   0.80531   0.00000  Uiso   1.00
C234   C     0.88812   0.18809   0.78417   0.00000  Uiso   1.00
C235   C     0.74026   0.14547   0.78108   0.00000  Uiso   1.00
C236   C     0.18581   0.25385   0.68636   0.00000  Uiso   1.00
C237   C     0.18356   0.33094   0.69829   0.00000  Uiso   1.00
C238   C     0.21271   0.33852   0.62820   0.00000  Uiso   1.00
C239   C     0.25276   0.38297   0.53484   0.00000  Uiso   1.00
C240   C     0.25880   0.15910   0.73202   0.00000  Uiso   1.00
C241   C     0.31794   0.15652   0.78233   0.00000  Uiso   1.00
C242   C     0.40856   0.08433   0.75069   0.00000  Uiso   1.00
C243   C     0.56194   0.98166   0.72822   0.00000  Uiso   1.00
C244   C     0.21287   0.10821   0.60857   0.00000  Uiso   1.00
C245   C     0.09513   0.13064   0.66538   0.00000  Uiso   1.00
C246   C     0.02257   0.09096   0.64414   0.00000  Uiso   1.00
C247   C     0.91849   0.12083   0.70491   0.00000  Uiso   1.00
C248   C     0.21612   0.18672   0.60724   0.00000  Uiso   1.00
C249   C     0.24529   0.19419   0.53713   0.00000  Uiso   1.00
C250   C     0.24307   0.27127   0.54894   0.00000  Uiso   1.00
C251   C     0.28911   0.09196   0.65290   0.00000  Uiso   1.00
C252   C     0.37966   0.01977   0.62117   0.00000  Uiso   1.00
C253   C     0.43893   0.01708   0.67142   0.00000  Uiso   1.00
H254   H     0.13348   0.28408   0.81583   0.00000  Uiso   1.00
H255   H     0.93741   0.27967   0.86653   0.00000  Uiso   1.00
H256   H     0.16011   0.38288   0.75952   0.00000  Uiso   1.00
H257   H     0.29446   0.20849   0.84356   0.00000  Uiso   1.00
H258   H     0.73338   0.24519   0.88783   0.00000  Uiso   1.00
H259   H     0.20300   0.46282   0.66220   0.00000  Uiso   1.00
H260   H     0.48631   0.09507   0.83940   0.00000  Uiso   1.00
H261   H     0.23646   0.05594   0.54697   0.00000  Uiso   1.00
H262   H     0.04604   0.03901   0.58291   0.00000  Uiso   1.00
H263   H     0.26874   0.14222   0.47591   0.00000  Uiso   1.00
H264   H     0.40309   0.96783   0.55994   0.00000  Uiso   1.00
H265   H     0.82155   0.04987   0.65764   0.00000  Uiso   1.00
H266   H     0.29117   0.26749   0.43201   0.00000  Uiso   1.00
H267   H     0.57448   0.89975   0.60921   0.00000  Uiso   1.00
O268   O     0.65033   0.14052   0.80122   0.00000  Uiso   1.00
O269   O     0.26647   0.42604   0.50521   0.00000  Uiso   1.00
O270   O     0.63816   0.94357   0.73769   0.00000  Uiso   1.00
N271   N     0.78027   0.20153   0.82873   0.00000  Uiso   1.00
N272   N     0.21932   0.40500   0.61778   0.00000  Uiso   1.00
N273   N     0.48421   0.06120   0.78344   0.00000  Uiso   1.00
N274   N     0.82771   0.09643   0.70486   0.00000  Uiso   1.00
N275   N     0.26676   0.29990   0.49391   0.00000  Uiso   1.00
N276   N     0.53165   0.95610   0.65957   0.00000  Uiso   1.00
