data_job_05900
_audit_creation_date              2018-12-19
_audit_creation_method            'Materials Studio'
_symmetry_space_group_name_H-M    'P1'
_symmetry_Int_Tables_number       1
_symmetry_cell_setting            triclinic
loop_
_symmetry_equiv_pos_as_xyz
  x,y,z
_cell_length_a                    15.6881
_cell_length_b                    15.6881
_cell_length_c                    17.5954
_cell_angle_alpha                 90.0000
_cell_angle_beta                  90.0000
_cell_angle_gamma                 120.0000
loop_
_atom_site_label
_atom_site_type_symbol
_atom_site_fract_x
_atom_site_fract_y
_atom_site_fract_z
_atom_site_U_iso_or_equiv
_atom_site_adp_type
_atom_site_occupancy
C1     C     0.84069   0.54812   0.18426   0.00000  Uiso   1.00
C2     C     0.87869   0.61391   0.11419   0.00000  Uiso   1.00
C3     C     0.97691   0.67506   0.09537   0.00000  Uiso   1.00
C4     C     0.99648   0.72937   0.02887   0.00000  Uiso   1.00
C5     C     0.06705   0.83259   0.92709   0.00000  Uiso   1.00
C6     C     0.77430   0.57791   0.22584   0.00000  Uiso   1.00
C7     C     0.78474   0.60879   0.30089   0.00000  Uiso   1.00
C8     C     0.71643   0.63278   0.32838   0.00000  Uiso   1.00
C9     C     0.62488   0.68004   0.39995   0.00000  Uiso   1.00
C10    C     0.77321   0.44411   0.15475   0.00000  Uiso   1.00
C11    C     0.78271   0.36246   0.17005   0.00000  Uiso   1.00
C12    C     0.71345   0.27380   0.13771   0.00000  Uiso   1.00
C13    C     0.62021   0.11331   0.09891   0.00000  Uiso   1.00
C14    C     0.70080   0.53582   0.09963   0.00000  Uiso   1.00
C15    C     0.80271   0.60723   0.06822   0.00000  Uiso   1.00
C16    C     0.82213   0.66146   0.00174   0.00000  Uiso   1.00
C17    C     0.92036   0.72268   0.98282   0.00000  Uiso   1.00
C18    C     0.69832   0.57124   0.17988   0.00000  Uiso   1.00
C19    C     0.62997   0.59519   0.20726   0.00000  Uiso   1.00
C20    C     0.64030   0.62609   0.28234   0.00000  Uiso   1.00
C21    C     0.69722   0.43743   0.10878   0.00000  Uiso   1.00
C22    C     0.62794   0.34887   0.07642   0.00000  Uiso   1.00
C23    C     0.63733   0.26711   0.09166   0.00000  Uiso   1.00
H24    H     0.89984   0.55331   0.22005   0.00000  Uiso   1.00
H25    H     0.03569   0.68022   0.13096   0.00000  Uiso   1.00
H26    H     0.84354   0.61394   0.33645   0.00000  Uiso   1.00
H27    H     0.84152   0.36766   0.20563   0.00000  Uiso   1.00
H28    H     0.15279   0.81799   0.01193   0.00000  Uiso   1.00
H29    H     0.74763   0.67821   0.44523   0.00000  Uiso   1.00
H30    H     0.74335   0.15888   0.16937   0.00000  Uiso   1.00
H31    H     0.64164   0.53062   0.06384   0.00000  Uiso   1.00
H32    H     0.76332   0.65628   0.96618   0.00000  Uiso   1.00
H33    H     0.57117   0.59001   0.17168   0.00000  Uiso   1.00
H34    H     0.56915   0.34373   0.04085   0.00000  Uiso   1.00
H35    H     0.93172   0.79857   0.87819   0.00000  Uiso   1.00
H36    H     0.52656   0.65878   0.31150   0.00000  Uiso   1.00
H37    H     0.52228   0.13946   0.03563   0.00000  Uiso   1.00
O38    O     0.12696   0.89137   0.88365   0.00000  Uiso   1.00
O39    O     0.59539   0.70797   0.45213   0.00000  Uiso   1.00
O40    O     0.58978   0.02663   0.09019   0.00000  Uiso   1.00
N41    N     0.08406   0.79616   0.99385   0.00000  Uiso   1.00
N42    N     0.70527   0.66549   0.39896   0.00000  Uiso   1.00
N43    N     0.70125   0.17995   0.14106   0.00000  Uiso   1.00
N44    N     0.96511   0.78571   0.92189   0.00000  Uiso   1.00
N45    N     0.58631   0.65504   0.32700   0.00000  Uiso   1.00
N46    N     0.58230   0.16950   0.06910   0.00000  Uiso   1.00
C47    C     0.45188   0.29257   0.85092   0.00000  Uiso   1.00
C48    C     0.38609   0.26478   0.78085   0.00000  Uiso   1.00
C49    C     0.32494   0.30185   0.76203   0.00000  Uiso   1.00
C50    C     0.27063   0.26711   0.69554   0.00000  Uiso   1.00
C51    C     0.16741   0.23446   0.59375   0.00000  Uiso   1.00
C52    C     0.42209   0.19639   0.89250   0.00000  Uiso   1.00
C53    C     0.39121   0.17596   0.96756   0.00000  Uiso   1.00
C54    C     0.36722   0.08364   0.99505   0.00000  Uiso   1.00
C55    C     0.31996   0.94484   0.06662   0.00000  Uiso   1.00
C56    C     0.55589   0.32910   0.82142   0.00000  Uiso   1.00
C57    C     0.63754   0.42024   0.83672   0.00000  Uiso   1.00
C58    C     0.72620   0.43966   0.80438   0.00000  Uiso   1.00
C59    C     0.88669   0.50691   0.76557   0.00000  Uiso   1.00
C60    C     0.46418   0.16497   0.76630   0.00000  Uiso   1.00
C61    C     0.39277   0.19547   0.73489   0.00000  Uiso   1.00
C62    C     0.33854   0.16067   0.66840   0.00000  Uiso   1.00
C63    C     0.27732   0.19768   0.64949   0.00000  Uiso   1.00
C64    C     0.42876   0.12708   0.84654   0.00000  Uiso   1.00
C65    C     0.40481   0.03478   0.87393   0.00000  Uiso   1.00
C66    C     0.37391   0.01421   0.94900   0.00000  Uiso   1.00
C67    C     0.56257   0.25979   0.77545   0.00000  Uiso   1.00
C68    C     0.65113   0.27907   0.74308   0.00000  Uiso   1.00
C69    C     0.73289   0.37022   0.75833   0.00000  Uiso   1.00
H70    H     0.44669   0.34653   0.88671   0.00000  Uiso   1.00
H71    H     0.31978   0.35547   0.79763   0.00000  Uiso   1.00
H72    H     0.38606   0.22961   0.00312   0.00000  Uiso   1.00
H73    H     0.63234   0.47386   0.87229   0.00000  Uiso   1.00
H74    H     0.18201   0.33480   0.67860   0.00000  Uiso   1.00
H75    H     0.32179   0.06942   0.11190   0.00000  Uiso   1.00
H76    H     0.84112   0.58446   0.83603   0.00000  Uiso   1.00
H77    H     0.46938   0.11101   0.73051   0.00000  Uiso   1.00
H78    H     0.34372   0.10704   0.63284   0.00000  Uiso   1.00
H79    H     0.40999   0.98117   0.83834   0.00000  Uiso   1.00
H80    H     0.65627   0.22542   0.70752   0.00000  Uiso   1.00
H81    H     0.20143   0.13315   0.54486   0.00000  Uiso   1.00
H82    H     0.34122   0.86777   0.97817   0.00000  Uiso   1.00
H83    H     0.86054   0.38282   0.70229   0.00000  Uiso   1.00
O84    O     0.10863   0.23559   0.55031   0.00000  Uiso   1.00
O85    O     0.29203   0.88743   0.11880   0.00000  Uiso   1.00
O86    O     0.97337   0.56315   0.75686   0.00000  Uiso   1.00
N87    N     0.20384   0.28790   0.66052   0.00000  Uiso   1.00
N88    N     0.33451   0.03978   0.06563   0.00000  Uiso   1.00
N89    N     0.82005   0.52130   0.80773   0.00000  Uiso   1.00
N90    N     0.21429   0.17940   0.58855   0.00000  Uiso   1.00
N91    N     0.34496   0.93128   0.99366   0.00000  Uiso   1.00
N92    N     0.83050   0.41279   0.73577   0.00000  Uiso   1.00
C93    C     0.70743   0.15931   0.51759   0.00000  Uiso   1.00
C94    C     0.73522   0.12131   0.44752   0.00000  Uiso   1.00
C95    C     0.69815   0.02309   0.42870   0.00000  Uiso   1.00
C96    C     0.73289   0.00352   0.36220   0.00000  Uiso   1.00
C97    C     0.76554   0.93295   0.26042   0.00000  Uiso   1.00
C98    C     0.80361   0.22570   0.55917   0.00000  Uiso   1.00
C99    C     0.82404   0.21526   0.63423   0.00000  Uiso   1.00
C100   C     0.91636   0.28357   0.66172   0.00000  Uiso   1.00
C101   C     0.05516   0.37512   0.73329   0.00000  Uiso   1.00
C102   C     0.67090   0.22679   0.48809   0.00000  Uiso   1.00
C103   C     0.57976   0.21729   0.50339   0.00000  Uiso   1.00
C104   C     0.56034   0.28655   0.47104   0.00000  Uiso   1.00
C105   C     0.49309   0.37979   0.43224   0.00000  Uiso   1.00
C106   C     0.83503   0.29920   0.43296   0.00000  Uiso   1.00
C107   C     0.80453   0.19729   0.40156   0.00000  Uiso   1.00
C108   C     0.83933   0.17787   0.33507   0.00000  Uiso   1.00
C109   C     0.80232   0.07964   0.31615   0.00000  Uiso   1.00
C110   C     0.87292   0.30168   0.51321   0.00000  Uiso   1.00
C111   C     0.96522   0.37003   0.54060   0.00000  Uiso   1.00
C112   C     0.98579   0.35970   0.61567   0.00000  Uiso   1.00
C113   C     0.74021   0.30278   0.44212   0.00000  Uiso   1.00
C114   C     0.72093   0.37206   0.40975   0.00000  Uiso   1.00
C115   C     0.62978   0.36267   0.42500   0.00000  Uiso   1.00
H116   H     0.65347   0.10016   0.55338   0.00000  Uiso   1.00
H117   H     0.64453   0.96431   0.46429   0.00000  Uiso   1.00
H118   H     0.77039   0.15646   0.66979   0.00000  Uiso   1.00
H119   H     0.52614   0.15848   0.53896   0.00000  Uiso   1.00
H120   H     0.66520   0.84721   0.34526   0.00000  Uiso   1.00
H121   H     0.93058   0.25237   0.77857   0.00000  Uiso   1.00
H122   H     0.41554   0.25665   0.50270   0.00000  Uiso   1.00
H123   H     0.88899   0.35836   0.39718   0.00000  Uiso   1.00
H124   H     0.89296   0.23668   0.29951   0.00000  Uiso   1.00
H125   H     0.01883   0.42883   0.50501   0.00000  Uiso   1.00
H126   H     0.77458   0.43085   0.37418   0.00000  Uiso   1.00
H127   H     0.86685   0.06828   0.21152   0.00000  Uiso   1.00
H128   H     0.13223   0.47344   0.64483   0.00000  Uiso   1.00
H129   H     0.61718   0.47772   0.36896   0.00000  Uiso   1.00
O130   O     0.76441   0.87304   0.21698   0.00000  Uiso   1.00
O131   O     0.11257   0.40461   0.78546   0.00000  Uiso   1.00
O132   O     0.43685   0.41022   0.42353   0.00000  Uiso   1.00
N133   N     0.71210   0.91594   0.32718   0.00000  Uiso   1.00
N134   N     0.96022   0.29473   0.73229   0.00000  Uiso   1.00
N135   N     0.47870   0.29875   0.47440   0.00000  Uiso   1.00
N136   N     0.82060   0.03489   0.25522   0.00000  Uiso   1.00
N137   N     0.06872   0.41369   0.66033   0.00000  Uiso   1.00
N138   N     0.58721   0.41770   0.40243   0.00000  Uiso   1.00
C139   C     0.54812   0.84069   0.81574   0.00000  Uiso   1.00
C140   C     0.61391   0.87869   0.88581   0.00000  Uiso   1.00
C141   C     0.67506   0.97691   0.90463   0.00000  Uiso   1.00
C142   C     0.72937   0.99648   0.97113   0.00000  Uiso   1.00
C143   C     0.83259   0.06705   0.07291   0.00000  Uiso   1.00
C144   C     0.57791   0.77430   0.77416   0.00000  Uiso   1.00
C145   C     0.60879   0.78474   0.69911   0.00000  Uiso   1.00
C146   C     0.63278   0.71643   0.67162   0.00000  Uiso   1.00
C147   C     0.68004   0.62488   0.60005   0.00000  Uiso   1.00
C148   C     0.44411   0.77321   0.84525   0.00000  Uiso   1.00
C149   C     0.36246   0.78271   0.82995   0.00000  Uiso   1.00
C150   C     0.27380   0.71345   0.86229   0.00000  Uiso   1.00
C151   C     0.11331   0.62021   0.90109   0.00000  Uiso   1.00
C152   C     0.53582   0.70080   0.90037   0.00000  Uiso   1.00
C153   C     0.60723   0.80271   0.93178   0.00000  Uiso   1.00
C154   C     0.66146   0.82213   0.99826   0.00000  Uiso   1.00
C155   C     0.72268   0.92036   0.01718   0.00000  Uiso   1.00
C156   C     0.57124   0.69832   0.82012   0.00000  Uiso   1.00
C157   C     0.59519   0.62997   0.79274   0.00000  Uiso   1.00
C158   C     0.62609   0.64030   0.71766   0.00000  Uiso   1.00
C159   C     0.43743   0.69722   0.89122   0.00000  Uiso   1.00
C160   C     0.34887   0.62794   0.92358   0.00000  Uiso   1.00
C161   C     0.26711   0.63733   0.90834   0.00000  Uiso   1.00
H162   H     0.55331   0.89984   0.77995   0.00000  Uiso   1.00
H163   H     0.68022   0.03569   0.86904   0.00000  Uiso   1.00
H164   H     0.61394   0.84354   0.66355   0.00000  Uiso   1.00
H165   H     0.36766   0.84152   0.79437   0.00000  Uiso   1.00
H166   H     0.81799   0.15279   0.98807   0.00000  Uiso   1.00
H167   H     0.67821   0.74763   0.55477   0.00000  Uiso   1.00
H168   H     0.15888   0.74335   0.83063   0.00000  Uiso   1.00
H169   H     0.53062   0.64164   0.93616   0.00000  Uiso   1.00
H170   H     0.65628   0.76332   0.03382   0.00000  Uiso   1.00
H171   H     0.59001   0.57117   0.82832   0.00000  Uiso   1.00
H172   H     0.34373   0.56915   0.95915   0.00000  Uiso   1.00
H173   H     0.79857   0.93172   0.12181   0.00000  Uiso   1.00
H174   H     0.65878   0.52656   0.68850   0.00000  Uiso   1.00
H175   H     0.13946   0.52228   0.96437   0.00000  Uiso   1.00
O176   O     0.89137   0.12696   0.11635   0.00000  Uiso   1.00
O177   O     0.70797   0.59539   0.54787   0.00000  Uiso   1.00
O178   O     0.02663   0.58978   0.90981   0.00000  Uiso   1.00
N179   N     0.79616   0.08406   0.00615   0.00000  Uiso   1.00
N180   N     0.66549   0.70527   0.60104   0.00000  Uiso   1.00
N181   N     0.17995   0.70125   0.85894   0.00000  Uiso   1.00
N182   N     0.78571   0.96511   0.07811   0.00000  Uiso   1.00
N183   N     0.65504   0.58631   0.67300   0.00000  Uiso   1.00
N184   N     0.16950   0.58230   0.93090   0.00000  Uiso   1.00
C185   C     0.29257   0.45188   0.14908   0.00000  Uiso   1.00
C186   C     0.26478   0.38609   0.21915   0.00000  Uiso   1.00
C187   C     0.30185   0.32494   0.23797   0.00000  Uiso   1.00
C188   C     0.26711   0.27063   0.30446   0.00000  Uiso   1.00
C189   C     0.23446   0.16741   0.40625   0.00000  Uiso   1.00
C190   C     0.19639   0.42209   0.10750   0.00000  Uiso   1.00
C191   C     0.17596   0.39121   0.03244   0.00000  Uiso   1.00
C192   C     0.08364   0.36722   0.00495   0.00000  Uiso   1.00
C193   C     0.94484   0.31996   0.93338   0.00000  Uiso   1.00
C194   C     0.32910   0.55589   0.17858   0.00000  Uiso   1.00
C195   C     0.42024   0.63754   0.16328   0.00000  Uiso   1.00
C196   C     0.43966   0.72620   0.19562   0.00000  Uiso   1.00
C197   C     0.50691   0.88669   0.23443   0.00000  Uiso   1.00
C198   C     0.16497   0.46418   0.23370   0.00000  Uiso   1.00
C199   C     0.19547   0.39277   0.26511   0.00000  Uiso   1.00
C200   C     0.16067   0.33854   0.33160   0.00000  Uiso   1.00
C201   C     0.19768   0.27732   0.35051   0.00000  Uiso   1.00
C202   C     0.12708   0.42876   0.15346   0.00000  Uiso   1.00
C203   C     0.03478   0.40481   0.12607   0.00000  Uiso   1.00
C204   C     0.01421   0.37391   0.05100   0.00000  Uiso   1.00
C205   C     0.25979   0.56257   0.22455   0.00000  Uiso   1.00
C206   C     0.27907   0.65113   0.25692   0.00000  Uiso   1.00
C207   C     0.37022   0.73289   0.24167   0.00000  Uiso   1.00
H208   H     0.34653   0.44669   0.11329   0.00000  Uiso   1.00
H209   H     0.35547   0.31978   0.20237   0.00000  Uiso   1.00
H210   H     0.22961   0.38606   0.99688   0.00000  Uiso   1.00
H211   H     0.47386   0.63234   0.12771   0.00000  Uiso   1.00
H212   H     0.33480   0.18201   0.32140   0.00000  Uiso   1.00
H213   H     0.06942   0.32179   0.88810   0.00000  Uiso   1.00
H214   H     0.58446   0.84112   0.16397   0.00000  Uiso   1.00
H215   H     0.11101   0.46938   0.26949   0.00000  Uiso   1.00
H216   H     0.10704   0.34372   0.36716   0.00000  Uiso   1.00
H217   H     0.98117   0.40999   0.16166   0.00000  Uiso   1.00
H218   H     0.22542   0.65627   0.29248   0.00000  Uiso   1.00
H219   H     0.13315   0.20143   0.45514   0.00000  Uiso   1.00
H220   H     0.86777   0.34122   0.02183   0.00000  Uiso   1.00
H221   H     0.38282   0.86054   0.29771   0.00000  Uiso   1.00
O222   O     0.23559   0.10863   0.44969   0.00000  Uiso   1.00
O223   O     0.88743   0.29203   0.88120   0.00000  Uiso   1.00
O224   O     0.56315   0.97337   0.24314   0.00000  Uiso   1.00
N225   N     0.28790   0.20384   0.33948   0.00000  Uiso   1.00
N226   N     0.03978   0.33451   0.93437   0.00000  Uiso   1.00
N227   N     0.52130   0.82005   0.19227   0.00000  Uiso   1.00
N228   N     0.17940   0.21429   0.41145   0.00000  Uiso   1.00
N229   N     0.93128   0.34496   0.00634   0.00000  Uiso   1.00
N230   N     0.41279   0.83050   0.26423   0.00000  Uiso   1.00
C231   C     0.15931   0.70743   0.48241   0.00000  Uiso   1.00
C232   C     0.12131   0.73522   0.55248   0.00000  Uiso   1.00
C233   C     0.02309   0.69815   0.57130   0.00000  Uiso   1.00
C234   C     0.00352   0.73289   0.63780   0.00000  Uiso   1.00
C235   C     0.93295   0.76554   0.73958   0.00000  Uiso   1.00
C236   C     0.22570   0.80361   0.44083   0.00000  Uiso   1.00
C237   C     0.21526   0.82404   0.36577   0.00000  Uiso   1.00
C238   C     0.28357   0.91636   0.33828   0.00000  Uiso   1.00
C239   C     0.37512   0.05516   0.26671   0.00000  Uiso   1.00
C240   C     0.22679   0.67090   0.51191   0.00000  Uiso   1.00
C241   C     0.21729   0.57976   0.49661   0.00000  Uiso   1.00
C242   C     0.28655   0.56034   0.52896   0.00000  Uiso   1.00
C243   C     0.37979   0.49309   0.56776   0.00000  Uiso   1.00
C244   C     0.29920   0.83503   0.56704   0.00000  Uiso   1.00
C245   C     0.19729   0.80453   0.59844   0.00000  Uiso   1.00
C246   C     0.17787   0.83933   0.66493   0.00000  Uiso   1.00
C247   C     0.07964   0.80232   0.68385   0.00000  Uiso   1.00
C248   C     0.30168   0.87292   0.48679   0.00000  Uiso   1.00
C249   C     0.37003   0.96522   0.45940   0.00000  Uiso   1.00
C250   C     0.35970   0.98579   0.38433   0.00000  Uiso   1.00
C251   C     0.30278   0.74021   0.55788   0.00000  Uiso   1.00
C252   C     0.37206   0.72093   0.59025   0.00000  Uiso   1.00
C253   C     0.36267   0.62978   0.57500   0.00000  Uiso   1.00
H254   H     0.10016   0.65347   0.44662   0.00000  Uiso   1.00
H255   H     0.96431   0.64453   0.53571   0.00000  Uiso   1.00
H256   H     0.15646   0.77039   0.33021   0.00000  Uiso   1.00
H257   H     0.15848   0.52614   0.46104   0.00000  Uiso   1.00
H258   H     0.84721   0.66520   0.65474   0.00000  Uiso   1.00
H259   H     0.25237   0.93058   0.22143   0.00000  Uiso   1.00
H260   H     0.25665   0.41554   0.49730   0.00000  Uiso   1.00
H261   H     0.35836   0.88899   0.60282   0.00000  Uiso   1.00
H262   H     0.23668   0.89296   0.70049   0.00000  Uiso   1.00
H263   H     0.42883   0.01883   0.49499   0.00000  Uiso   1.00
H264   H     0.43085   0.77458   0.62582   0.00000  Uiso   1.00
H265   H     0.06828   0.86685   0.78848   0.00000  Uiso   1.00
H266   H     0.47344   0.13223   0.35517   0.00000  Uiso   1.00
H267   H     0.47772   0.61718   0.63104   0.00000  Uiso   1.00
O268   O     0.87304   0.76441   0.78302   0.00000  Uiso   1.00
O269   O     0.40461   0.11257   0.21454   0.00000  Uiso   1.00
O270   O     0.41022   0.43685   0.57647   0.00000  Uiso   1.00
N271   N     0.91594   0.71210   0.67282   0.00000  Uiso   1.00
N272   N     0.29473   0.96022   0.26771   0.00000  Uiso   1.00
N273   N     0.29875   0.47870   0.52560   0.00000  Uiso   1.00
N274   N     0.03489   0.82060   0.74478   0.00000  Uiso   1.00
N275   N     0.41369   0.06872   0.33967   0.00000  Uiso   1.00
N276   N     0.41770   0.58721   0.59757   0.00000  Uiso   1.00
