data_job_03524
_audit_creation_date              2018-12-19
_audit_creation_method            'Materials Studio'
_symmetry_space_group_name_H-M    'P1'
_symmetry_Int_Tables_number       1
_symmetry_cell_setting            triclinic
loop_
_symmetry_equiv_pos_as_xyz
  x,y,z
_cell_length_a                    12.2364
_cell_length_b                    12.2364
_cell_length_c                    38.2401
_cell_angle_alpha                 90.0000
_cell_angle_beta                  90.0000
_cell_angle_gamma                 120.0000
loop_
_atom_site_label
_atom_site_type_symbol
_atom_site_fract_x
_atom_site_fract_y
_atom_site_fract_z
_atom_site_U_iso_or_equiv
_atom_site_adp_type
_atom_site_occupancy
C1     C     0.72306   0.74621   0.29261   0.00000  Uiso   1.00
C2     C     0.58443   0.70000   0.30033   0.00000  Uiso   1.00
C3     C     0.52658   0.66216   0.33276   0.00000  Uiso   1.00
C4     C     0.39885   0.62305   0.33440   0.00000  Uiso   1.00
C5     C     0.19381   0.55142   0.35091   0.00000  Uiso   1.00
C6     C     0.72428   0.66064   0.26380   0.00000  Uiso   1.00
C7     C     0.78403   0.58973   0.26553   0.00000  Uiso   1.00
C8     C     0.77404   0.51749   0.23641   0.00000  Uiso   1.00
C9     C     0.78621   0.38483   0.19621   0.00000  Uiso   1.00
C10    C     0.77552   0.87647   0.27616   0.00000  Uiso   1.00
C11    C     0.87839   0.98703   0.28826   0.00000  Uiso   1.00
C12    C     0.91157   0.09651   0.26954   0.00000  Uiso   1.00
C13    C     0.00331   0.29895   0.24852   0.00000  Uiso   1.00
C14    C     0.59910   0.74401   0.23784   0.00000  Uiso   1.00
C15    C     0.51710   0.69880   0.27058   0.00000  Uiso   1.00
C16    C     0.38942   0.65974   0.27216   0.00000  Uiso   1.00
C17    C     0.33140   0.62186   0.30459   0.00000  Uiso   1.00
C18    C     0.65695   0.65944   0.23405   0.00000  Uiso   1.00
C19    C     0.64688   0.58730   0.20493   0.00000  Uiso   1.00
C20    C     0.70659   0.51630   0.20661   0.00000  Uiso   1.00
C21    C     0.70819   0.87528   0.24641   0.00000  Uiso   1.00
C22    C     0.74123   0.98460   0.22767   0.00000  Uiso   1.00
C23    C     0.84412   0.09531   0.23974   0.00000  Uiso   1.00
H24    H     0.77548   0.74713   0.31577   0.00000  Uiso   1.00
H25    H     0.57871   0.66309   0.35578   0.00000  Uiso   1.00
H26    H     0.83614   0.59068   0.28855   0.00000  Uiso   1.00
H27    H     0.93047   0.98792   0.31128   0.00000  Uiso   1.00
H28    H     0.33086   0.56935   0.38701   0.00000  Uiso   1.00
H29    H     0.87368   0.41670   0.24526   0.00000  Uiso   1.00
H30    H     0.07262   0.25436   0.29319   0.00000  Uiso   1.00
H31    H     0.54667   0.74308   0.21467   0.00000  Uiso   1.00
H32    H     0.33734   0.65883   0.24914   0.00000  Uiso   1.00
H33    H     0.59477   0.58641   0.18191   0.00000  Uiso   1.00
H34    H     0.68910   0.98365   0.20464   0.00000  Uiso   1.00
H35    H     0.13495   0.56588   0.30046   0.00000  Uiso   1.00
H36    H     0.67778   0.41323   0.15870   0.00000  Uiso   1.00
H37    H     0.87671   0.25089   0.20664   0.00000  Uiso   1.00
O38    O     0.09932   0.51222   0.36823   0.00000  Uiso   1.00
O39    O     0.81151   0.31197   0.18225   0.00000  Uiso   1.00
O40    O     0.07249   0.41095   0.24514   0.00000  Uiso   1.00
N41    N     0.31348   0.58012   0.36192   0.00000  Uiso   1.00
N42    N     0.82098   0.43739   0.22938   0.00000  Uiso   1.00
N43    N     0.00698   0.22052   0.27420   0.00000  Uiso   1.00
N44    N     0.20807   0.57826   0.31534   0.00000  Uiso   1.00
N45    N     0.71556   0.43552   0.18281   0.00000  Uiso   1.00
N46    N     0.90157   0.21865   0.22762   0.00000  Uiso   1.00
C47    C     0.25379   0.97685   0.95927   0.00000  Uiso   1.00
C48    C     0.30000   0.88443   0.96700   0.00000  Uiso   1.00
C49    C     0.33784   0.86441   0.99943   0.00000  Uiso   1.00
C50    C     0.37695   0.77580   0.00106   0.00000  Uiso   1.00
C51    C     0.44858   0.64240   0.01757   0.00000  Uiso   1.00
C52    C     0.33936   0.06364   0.93047   0.00000  Uiso   1.00
C53    C     0.41027   0.19430   0.93219   0.00000  Uiso   1.00
C54    C     0.48251   0.25655   0.90308   0.00000  Uiso   1.00
C55    C     0.61517   0.40138   0.86287   0.00000  Uiso   1.00
C56    C     0.12353   0.89906   0.94282   0.00000  Uiso   1.00
C57    C     0.01297   0.89136   0.95493   0.00000  Uiso   1.00
C58    C     0.90349   0.81506   0.93621   0.00000  Uiso   1.00
C59    C     0.70105   0.70435   0.91519   0.00000  Uiso   1.00
C60    C     0.25599   0.85508   0.90450   0.00000  Uiso   1.00
C61    C     0.30120   0.81829   0.93724   0.00000  Uiso   1.00
C62    C     0.34026   0.72968   0.93883   0.00000  Uiso   1.00
C63    C     0.37814   0.70954   0.97126   0.00000  Uiso   1.00
C64    C     0.34056   0.99750   0.90072   0.00000  Uiso   1.00
C65    C     0.41270   0.05957   0.87160   0.00000  Uiso   1.00
C66    C     0.48370   0.19029   0.87327   0.00000  Uiso   1.00
C67    C     0.12472   0.83291   0.91308   0.00000  Uiso   1.00
C68    C     0.01540   0.75663   0.89433   0.00000  Uiso   1.00
C69    C     0.90469   0.74880   0.90641   0.00000  Uiso   1.00
H70    H     0.25287   0.02836   0.98243   0.00000  Uiso   1.00
H71    H     0.33691   0.91563   0.02244   0.00000  Uiso   1.00
H72    H     0.40932   0.24546   0.95522   0.00000  Uiso   1.00
H73    H     0.01208   0.94256   0.97795   0.00000  Uiso   1.00
H74    H     0.43065   0.76151   0.05368   0.00000  Uiso   1.00
H75    H     0.58330   0.45698   0.91192   0.00000  Uiso   1.00
H76    H     0.74564   0.81826   0.95986   0.00000  Uiso   1.00
H77    H     0.25692   0.80359   0.88134   0.00000  Uiso   1.00
H78    H     0.34117   0.67852   0.91580   0.00000  Uiso   1.00
H79    H     0.41359   0.00836   0.84858   0.00000  Uiso   1.00
H80    H     0.01635   0.70546   0.87131   0.00000  Uiso   1.00
H81    H     0.43412   0.56907   0.96713   0.00000  Uiso   1.00
H82    H     0.58677   0.26455   0.82537   0.00000  Uiso   1.00
H83    H     0.74911   0.62582   0.87331   0.00000  Uiso   1.00
O84    O     0.48778   0.58710   0.03490   0.00000  Uiso   1.00
O85    O     0.68803   0.49953   0.84892   0.00000  Uiso   1.00
O86    O     0.58905   0.66154   0.91181   0.00000  Uiso   1.00
N87    N     0.41988   0.73336   0.02858   0.00000  Uiso   1.00
N88    N     0.56261   0.38359   0.89605   0.00000  Uiso   1.00
N89    N     0.77948   0.78646   0.94086   0.00000  Uiso   1.00
N90    N     0.42174   0.62981   0.98201   0.00000  Uiso   1.00
N91    N     0.56448   0.28004   0.84948   0.00000  Uiso   1.00
N92    N     0.78135   0.68291   0.89429   0.00000  Uiso   1.00
C93    C     0.02315   0.27694   0.62594   0.00000  Uiso   1.00
C94    C     0.11557   0.41557   0.63366   0.00000  Uiso   1.00
C95    C     0.13559   0.47342   0.66609   0.00000  Uiso   1.00
C96    C     0.22420   0.60115   0.66773   0.00000  Uiso   1.00
C97    C     0.35760   0.80619   0.68424   0.00000  Uiso   1.00
C98    C     0.93636   0.27572   0.59714   0.00000  Uiso   1.00
C99    C     0.80570   0.21597   0.59886   0.00000  Uiso   1.00
C100   C     0.74345   0.22596   0.56974   0.00000  Uiso   1.00
C101   C     0.59862   0.21379   0.52954   0.00000  Uiso   1.00
C102   C     0.10094   0.22448   0.60949   0.00000  Uiso   1.00
C103   C     0.10864   0.12161   0.62160   0.00000  Uiso   1.00
C104   C     0.18494   0.08843   0.60288   0.00000  Uiso   1.00
C105   C     0.29565   0.99669   0.58185   0.00000  Uiso   1.00
C106   C     0.14492   0.40090   0.57117   0.00000  Uiso   1.00
C107   C     0.18171   0.48290   0.60391   0.00000  Uiso   1.00
C108   C     0.27032   0.61058   0.60550   0.00000  Uiso   1.00
C109   C     0.29046   0.66860   0.63793   0.00000  Uiso   1.00
C110   C     0.00250   0.34305   0.56739   0.00000  Uiso   1.00
C111   C     0.94043   0.35312   0.53826   0.00000  Uiso   1.00
C112   C     0.80971   0.29341   0.53994   0.00000  Uiso   1.00
C113   C     0.16709   0.29181   0.57974   0.00000  Uiso   1.00
C114   C     0.24337   0.25877   0.56100   0.00000  Uiso   1.00
C115   C     0.25120   0.15588   0.57307   0.00000  Uiso   1.00
H116   H     0.97164   0.22452   0.64910   0.00000  Uiso   1.00
H117   H     0.08437   0.42129   0.68911   0.00000  Uiso   1.00
H118   H     0.75454   0.16386   0.62188   0.00000  Uiso   1.00
H119   H     0.05744   0.06953   0.64462   0.00000  Uiso   1.00
H120   H     0.23849   0.66914   0.72035   0.00000  Uiso   1.00
H121   H     0.54302   0.12632   0.57859   0.00000  Uiso   1.00
H122   H     0.18174   0.92738   0.62653   0.00000  Uiso   1.00
H123   H     0.19641   0.45333   0.54801   0.00000  Uiso   1.00
H124   H     0.32148   0.66266   0.58247   0.00000  Uiso   1.00
H125   H     0.99164   0.40523   0.51524   0.00000  Uiso   1.00
H126   H     0.29454   0.31090   0.53798   0.00000  Uiso   1.00
H127   H     0.43093   0.86505   0.63379   0.00000  Uiso   1.00
H128   H     0.73545   0.32222   0.49204   0.00000  Uiso   1.00
H129   H     0.37418   0.12329   0.53998   0.00000  Uiso   1.00
O130   O     0.41290   0.90068   0.70156   0.00000  Uiso   1.00
O131   O     0.50047   0.18849   0.51558   0.00000  Uiso   1.00
O132   O     0.33846   0.92751   0.57848   0.00000  Uiso   1.00
N133   N     0.26664   0.68652   0.69525   0.00000  Uiso   1.00
N134   N     0.61641   0.17902   0.56272   0.00000  Uiso   1.00
N135   N     0.21354   0.99302   0.60753   0.00000  Uiso   1.00
N136   N     0.37019   0.79193   0.64868   0.00000  Uiso   1.00
N137   N     0.71996   0.28444   0.51614   0.00000  Uiso   1.00
N138   N     0.31709   0.09843   0.56096   0.00000  Uiso   1.00
C139   C     0.74621   0.72306   0.70739   0.00000  Uiso   1.00
C140   C     0.70000   0.58443   0.69967   0.00000  Uiso   1.00
C141   C     0.66216   0.52658   0.66724   0.00000  Uiso   1.00
C142   C     0.62305   0.39885   0.66560   0.00000  Uiso   1.00
C143   C     0.55142   0.19381   0.64909   0.00000  Uiso   1.00
C144   C     0.66064   0.72428   0.73620   0.00000  Uiso   1.00
C145   C     0.58973   0.78403   0.73447   0.00000  Uiso   1.00
C146   C     0.51749   0.77404   0.76359   0.00000  Uiso   1.00
C147   C     0.38483   0.78621   0.80379   0.00000  Uiso   1.00
C148   C     0.87647   0.77552   0.72384   0.00000  Uiso   1.00
C149   C     0.98703   0.87839   0.71174   0.00000  Uiso   1.00
C150   C     0.09651   0.91157   0.73046   0.00000  Uiso   1.00
C151   C     0.29895   0.00331   0.75148   0.00000  Uiso   1.00
C152   C     0.74401   0.59910   0.76216   0.00000  Uiso   1.00
C153   C     0.69880   0.51710   0.72942   0.00000  Uiso   1.00
C154   C     0.65974   0.38942   0.72784   0.00000  Uiso   1.00
C155   C     0.62186   0.33140   0.69541   0.00000  Uiso   1.00
C156   C     0.65944   0.65695   0.76595   0.00000  Uiso   1.00
C157   C     0.58730   0.64688   0.79507   0.00000  Uiso   1.00
C158   C     0.51630   0.70659   0.79339   0.00000  Uiso   1.00
C159   C     0.87528   0.70819   0.75359   0.00000  Uiso   1.00
C160   C     0.98460   0.74123   0.77233   0.00000  Uiso   1.00
C161   C     0.09531   0.84412   0.76026   0.00000  Uiso   1.00
H162   H     0.74713   0.77548   0.68423   0.00000  Uiso   1.00
H163   H     0.66309   0.57871   0.64422   0.00000  Uiso   1.00
H164   H     0.59068   0.83614   0.71145   0.00000  Uiso   1.00
H165   H     0.98792   0.93047   0.68872   0.00000  Uiso   1.00
H166   H     0.56935   0.33086   0.61299   0.00000  Uiso   1.00
H167   H     0.41670   0.87368   0.75474   0.00000  Uiso   1.00
H168   H     0.25436   0.07262   0.70681   0.00000  Uiso   1.00
H169   H     0.74308   0.54667   0.78533   0.00000  Uiso   1.00
H170   H     0.65883   0.33734   0.75086   0.00000  Uiso   1.00
H171   H     0.58641   0.59477   0.81809   0.00000  Uiso   1.00
H172   H     0.98365   0.68910   0.79536   0.00000  Uiso   1.00
H173   H     0.56588   0.13495   0.69954   0.00000  Uiso   1.00
H174   H     0.41323   0.67778   0.84130   0.00000  Uiso   1.00
H175   H     0.25089   0.87671   0.79336   0.00000  Uiso   1.00
O176   O     0.51222   0.09932   0.63177   0.00000  Uiso   1.00
O177   O     0.31197   0.81151   0.81775   0.00000  Uiso   1.00
O178   O     0.41095   0.07249   0.75486   0.00000  Uiso   1.00
N179   N     0.58012   0.31348   0.63808   0.00000  Uiso   1.00
N180   N     0.43739   0.82098   0.77062   0.00000  Uiso   1.00
N181   N     0.22052   0.00698   0.72580   0.00000  Uiso   1.00
N182   N     0.57826   0.20807   0.68466   0.00000  Uiso   1.00
N183   N     0.43552   0.71556   0.81719   0.00000  Uiso   1.00
N184   N     0.21865   0.90157   0.77238   0.00000  Uiso   1.00
C185   C     0.97685   0.25379   0.04073   0.00000  Uiso   1.00
C186   C     0.88443   0.30000   0.03300   0.00000  Uiso   1.00
C187   C     0.86441   0.33784   0.00057   0.00000  Uiso   1.00
C188   C     0.77580   0.37695   0.99894   0.00000  Uiso   1.00
C189   C     0.64240   0.44858   0.98243   0.00000  Uiso   1.00
C190   C     0.06364   0.33936   0.06953   0.00000  Uiso   1.00
C191   C     0.19430   0.41027   0.06781   0.00000  Uiso   1.00
C192   C     0.25655   0.48251   0.09692   0.00000  Uiso   1.00
C193   C     0.40138   0.61517   0.13713   0.00000  Uiso   1.00
C194   C     0.89906   0.12353   0.05718   0.00000  Uiso   1.00
C195   C     0.89136   0.01297   0.04507   0.00000  Uiso   1.00
C196   C     0.81506   0.90349   0.06379   0.00000  Uiso   1.00
C197   C     0.70435   0.70105   0.08481   0.00000  Uiso   1.00
C198   C     0.85508   0.25599   0.09550   0.00000  Uiso   1.00
C199   C     0.81829   0.30120   0.06276   0.00000  Uiso   1.00
C200   C     0.72968   0.34026   0.06117   0.00000  Uiso   1.00
C201   C     0.70954   0.37814   0.02874   0.00000  Uiso   1.00
C202   C     0.99750   0.34056   0.09928   0.00000  Uiso   1.00
C203   C     0.05957   0.41270   0.12840   0.00000  Uiso   1.00
C204   C     0.19029   0.48370   0.12673   0.00000  Uiso   1.00
C205   C     0.83291   0.12472   0.08692   0.00000  Uiso   1.00
C206   C     0.75663   0.01540   0.10567   0.00000  Uiso   1.00
C207   C     0.74880   0.90469   0.09359   0.00000  Uiso   1.00
H208   H     0.02836   0.25287   0.01757   0.00000  Uiso   1.00
H209   H     0.91563   0.33691   0.97756   0.00000  Uiso   1.00
H210   H     0.24546   0.40932   0.04478   0.00000  Uiso   1.00
H211   H     0.94256   0.01208   0.02205   0.00000  Uiso   1.00
H212   H     0.76151   0.43065   0.94632   0.00000  Uiso   1.00
H213   H     0.45698   0.58330   0.08808   0.00000  Uiso   1.00
H214   H     0.81826   0.74564   0.04014   0.00000  Uiso   1.00
H215   H     0.80359   0.25692   0.11866   0.00000  Uiso   1.00
H216   H     0.67852   0.34117   0.08420   0.00000  Uiso   1.00
H217   H     0.00836   0.41359   0.15142   0.00000  Uiso   1.00
H218   H     0.70546   0.01635   0.12869   0.00000  Uiso   1.00
H219   H     0.56907   0.43412   0.03287   0.00000  Uiso   1.00
H220   H     0.26455   0.58677   0.17463   0.00000  Uiso   1.00
H221   H     0.62582   0.74911   0.12669   0.00000  Uiso   1.00
O222   O     0.58710   0.48778   0.96510   0.00000  Uiso   1.00
O223   O     0.49953   0.68803   0.15108   0.00000  Uiso   1.00
O224   O     0.66154   0.58905   0.08819   0.00000  Uiso   1.00
N225   N     0.73336   0.41988   0.97142   0.00000  Uiso   1.00
N226   N     0.38359   0.56261   0.10395   0.00000  Uiso   1.00
N227   N     0.78646   0.77948   0.05914   0.00000  Uiso   1.00
N228   N     0.62981   0.42174   0.01799   0.00000  Uiso   1.00
N229   N     0.28004   0.56448   0.15052   0.00000  Uiso   1.00
N230   N     0.68291   0.78135   0.10571   0.00000  Uiso   1.00
C231   C     0.27694   0.02315   0.37406   0.00000  Uiso   1.00
C232   C     0.41557   0.11557   0.36634   0.00000  Uiso   1.00
C233   C     0.47342   0.13559   0.33391   0.00000  Uiso   1.00
C234   C     0.60115   0.22420   0.33227   0.00000  Uiso   1.00
C235   C     0.80619   0.35760   0.31576   0.00000  Uiso   1.00
C236   C     0.27572   0.93636   0.40286   0.00000  Uiso   1.00
C237   C     0.21597   0.80570   0.40114   0.00000  Uiso   1.00
C238   C     0.22596   0.74345   0.43026   0.00000  Uiso   1.00
C239   C     0.21379   0.59862   0.47046   0.00000  Uiso   1.00
C240   C     0.22448   0.10094   0.39051   0.00000  Uiso   1.00
C241   C     0.12161   0.10864   0.37840   0.00000  Uiso   1.00
C242   C     0.08843   0.18494   0.39712   0.00000  Uiso   1.00
C243   C     0.99669   0.29565   0.41815   0.00000  Uiso   1.00
C244   C     0.40090   0.14492   0.42883   0.00000  Uiso   1.00
C245   C     0.48290   0.18171   0.39609   0.00000  Uiso   1.00
C246   C     0.61058   0.27032   0.39450   0.00000  Uiso   1.00
C247   C     0.66860   0.29046   0.36207   0.00000  Uiso   1.00
C248   C     0.34305   0.00250   0.43261   0.00000  Uiso   1.00
C249   C     0.35312   0.94043   0.46174   0.00000  Uiso   1.00
C250   C     0.29341   0.80971   0.46006   0.00000  Uiso   1.00
C251   C     0.29181   0.16709   0.42026   0.00000  Uiso   1.00
C252   C     0.25877   0.24337   0.43900   0.00000  Uiso   1.00
C253   C     0.15588   0.25120   0.42693   0.00000  Uiso   1.00
H254   H     0.22452   0.97164   0.35090   0.00000  Uiso   1.00
H255   H     0.42129   0.08437   0.31089   0.00000  Uiso   1.00
H256   H     0.16386   0.75454   0.37812   0.00000  Uiso   1.00
H257   H     0.06953   0.05744   0.35538   0.00000  Uiso   1.00
H258   H     0.66914   0.23849   0.27965   0.00000  Uiso   1.00
H259   H     0.12632   0.54302   0.42141   0.00000  Uiso   1.00
H260   H     0.92738   0.18174   0.37347   0.00000  Uiso   1.00
H261   H     0.45333   0.19641   0.45199   0.00000  Uiso   1.00
H262   H     0.66266   0.32148   0.41753   0.00000  Uiso   1.00
H263   H     0.40523   0.99164   0.48476   0.00000  Uiso   1.00
H264   H     0.31090   0.29454   0.46202   0.00000  Uiso   1.00
H265   H     0.86505   0.43093   0.36621   0.00000  Uiso   1.00
H266   H     0.32222   0.73545   0.50796   0.00000  Uiso   1.00
H267   H     0.12329   0.37418   0.46002   0.00000  Uiso   1.00
O268   O     0.90068   0.41290   0.29844   0.00000  Uiso   1.00
O269   O     0.18849   0.50047   0.48442   0.00000  Uiso   1.00
O270   O     0.92751   0.33846   0.42152   0.00000  Uiso   1.00
N271   N     0.68652   0.26664   0.30475   0.00000  Uiso   1.00
N272   N     0.17902   0.61641   0.43728   0.00000  Uiso   1.00
N273   N     0.99302   0.21354   0.39247   0.00000  Uiso   1.00
N274   N     0.79193   0.37019   0.35132   0.00000  Uiso   1.00
N275   N     0.28444   0.71996   0.48386   0.00000  Uiso   1.00
N276   N     0.09843   0.31709   0.43904   0.00000  Uiso   1.00
