data_job_03124
_audit_creation_date              2018-12-19
_audit_creation_method            'Materials Studio'
_symmetry_space_group_name_H-M    'P1'
_symmetry_Int_Tables_number       1
_symmetry_cell_setting            triclinic
loop_
_symmetry_equiv_pos_as_xyz
  x,y,z
_cell_length_a                    19.2504
_cell_length_b                    28.2265
_cell_length_c                    12.3581
_cell_angle_alpha                 90.0000
_cell_angle_beta                  88.0264
_cell_angle_gamma                 90.0000
loop_
_atom_site_label
_atom_site_type_symbol
_atom_site_fract_x
_atom_site_fract_y
_atom_site_fract_z
_atom_site_U_iso_or_equiv
_atom_site_adp_type
_atom_site_occupancy
C1     C     0.90557   0.82781   0.97957   0.00000  Uiso   1.00
C2     C     0.87913   0.84043   0.09369   0.00000  Uiso   1.00
C3     C     0.88592   0.81258   0.18526   0.00000  Uiso   1.00
C4     C     0.85821   0.83041   0.28215   0.00000  Uiso   1.00
C5     C     0.82218   0.84328   0.45858   0.00000  Uiso   1.00
C6     C     0.84252   0.83021   0.90838   0.00000  Uiso   1.00
C7     C     0.81855   0.79378   0.84413   0.00000  Uiso   1.00
C8     C     0.76002   0.80301   0.78502   0.00000  Uiso   1.00
C9     C     0.66719   0.80004   0.67368   0.00000  Uiso   1.00
C10    C     0.95304   0.86842   0.94297   0.00000  Uiso   1.00
C11    C     0.02199   0.86412   0.90778   0.00000  Uiso   1.00
C12    C     0.05651   0.90552   0.87776   0.00000  Uiso   1.00
C13    C     0.13528   0.96187   0.82013   0.00000  Uiso   1.00
C14    C     0.84426   0.90899   0.98880   0.00000  Uiso   1.00
C15    C     0.84582   0.88452   0.09870   0.00000  Uiso   1.00
C16    C     0.81809   0.90240   0.19548   0.00000  Uiso   1.00
C17    C     0.82485   0.87458   0.28718   0.00000  Uiso   1.00
C18    C     0.80921   0.87431   0.91339   0.00000  Uiso   1.00
C19    C     0.75071   0.88360   0.85435   0.00000  Uiso   1.00
C20    C     0.72666   0.84719   0.79004   0.00000  Uiso   1.00
C21    C     0.91974   0.91252   0.94798   0.00000  Uiso   1.00
C22    C     0.95415   0.95393   0.91800   0.00000  Uiso   1.00
C23    C     0.02315   0.94969   0.88278   0.00000  Uiso   1.00
H24    H     0.93149   0.79348   0.97566   0.00000  Uiso   1.00
H25    H     0.91170   0.77846   0.18135   0.00000  Uiso   1.00
H26    H     0.84433   0.75966   0.84026   0.00000  Uiso   1.00
H27    H     0.04775   0.82999   0.90391   0.00000  Uiso   1.00
H28    H     0.87504   0.78124   0.41159   0.00000  Uiso   1.00
H29    H     0.73302   0.74161   0.69237   0.00000  Uiso   1.00
H30    H     0.16195   0.88991   0.82657   0.00000  Uiso   1.00
H31    H     0.81833   0.94332   0.99270   0.00000  Uiso   1.00
H32    H     0.79232   0.93652   0.19933   0.00000  Uiso   1.00
H33    H     0.72496   0.91772   0.85824   0.00000  Uiso   1.00
H34    H     0.92837   0.98805   0.92189   0.00000  Uiso   1.00
H35    H     0.77814   0.90953   0.42619   0.00000  Uiso   1.00
H36    H     0.63612   0.86990   0.70696   0.00000  Uiso   1.00
H37    H     0.06506   0.01820   0.84117   0.00000  Uiso   1.00
O38    O     0.81150   0.83820   0.55450   0.00000  Uiso   1.00
O39    O     0.62519   0.78621   0.61089   0.00000  Uiso   1.00
O40    O     0.18794   0.98077   0.78697   0.00000  Uiso   1.00
N41    N     0.85581   0.81237   0.38668   0.00000  Uiso   1.00
N42    N     0.72303   0.77532   0.71426   0.00000  Uiso   1.00
N43    N     0.12404   0.91396   0.83970   0.00000  Uiso   1.00
N44    N     0.80368   0.88140   0.39453   0.00000  Uiso   1.00
N45    N     0.67089   0.84435   0.72211   0.00000  Uiso   1.00
N46    N     0.07190   0.98299   0.84755   0.00000  Uiso   1.00
C47    C     0.40557   0.32781   0.97957   0.00000  Uiso   1.00
C48    C     0.37913   0.34043   0.09369   0.00000  Uiso   1.00
C49    C     0.38592   0.31258   0.18526   0.00000  Uiso   1.00
C50    C     0.35821   0.33041   0.28215   0.00000  Uiso   1.00
C51    C     0.32218   0.34328   0.45858   0.00000  Uiso   1.00
C52    C     0.34252   0.33021   0.90838   0.00000  Uiso   1.00
C53    C     0.31855   0.29378   0.84413   0.00000  Uiso   1.00
C54    C     0.26002   0.30301   0.78502   0.00000  Uiso   1.00
C55    C     0.16719   0.30004   0.67368   0.00000  Uiso   1.00
C56    C     0.45304   0.36842   0.94297   0.00000  Uiso   1.00
C57    C     0.52199   0.36412   0.90778   0.00000  Uiso   1.00
C58    C     0.55651   0.40552   0.87776   0.00000  Uiso   1.00
C59    C     0.63528   0.46187   0.82013   0.00000  Uiso   1.00
C60    C     0.34426   0.40899   0.98880   0.00000  Uiso   1.00
C61    C     0.34582   0.38452   0.09870   0.00000  Uiso   1.00
C62    C     0.31809   0.40240   0.19548   0.00000  Uiso   1.00
C63    C     0.32485   0.37458   0.28718   0.00000  Uiso   1.00
C64    C     0.30921   0.37431   0.91339   0.00000  Uiso   1.00
C65    C     0.25071   0.38360   0.85435   0.00000  Uiso   1.00
C66    C     0.22666   0.34719   0.79004   0.00000  Uiso   1.00
C67    C     0.41974   0.41252   0.94798   0.00000  Uiso   1.00
C68    C     0.45415   0.45393   0.91800   0.00000  Uiso   1.00
C69    C     0.52315   0.44969   0.88278   0.00000  Uiso   1.00
H70    H     0.43149   0.29348   0.97566   0.00000  Uiso   1.00
H71    H     0.41170   0.27846   0.18135   0.00000  Uiso   1.00
H72    H     0.34433   0.25966   0.84026   0.00000  Uiso   1.00
H73    H     0.54775   0.32999   0.90391   0.00000  Uiso   1.00
H74    H     0.37504   0.28124   0.41159   0.00000  Uiso   1.00
H75    H     0.23302   0.24161   0.69237   0.00000  Uiso   1.00
H76    H     0.66195   0.38991   0.82657   0.00000  Uiso   1.00
H77    H     0.31833   0.44332   0.99270   0.00000  Uiso   1.00
H78    H     0.29232   0.43652   0.19933   0.00000  Uiso   1.00
H79    H     0.22496   0.41772   0.85824   0.00000  Uiso   1.00
H80    H     0.42837   0.48805   0.92189   0.00000  Uiso   1.00
H81    H     0.27814   0.40953   0.42619   0.00000  Uiso   1.00
H82    H     0.13612   0.36990   0.70696   0.00000  Uiso   1.00
H83    H     0.56506   0.51820   0.84117   0.00000  Uiso   1.00
O84    O     0.31150   0.33820   0.55450   0.00000  Uiso   1.00
O85    O     0.12519   0.28621   0.61089   0.00000  Uiso   1.00
O86    O     0.68794   0.48077   0.78697   0.00000  Uiso   1.00
N87    N     0.35581   0.31237   0.38668   0.00000  Uiso   1.00
N88    N     0.22303   0.27532   0.71426   0.00000  Uiso   1.00
N89    N     0.62404   0.41396   0.83970   0.00000  Uiso   1.00
N90    N     0.30368   0.38140   0.39453   0.00000  Uiso   1.00
N91    N     0.17089   0.34435   0.72211   0.00000  Uiso   1.00
N92    N     0.57190   0.48299   0.84755   0.00000  Uiso   1.00
C93    C     0.09443   0.82781   0.52043   0.00000  Uiso   1.00
C94    C     0.12087   0.84043   0.40631   0.00000  Uiso   1.00
C95    C     0.11408   0.81258   0.31474   0.00000  Uiso   1.00
C96    C     0.14179   0.83041   0.21785   0.00000  Uiso   1.00
C97    C     0.17782   0.84328   0.04142   0.00000  Uiso   1.00
C98    C     0.15748   0.83021   0.59162   0.00000  Uiso   1.00
C99    C     0.18145   0.79378   0.65587   0.00000  Uiso   1.00
C100   C     0.23998   0.80301   0.71498   0.00000  Uiso   1.00
C101   C     0.33281   0.80004   0.82632   0.00000  Uiso   1.00
C102   C     0.04696   0.86842   0.55703   0.00000  Uiso   1.00
C103   C     0.97801   0.86412   0.59222   0.00000  Uiso   1.00
C104   C     0.94349   0.90552   0.62224   0.00000  Uiso   1.00
C105   C     0.86472   0.96187   0.67987   0.00000  Uiso   1.00
C106   C     0.15574   0.90899   0.51120   0.00000  Uiso   1.00
C107   C     0.15418   0.88452   0.40130   0.00000  Uiso   1.00
C108   C     0.18191   0.90240   0.30452   0.00000  Uiso   1.00
C109   C     0.17515   0.87458   0.21282   0.00000  Uiso   1.00
C110   C     0.19079   0.87431   0.58661   0.00000  Uiso   1.00
C111   C     0.24929   0.88360   0.64565   0.00000  Uiso   1.00
C112   C     0.27334   0.84719   0.70996   0.00000  Uiso   1.00
C113   C     0.08026   0.91252   0.55202   0.00000  Uiso   1.00
C114   C     0.04585   0.95393   0.58200   0.00000  Uiso   1.00
C115   C     0.97685   0.94969   0.61722   0.00000  Uiso   1.00
H116   H     0.06851   0.79348   0.52434   0.00000  Uiso   1.00
H117   H     0.08830   0.77846   0.31865   0.00000  Uiso   1.00
H118   H     0.15567   0.75966   0.65974   0.00000  Uiso   1.00
H119   H     0.95225   0.82999   0.59609   0.00000  Uiso   1.00
H120   H     0.12496   0.78124   0.08841   0.00000  Uiso   1.00
H121   H     0.26698   0.74161   0.80763   0.00000  Uiso   1.00
H122   H     0.83805   0.88991   0.67343   0.00000  Uiso   1.00
H123   H     0.18167   0.94332   0.50730   0.00000  Uiso   1.00
H124   H     0.20768   0.93652   0.30067   0.00000  Uiso   1.00
H125   H     0.27504   0.91772   0.64176   0.00000  Uiso   1.00
H126   H     0.07163   0.98805   0.57811   0.00000  Uiso   1.00
H127   H     0.22186   0.90953   0.07381   0.00000  Uiso   1.00
H128   H     0.36388   0.86990   0.79304   0.00000  Uiso   1.00
H129   H     0.93494   0.01820   0.65883   0.00000  Uiso   1.00
O130   O     0.18850   0.83820   0.94550   0.00000  Uiso   1.00
O131   O     0.37481   0.78621   0.88911   0.00000  Uiso   1.00
O132   O     0.81206   0.98077   0.71303   0.00000  Uiso   1.00
N133   N     0.14419   0.81237   0.11332   0.00000  Uiso   1.00
N134   N     0.27697   0.77532   0.78574   0.00000  Uiso   1.00
N135   N     0.87596   0.91396   0.66030   0.00000  Uiso   1.00
N136   N     0.19632   0.88140   0.10547   0.00000  Uiso   1.00
N137   N     0.32911   0.84435   0.77789   0.00000  Uiso   1.00
N138   N     0.92810   0.98299   0.65245   0.00000  Uiso   1.00
C139   C     0.59443   0.32781   0.52043   0.00000  Uiso   1.00
C140   C     0.62087   0.34043   0.40631   0.00000  Uiso   1.00
C141   C     0.61408   0.31258   0.31474   0.00000  Uiso   1.00
C142   C     0.64179   0.33041   0.21785   0.00000  Uiso   1.00
C143   C     0.67782   0.34328   0.04142   0.00000  Uiso   1.00
C144   C     0.65748   0.33021   0.59162   0.00000  Uiso   1.00
C145   C     0.68145   0.29378   0.65587   0.00000  Uiso   1.00
C146   C     0.73998   0.30301   0.71498   0.00000  Uiso   1.00
C147   C     0.83281   0.30004   0.82632   0.00000  Uiso   1.00
C148   C     0.54696   0.36842   0.55703   0.00000  Uiso   1.00
C149   C     0.47801   0.36412   0.59222   0.00000  Uiso   1.00
C150   C     0.44349   0.40552   0.62224   0.00000  Uiso   1.00
C151   C     0.36472   0.46187   0.67987   0.00000  Uiso   1.00
C152   C     0.65574   0.40899   0.51120   0.00000  Uiso   1.00
C153   C     0.65418   0.38452   0.40130   0.00000  Uiso   1.00
C154   C     0.68191   0.40240   0.30452   0.00000  Uiso   1.00
C155   C     0.67515   0.37458   0.21282   0.00000  Uiso   1.00
C156   C     0.69079   0.37431   0.58661   0.00000  Uiso   1.00
C157   C     0.74929   0.38360   0.64565   0.00000  Uiso   1.00
C158   C     0.77334   0.34719   0.70996   0.00000  Uiso   1.00
C159   C     0.58026   0.41252   0.55202   0.00000  Uiso   1.00
C160   C     0.54585   0.45393   0.58200   0.00000  Uiso   1.00
C161   C     0.47685   0.44969   0.61722   0.00000  Uiso   1.00
H162   H     0.56851   0.29348   0.52434   0.00000  Uiso   1.00
H163   H     0.58830   0.27846   0.31865   0.00000  Uiso   1.00
H164   H     0.65567   0.25966   0.65974   0.00000  Uiso   1.00
H165   H     0.45225   0.32999   0.59609   0.00000  Uiso   1.00
H166   H     0.62496   0.28124   0.08841   0.00000  Uiso   1.00
H167   H     0.76698   0.24161   0.80763   0.00000  Uiso   1.00
H168   H     0.33805   0.38991   0.67343   0.00000  Uiso   1.00
H169   H     0.68167   0.44332   0.50730   0.00000  Uiso   1.00
H170   H     0.70768   0.43652   0.30067   0.00000  Uiso   1.00
H171   H     0.77504   0.41772   0.64176   0.00000  Uiso   1.00
H172   H     0.57163   0.48805   0.57811   0.00000  Uiso   1.00
H173   H     0.72186   0.40953   0.07381   0.00000  Uiso   1.00
H174   H     0.86388   0.36990   0.79304   0.00000  Uiso   1.00
H175   H     0.43494   0.51820   0.65883   0.00000  Uiso   1.00
O176   O     0.68850   0.33820   0.94550   0.00000  Uiso   1.00
O177   O     0.87481   0.28621   0.88911   0.00000  Uiso   1.00
O178   O     0.31206   0.48077   0.71303   0.00000  Uiso   1.00
N179   N     0.64419   0.31237   0.11332   0.00000  Uiso   1.00
N180   N     0.77697   0.27532   0.78574   0.00000  Uiso   1.00
N181   N     0.37596   0.41396   0.66030   0.00000  Uiso   1.00
N182   N     0.69632   0.38140   0.10547   0.00000  Uiso   1.00
N183   N     0.82911   0.34435   0.77789   0.00000  Uiso   1.00
N184   N     0.42810   0.48299   0.65245   0.00000  Uiso   1.00
C185   C     0.09443   0.17219   0.02043   0.00000  Uiso   1.00
C186   C     0.12087   0.15957   0.90631   0.00000  Uiso   1.00
C187   C     0.11408   0.18742   0.81474   0.00000  Uiso   1.00
C188   C     0.14179   0.16959   0.71785   0.00000  Uiso   1.00
C189   C     0.17782   0.15672   0.54142   0.00000  Uiso   1.00
C190   C     0.15748   0.16979   0.09162   0.00000  Uiso   1.00
C191   C     0.18145   0.20622   0.15587   0.00000  Uiso   1.00
C192   C     0.23998   0.19699   0.21498   0.00000  Uiso   1.00
C193   C     0.33281   0.19996   0.32632   0.00000  Uiso   1.00
C194   C     0.04696   0.13158   0.05703   0.00000  Uiso   1.00
C195   C     0.97801   0.13588   0.09222   0.00000  Uiso   1.00
C196   C     0.94349   0.09448   0.12224   0.00000  Uiso   1.00
C197   C     0.86472   0.03813   0.17987   0.00000  Uiso   1.00
C198   C     0.15574   0.09101   0.01120   0.00000  Uiso   1.00
C199   C     0.15418   0.11548   0.90130   0.00000  Uiso   1.00
C200   C     0.18191   0.09760   0.80452   0.00000  Uiso   1.00
C201   C     0.17515   0.12542   0.71282   0.00000  Uiso   1.00
C202   C     0.19079   0.12569   0.08661   0.00000  Uiso   1.00
C203   C     0.24929   0.11640   0.14565   0.00000  Uiso   1.00
C204   C     0.27334   0.15281   0.20996   0.00000  Uiso   1.00
C205   C     0.08026   0.08748   0.05202   0.00000  Uiso   1.00
C206   C     0.04585   0.04607   0.08200   0.00000  Uiso   1.00
C207   C     0.97685   0.05031   0.11722   0.00000  Uiso   1.00
H208   H     0.06851   0.20652   0.02434   0.00000  Uiso   1.00
H209   H     0.08830   0.22154   0.81865   0.00000  Uiso   1.00
H210   H     0.15567   0.24034   0.15974   0.00000  Uiso   1.00
H211   H     0.95225   0.17001   0.09609   0.00000  Uiso   1.00
H212   H     0.12496   0.21876   0.58841   0.00000  Uiso   1.00
H213   H     0.26698   0.25839   0.30763   0.00000  Uiso   1.00
H214   H     0.83805   0.11009   0.17343   0.00000  Uiso   1.00
H215   H     0.18167   0.05668   0.00730   0.00000  Uiso   1.00
H216   H     0.20768   0.06348   0.80067   0.00000  Uiso   1.00
H217   H     0.27504   0.08228   0.14176   0.00000  Uiso   1.00
H218   H     0.07163   0.01195   0.07811   0.00000  Uiso   1.00
H219   H     0.22186   0.09047   0.57381   0.00000  Uiso   1.00
H220   H     0.36388   0.13010   0.29304   0.00000  Uiso   1.00
H221   H     0.93494   0.98180   0.15883   0.00000  Uiso   1.00
O222   O     0.18850   0.16180   0.44550   0.00000  Uiso   1.00
O223   O     0.37481   0.21379   0.38911   0.00000  Uiso   1.00
O224   O     0.81206   0.01923   0.21303   0.00000  Uiso   1.00
N225   N     0.14419   0.18763   0.61332   0.00000  Uiso   1.00
N226   N     0.27697   0.22468   0.28574   0.00000  Uiso   1.00
N227   N     0.87596   0.08604   0.16030   0.00000  Uiso   1.00
N228   N     0.19632   0.11860   0.60547   0.00000  Uiso   1.00
N229   N     0.32911   0.15565   0.27789   0.00000  Uiso   1.00
N230   N     0.92810   0.01701   0.15245   0.00000  Uiso   1.00
C231   C     0.59443   0.67219   0.02043   0.00000  Uiso   1.00
C232   C     0.62087   0.65957   0.90631   0.00000  Uiso   1.00
C233   C     0.61408   0.68742   0.81474   0.00000  Uiso   1.00
C234   C     0.64179   0.66959   0.71785   0.00000  Uiso   1.00
C235   C     0.67782   0.65672   0.54142   0.00000  Uiso   1.00
C236   C     0.65748   0.66979   0.09162   0.00000  Uiso   1.00
C237   C     0.68145   0.70622   0.15587   0.00000  Uiso   1.00
C238   C     0.73998   0.69699   0.21498   0.00000  Uiso   1.00
C239   C     0.83281   0.69996   0.32632   0.00000  Uiso   1.00
C240   C     0.54696   0.63158   0.05703   0.00000  Uiso   1.00
C241   C     0.47801   0.63588   0.09222   0.00000  Uiso   1.00
C242   C     0.44349   0.59448   0.12224   0.00000  Uiso   1.00
C243   C     0.36472   0.53813   0.17987   0.00000  Uiso   1.00
C244   C     0.65574   0.59101   0.01120   0.00000  Uiso   1.00
C245   C     0.65418   0.61548   0.90130   0.00000  Uiso   1.00
C246   C     0.68191   0.59760   0.80452   0.00000  Uiso   1.00
C247   C     0.67515   0.62542   0.71282   0.00000  Uiso   1.00
C248   C     0.69079   0.62569   0.08661   0.00000  Uiso   1.00
C249   C     0.74929   0.61640   0.14565   0.00000  Uiso   1.00
C250   C     0.77334   0.65281   0.20996   0.00000  Uiso   1.00
C251   C     0.58026   0.58748   0.05202   0.00000  Uiso   1.00
C252   C     0.54585   0.54607   0.08200   0.00000  Uiso   1.00
C253   C     0.47685   0.55031   0.11722   0.00000  Uiso   1.00
H254   H     0.56851   0.70652   0.02434   0.00000  Uiso   1.00
H255   H     0.58830   0.72154   0.81865   0.00000  Uiso   1.00
H256   H     0.65567   0.74034   0.15974   0.00000  Uiso   1.00
H257   H     0.45225   0.67001   0.09609   0.00000  Uiso   1.00
H258   H     0.62496   0.71876   0.58841   0.00000  Uiso   1.00
H259   H     0.76698   0.75839   0.30763   0.00000  Uiso   1.00
H260   H     0.33805   0.61009   0.17343   0.00000  Uiso   1.00
H261   H     0.68167   0.55668   0.00730   0.00000  Uiso   1.00
H262   H     0.70768   0.56348   0.80067   0.00000  Uiso   1.00
H263   H     0.77504   0.58228   0.14176   0.00000  Uiso   1.00
H264   H     0.57163   0.51195   0.07811   0.00000  Uiso   1.00
H265   H     0.72186   0.59047   0.57381   0.00000  Uiso   1.00
H266   H     0.86388   0.63010   0.29304   0.00000  Uiso   1.00
H267   H     0.43494   0.48180   0.15883   0.00000  Uiso   1.00
O268   O     0.68850   0.66180   0.44550   0.00000  Uiso   1.00
O269   O     0.87481   0.71379   0.38911   0.00000  Uiso   1.00
O270   O     0.31206   0.51923   0.21303   0.00000  Uiso   1.00
N271   N     0.64419   0.68763   0.61332   0.00000  Uiso   1.00
N272   N     0.77697   0.72468   0.28574   0.00000  Uiso   1.00
N273   N     0.37596   0.58604   0.16030   0.00000  Uiso   1.00
N274   N     0.69632   0.61860   0.60547   0.00000  Uiso   1.00
N275   N     0.82911   0.65565   0.27789   0.00000  Uiso   1.00
N276   N     0.42810   0.51701   0.15245   0.00000  Uiso   1.00
C277   C     0.90557   0.17219   0.47957   0.00000  Uiso   1.00
C278   C     0.87913   0.15957   0.59369   0.00000  Uiso   1.00
C279   C     0.88592   0.18742   0.68526   0.00000  Uiso   1.00
C280   C     0.85821   0.16959   0.78215   0.00000  Uiso   1.00
C281   C     0.82218   0.15672   0.95858   0.00000  Uiso   1.00
C282   C     0.84252   0.16979   0.40838   0.00000  Uiso   1.00
C283   C     0.81855   0.20622   0.34413   0.00000  Uiso   1.00
C284   C     0.76002   0.19699   0.28502   0.00000  Uiso   1.00
C285   C     0.66719   0.19996   0.17368   0.00000  Uiso   1.00
C286   C     0.95304   0.13158   0.44297   0.00000  Uiso   1.00
C287   C     0.02199   0.13588   0.40778   0.00000  Uiso   1.00
C288   C     0.05651   0.09448   0.37776   0.00000  Uiso   1.00
C289   C     0.13528   0.03813   0.32013   0.00000  Uiso   1.00
C290   C     0.84426   0.09101   0.48880   0.00000  Uiso   1.00
C291   C     0.84582   0.11548   0.59870   0.00000  Uiso   1.00
C292   C     0.81809   0.09760   0.69548   0.00000  Uiso   1.00
C293   C     0.82485   0.12542   0.78718   0.00000  Uiso   1.00
C294   C     0.80921   0.12569   0.41339   0.00000  Uiso   1.00
C295   C     0.75071   0.11640   0.35435   0.00000  Uiso   1.00
C296   C     0.72666   0.15281   0.29004   0.00000  Uiso   1.00
C297   C     0.91974   0.08748   0.44798   0.00000  Uiso   1.00
C298   C     0.95415   0.04607   0.41800   0.00000  Uiso   1.00
C299   C     0.02315   0.05031   0.38278   0.00000  Uiso   1.00
H300   H     0.93149   0.20652   0.47566   0.00000  Uiso   1.00
H301   H     0.91170   0.22154   0.68135   0.00000  Uiso   1.00
H302   H     0.84433   0.24034   0.34026   0.00000  Uiso   1.00
H303   H     0.04775   0.17001   0.40391   0.00000  Uiso   1.00
H304   H     0.87504   0.21876   0.91159   0.00000  Uiso   1.00
H305   H     0.73302   0.25839   0.19237   0.00000  Uiso   1.00
H306   H     0.16195   0.11009   0.32657   0.00000  Uiso   1.00
H307   H     0.81833   0.05668   0.49270   0.00000  Uiso   1.00
H308   H     0.79232   0.06348   0.69933   0.00000  Uiso   1.00
H309   H     0.72496   0.08228   0.35824   0.00000  Uiso   1.00
H310   H     0.92837   0.01195   0.42189   0.00000  Uiso   1.00
H311   H     0.77814   0.09047   0.92619   0.00000  Uiso   1.00
H312   H     0.63612   0.13010   0.20696   0.00000  Uiso   1.00
H313   H     0.06506   0.98180   0.34117   0.00000  Uiso   1.00
O314   O     0.81150   0.16180   0.05450   0.00000  Uiso   1.00
O315   O     0.62519   0.21379   0.11089   0.00000  Uiso   1.00
O316   O     0.18794   0.01923   0.28697   0.00000  Uiso   1.00
N317   N     0.85581   0.18763   0.88668   0.00000  Uiso   1.00
N318   N     0.72303   0.22468   0.21426   0.00000  Uiso   1.00
N319   N     0.12404   0.08604   0.33970   0.00000  Uiso   1.00
N320   N     0.80368   0.11860   0.89453   0.00000  Uiso   1.00
N321   N     0.67089   0.15565   0.22211   0.00000  Uiso   1.00
N322   N     0.07190   0.01701   0.34755   0.00000  Uiso   1.00
C323   C     0.40557   0.67219   0.47957   0.00000  Uiso   1.00
C324   C     0.37913   0.65957   0.59369   0.00000  Uiso   1.00
C325   C     0.38592   0.68742   0.68526   0.00000  Uiso   1.00
C326   C     0.35821   0.66959   0.78215   0.00000  Uiso   1.00
C327   C     0.32218   0.65672   0.95858   0.00000  Uiso   1.00
C328   C     0.34252   0.66979   0.40838   0.00000  Uiso   1.00
C329   C     0.31855   0.70622   0.34413   0.00000  Uiso   1.00
C330   C     0.26002   0.69699   0.28502   0.00000  Uiso   1.00
C331   C     0.16719   0.69996   0.17368   0.00000  Uiso   1.00
C332   C     0.45304   0.63158   0.44297   0.00000  Uiso   1.00
C333   C     0.52199   0.63588   0.40778   0.00000  Uiso   1.00
C334   C     0.55651   0.59448   0.37776   0.00000  Uiso   1.00
C335   C     0.63528   0.53813   0.32013   0.00000  Uiso   1.00
C336   C     0.34426   0.59101   0.48880   0.00000  Uiso   1.00
C337   C     0.34582   0.61548   0.59870   0.00000  Uiso   1.00
C338   C     0.31809   0.59760   0.69548   0.00000  Uiso   1.00
C339   C     0.32485   0.62542   0.78718   0.00000  Uiso   1.00
C340   C     0.30921   0.62569   0.41339   0.00000  Uiso   1.00
C341   C     0.25071   0.61640   0.35435   0.00000  Uiso   1.00
C342   C     0.22666   0.65281   0.29004   0.00000  Uiso   1.00
C343   C     0.41974   0.58748   0.44798   0.00000  Uiso   1.00
C344   C     0.45415   0.54607   0.41800   0.00000  Uiso   1.00
C345   C     0.52315   0.55031   0.38278   0.00000  Uiso   1.00
H346   H     0.43149   0.70652   0.47566   0.00000  Uiso   1.00
H347   H     0.41170   0.72154   0.68135   0.00000  Uiso   1.00
H348   H     0.34433   0.74034   0.34026   0.00000  Uiso   1.00
H349   H     0.54775   0.67001   0.40391   0.00000  Uiso   1.00
H350   H     0.37504   0.71876   0.91159   0.00000  Uiso   1.00
H351   H     0.23302   0.75839   0.19237   0.00000  Uiso   1.00
H352   H     0.66195   0.61009   0.32657   0.00000  Uiso   1.00
H353   H     0.31833   0.55668   0.49270   0.00000  Uiso   1.00
H354   H     0.29232   0.56348   0.69933   0.00000  Uiso   1.00
H355   H     0.22496   0.58228   0.35824   0.00000  Uiso   1.00
H356   H     0.42837   0.51195   0.42189   0.00000  Uiso   1.00
H357   H     0.27814   0.59047   0.92619   0.00000  Uiso   1.00
H358   H     0.13612   0.63010   0.20696   0.00000  Uiso   1.00
H359   H     0.56506   0.48180   0.34117   0.00000  Uiso   1.00
O360   O     0.31150   0.66180   0.05450   0.00000  Uiso   1.00
O361   O     0.12519   0.71379   0.11089   0.00000  Uiso   1.00
O362   O     0.68794   0.51923   0.28697   0.00000  Uiso   1.00
N363   N     0.35581   0.68763   0.88668   0.00000  Uiso   1.00
N364   N     0.22303   0.72468   0.21426   0.00000  Uiso   1.00
N365   N     0.62404   0.58604   0.33970   0.00000  Uiso   1.00
N366   N     0.30368   0.61860   0.89453   0.00000  Uiso   1.00
N367   N     0.17089   0.65565   0.22211   0.00000  Uiso   1.00
N368   N     0.57190   0.51701   0.34755   0.00000  Uiso   1.00
