data_job_01249
_audit_creation_date              2018-12-19
_audit_creation_method            'Materials Studio'
_symmetry_space_group_name_H-M    'P1'
_symmetry_Int_Tables_number       1
_symmetry_cell_setting            triclinic
loop_
_symmetry_equiv_pos_as_xyz
  x,y,z
_cell_length_a                    16.3384
_cell_length_b                    21.0420
_cell_length_c                    12.8480
_cell_angle_alpha                 90.0000
_cell_angle_beta                  90.0000
_cell_angle_gamma                 90.0000
loop_
_atom_site_label
_atom_site_type_symbol
_atom_site_fract_x
_atom_site_fract_y
_atom_site_fract_z
_atom_site_U_iso_or_equiv
_atom_site_adp_type
_atom_site_occupancy
C1     C     0.53744   0.03012   0.32101   0.00000  Uiso   1.00
C2     C     0.57093   0.99428   0.22704   0.00000  Uiso   1.00
C3     C     0.64156   0.00952   0.17249   0.00000  Uiso   1.00
C4     C     0.66179   0.97085   0.08878   0.00000  Uiso   1.00
C5     C     0.72118   0.92314   0.94712   0.00000  Uiso   1.00
C6     C     0.45024   0.04925   0.29258   0.00000  Uiso   1.00
C7     C     0.41939   0.11071   0.29314   0.00000  Uiso   1.00
C8     C     0.33801   0.11831   0.26462   0.00000  Uiso   1.00
C9     C     0.21001   0.15594   0.22478   0.00000  Uiso   1.00
C10    C     0.52969   0.98120   0.40801   0.00000  Uiso   1.00
C11    C     0.56563   0.98543   0.50564   0.00000  Uiso   1.00
C12    C     0.55112   0.93575   0.57432   0.00000  Uiso   1.00
C13    C     0.54647   0.86770   0.71369   0.00000  Uiso   1.00
C14    C     0.44776   0.93435   0.26938   0.00000  Uiso   1.00
C15    C     0.52221   0.94227   0.19900   0.00000  Uiso   1.00
C16    C     0.54234   0.90357   0.11537   0.00000  Uiso   1.00
C17    C     0.61299   0.91874   0.06069   0.00000  Uiso   1.00
C18    C     0.40152   0.99724   0.26454   0.00000  Uiso   1.00
C19    C     0.32017   0.00476   0.23602   0.00000  Uiso   1.00
C20    C     0.28921   0.06620   0.23653   0.00000  Uiso   1.00
C21    C     0.48098   0.92918   0.37997   0.00000  Uiso   1.00
C22    C     0.46640   0.87948   0.44851   0.00000  Uiso   1.00
C23    C     0.50232   0.88364   0.54622   0.00000  Uiso   1.00
H24    H     0.57536   0.07062   0.34284   0.00000  Uiso   1.00
H25    H     0.67924   0.04978   0.19421   0.00000  Uiso   1.00
H26    H     0.45710   0.15095   0.31486   0.00000  Uiso   1.00
H27    H     0.60332   0.02569   0.52731   0.00000  Uiso   1.00
H28    H     0.77291   0.00375   0.01703   0.00000  Uiso   1.00
H29    H     0.30452   0.21707   0.27146   0.00000  Uiso   1.00
H30    H     0.61284   0.95295   0.71947   0.00000  Uiso   1.00
H31    H     0.40983   0.89386   0.24755   0.00000  Uiso   1.00
H32    H     0.50463   0.86332   0.09368   0.00000  Uiso   1.00
H33    H     0.28249   0.96449   0.21433   0.00000  Uiso   1.00
H34    H     0.42870   0.83923   0.42679   0.00000  Uiso   1.00
H35    H     0.63119   0.85242   0.93544   0.00000  Uiso   1.00
H36    H     0.16279   0.06574   0.18987   0.00000  Uiso   1.00
H37    H     0.47111   0.80161   0.63788   0.00000  Uiso   1.00
O38    O     0.76738   0.91120   0.87671   0.00000  Uiso   1.00
O39    O     0.15287   0.19107   0.21054   0.00000  Uiso   1.00
O40    O     0.55738   0.84454   0.79831   0.00000  Uiso   1.00
N41    N     0.72656   0.97232   0.01895   0.00000  Uiso   1.00
N42    N     0.28864   0.17176   0.25682   0.00000  Uiso   1.00
N43    N     0.57687   0.92484   0.67568   0.00000  Uiso   1.00
N44    N     0.65030   0.89089   0.97505   0.00000  Uiso   1.00
N45    N     0.21238   0.09033   0.21291   0.00000  Uiso   1.00
N46    N     0.50061   0.84340   0.63178   0.00000  Uiso   1.00
C47    C     0.01248   0.40937   0.13331   0.00000  Uiso   1.00
C48    C     0.01486   0.36551   0.03888   0.00000  Uiso   1.00
C49    C     0.08465   0.34760   0.98475   0.00000  Uiso   1.00
C50    C     0.07394   0.30712   0.90051   0.00000  Uiso   1.00
C51    C     0.08946   0.24234   0.75826   0.00000  Uiso   1.00
C52    C     0.95424   0.46330   0.10495   0.00000  Uiso   1.00
C53    C     0.97307   0.52761   0.10639   0.00000  Uiso   1.00
C54    C     0.91134   0.56945   0.07777   0.00000  Uiso   1.00
C55    C     0.83273   0.65649   0.03818   0.00000  Uiso   1.00
C56    C     0.97025   0.37189   0.21953   0.00000  Uiso   1.00
C57    C     0.00252   0.35935   0.31732   0.00000  Uiso   1.00
C58    C     0.95425   0.32424   0.38517   0.00000  Uiso   1.00
C59    C     0.90050   0.26935   0.52347   0.00000  Uiso   1.00
C60    C     0.86936   0.36934   0.07995   0.00000  Uiso   1.00
C61    C     0.93712   0.34376   0.00990   0.00000  Uiso   1.00
C62    C     0.92630   0.30330   0.92572   0.00000  Uiso   1.00
C63    C     0.99607   0.28533   0.87147   0.00000  Uiso   1.00
C64    C     0.87651   0.44155   0.07597   0.00000  Uiso   1.00
C65    C     0.81473   0.48331   0.04735   0.00000  Uiso   1.00
C66    C     0.83346   0.54767   0.04874   0.00000  Uiso   1.00
C67    C     0.89251   0.35014   0.19055   0.00000  Uiso   1.00
C68    C     0.84418   0.31505   0.25827   0.00000  Uiso   1.00
C69    C     0.87638   0.30246   0.35614   0.00000  Uiso   1.00
H70    H     0.07300   0.42631   0.15588   0.00000  Uiso   1.00
H71    H     0.14480   0.36444   0.00720   0.00000  Uiso   1.00
H72    H     0.03323   0.54442   0.12883   0.00000  Uiso   1.00
H73    H     0.06268   0.37619   0.33971   0.00000  Uiso   1.00
H74    H     0.19011   0.28628   0.82957   0.00000  Uiso   1.00
H75    H     0.95487   0.66578   0.08606   0.00000  Uiso   1.00
H76    H     0.01697   0.31102   0.53075   0.00000  Uiso   1.00
H77    H     0.80883   0.35241   0.05739   0.00000  Uiso   1.00
H78    H     0.86614   0.28648   0.90331   0.00000  Uiso   1.00
H79    H     0.75458   0.46646   0.02494   0.00000  Uiso   1.00
H80    H     0.78403   0.29823   0.23582   0.00000  Uiso   1.00
H81    H     0.96395   0.22300   0.74524   0.00000  Uiso   1.00
H82    H     0.72870   0.60251   0.00174   0.00000  Uiso   1.00
H83    H     0.79080   0.24775   0.44643   0.00000  Uiso   1.00
O84    O     0.11949   0.21262   0.68780   0.00000  Uiso   1.00
O85    O     0.81086   0.71051   0.02433   0.00000  Uiso   1.00
O86    O     0.89233   0.24508   0.60775   0.00000  Uiso   1.00
N87    N     0.12902   0.28042   0.83088   0.00000  Uiso   1.00
N88    N     0.90909   0.63524   0.07067   0.00000  Uiso   1.00
N89    N     0.96714   0.30358   0.48643   0.00000  Uiso   1.00
N90    N     0.00732   0.24637   0.78550   0.00000  Uiso   1.00
N91    N     0.78739   0.60119   0.02529   0.00000  Uiso   1.00
N92    N     0.84544   0.26953   0.44105   0.00000  Uiso   1.00
C93    C     0.96256   0.96988   0.82101   0.00000  Uiso   1.00
C94    C     0.92907   0.00572   0.72704   0.00000  Uiso   1.00
C95    C     0.85844   0.99048   0.67249   0.00000  Uiso   1.00
C96    C     0.83821   0.02915   0.58878   0.00000  Uiso   1.00
C97    C     0.77882   0.07686   0.44712   0.00000  Uiso   1.00
C98    C     0.04976   0.95075   0.79258   0.00000  Uiso   1.00
C99    C     0.08061   0.88929   0.79314   0.00000  Uiso   1.00
C100   C     0.16199   0.88169   0.76462   0.00000  Uiso   1.00
C101   C     0.28999   0.84406   0.72478   0.00000  Uiso   1.00
C102   C     0.97031   0.01880   0.90801   0.00000  Uiso   1.00
C103   C     0.93437   0.01457   0.00564   0.00000  Uiso   1.00
C104   C     0.94888   0.06425   0.07432   0.00000  Uiso   1.00
C105   C     0.95353   0.13230   0.21369   0.00000  Uiso   1.00
C106   C     0.05224   0.06565   0.76938   0.00000  Uiso   1.00
C107   C     0.97779   0.05773   0.69900   0.00000  Uiso   1.00
C108   C     0.95766   0.09643   0.61537   0.00000  Uiso   1.00
C109   C     0.88701   0.08126   0.56069   0.00000  Uiso   1.00
C110   C     0.09848   0.00276   0.76454   0.00000  Uiso   1.00
C111   C     0.17983   0.99524   0.73602   0.00000  Uiso   1.00
C112   C     0.21079   0.93380   0.73653   0.00000  Uiso   1.00
C113   C     0.01902   0.07082   0.87997   0.00000  Uiso   1.00
C114   C     0.03360   0.12052   0.94851   0.00000  Uiso   1.00
C115   C     0.99768   0.11636   0.04622   0.00000  Uiso   1.00
H116   H     0.92464   0.92938   0.84284   0.00000  Uiso   1.00
H117   H     0.82076   0.95022   0.69421   0.00000  Uiso   1.00
H118   H     0.04290   0.84905   0.81486   0.00000  Uiso   1.00
H119   H     0.89668   0.97431   0.02731   0.00000  Uiso   1.00
H120   H     0.72709   0.99625   0.51703   0.00000  Uiso   1.00
H121   H     0.19548   0.78293   0.77146   0.00000  Uiso   1.00
H122   H     0.88716   0.04705   0.21947   0.00000  Uiso   1.00
H123   H     0.09017   0.10614   0.74755   0.00000  Uiso   1.00
H124   H     0.99537   0.13668   0.59368   0.00000  Uiso   1.00
H125   H     0.21751   0.03551   0.71433   0.00000  Uiso   1.00
H126   H     0.07130   0.16077   0.92679   0.00000  Uiso   1.00
H127   H     0.86881   0.14758   0.43544   0.00000  Uiso   1.00
H128   H     0.33721   0.93426   0.68987   0.00000  Uiso   1.00
H129   H     0.02889   0.19839   0.13788   0.00000  Uiso   1.00
O130   O     0.73262   0.08880   0.37671   0.00000  Uiso   1.00
O131   O     0.34713   0.80893   0.71054   0.00000  Uiso   1.00
O132   O     0.94262   0.15546   0.29831   0.00000  Uiso   1.00
N133   N     0.77344   0.02768   0.51895   0.00000  Uiso   1.00
N134   N     0.21136   0.82824   0.75682   0.00000  Uiso   1.00
N135   N     0.92313   0.07516   0.17568   0.00000  Uiso   1.00
N136   N     0.84970   0.10911   0.47505   0.00000  Uiso   1.00
N137   N     0.28762   0.90967   0.71291   0.00000  Uiso   1.00
N138   N     0.99939   0.15660   0.13178   0.00000  Uiso   1.00
C139   C     0.48752   0.59063   0.63331   0.00000  Uiso   1.00
C140   C     0.48514   0.63449   0.53888   0.00000  Uiso   1.00
C141   C     0.41535   0.65240   0.48475   0.00000  Uiso   1.00
C142   C     0.42606   0.69288   0.40051   0.00000  Uiso   1.00
C143   C     0.41054   0.75766   0.25826   0.00000  Uiso   1.00
C144   C     0.54576   0.53670   0.60495   0.00000  Uiso   1.00
C145   C     0.52693   0.47239   0.60639   0.00000  Uiso   1.00
C146   C     0.58866   0.43055   0.57777   0.00000  Uiso   1.00
C147   C     0.66727   0.34351   0.53818   0.00000  Uiso   1.00
C148   C     0.52975   0.62811   0.71953   0.00000  Uiso   1.00
C149   C     0.49748   0.64065   0.81732   0.00000  Uiso   1.00
C150   C     0.54575   0.67576   0.88517   0.00000  Uiso   1.00
C151   C     0.59950   0.73065   0.02347   0.00000  Uiso   1.00
C152   C     0.63064   0.63066   0.57995   0.00000  Uiso   1.00
C153   C     0.56288   0.65624   0.50990   0.00000  Uiso   1.00
C154   C     0.57370   0.69670   0.42572   0.00000  Uiso   1.00
C155   C     0.50393   0.71467   0.37147   0.00000  Uiso   1.00
C156   C     0.62349   0.55845   0.57597   0.00000  Uiso   1.00
C157   C     0.68527   0.51669   0.54735   0.00000  Uiso   1.00
C158   C     0.66654   0.45233   0.54874   0.00000  Uiso   1.00
C159   C     0.60749   0.64986   0.69055   0.00000  Uiso   1.00
C160   C     0.65582   0.68495   0.75827   0.00000  Uiso   1.00
C161   C     0.62362   0.69754   0.85614   0.00000  Uiso   1.00
H162   H     0.42700   0.57369   0.65588   0.00000  Uiso   1.00
H163   H     0.35520   0.63556   0.50720   0.00000  Uiso   1.00
H164   H     0.46677   0.45558   0.62883   0.00000  Uiso   1.00
H165   H     0.43732   0.62381   0.83971   0.00000  Uiso   1.00
H166   H     0.30989   0.71372   0.32957   0.00000  Uiso   1.00
H167   H     0.54513   0.33422   0.58606   0.00000  Uiso   1.00
H168   H     0.48303   0.68898   0.03075   0.00000  Uiso   1.00
H169   H     0.69117   0.64759   0.55739   0.00000  Uiso   1.00
H170   H     0.63386   0.71352   0.40331   0.00000  Uiso   1.00
H171   H     0.74542   0.53354   0.52494   0.00000  Uiso   1.00
H172   H     0.71597   0.70177   0.73582   0.00000  Uiso   1.00
H173   H     0.53605   0.77700   0.24524   0.00000  Uiso   1.00
H174   H     0.77130   0.39749   0.50174   0.00000  Uiso   1.00
H175   H     0.70920   0.75225   0.94643   0.00000  Uiso   1.00
O176   O     0.38051   0.78738   0.18780   0.00000  Uiso   1.00
O177   O     0.68914   0.28949   0.52433   0.00000  Uiso   1.00
O178   O     0.60767   0.75492   0.10775   0.00000  Uiso   1.00
N179   N     0.37098   0.71958   0.33088   0.00000  Uiso   1.00
N180   N     0.59091   0.36476   0.57067   0.00000  Uiso   1.00
N181   N     0.53286   0.69642   0.98643   0.00000  Uiso   1.00
N182   N     0.49268   0.75363   0.28550   0.00000  Uiso   1.00
N183   N     0.71261   0.39881   0.52529   0.00000  Uiso   1.00
N184   N     0.65456   0.73047   0.94105   0.00000  Uiso   1.00
C185   C     0.46256   0.53012   0.17899   0.00000  Uiso   1.00
C186   C     0.42907   0.49428   0.27296   0.00000  Uiso   1.00
C187   C     0.35844   0.50952   0.32751   0.00000  Uiso   1.00
C188   C     0.33821   0.47085   0.41122   0.00000  Uiso   1.00
C189   C     0.27882   0.42314   0.55288   0.00000  Uiso   1.00
C190   C     0.54976   0.54925   0.20742   0.00000  Uiso   1.00
C191   C     0.58061   0.61071   0.20686   0.00000  Uiso   1.00
C192   C     0.66199   0.61831   0.23538   0.00000  Uiso   1.00
C193   C     0.78999   0.65594   0.27522   0.00000  Uiso   1.00
C194   C     0.47031   0.48120   0.09199   0.00000  Uiso   1.00
C195   C     0.43437   0.48543   0.99436   0.00000  Uiso   1.00
C196   C     0.44888   0.43575   0.92568   0.00000  Uiso   1.00
C197   C     0.45353   0.36770   0.78631   0.00000  Uiso   1.00
C198   C     0.55224   0.43435   0.23062   0.00000  Uiso   1.00
C199   C     0.47779   0.44227   0.30100   0.00000  Uiso   1.00
C200   C     0.45766   0.40357   0.38463   0.00000  Uiso   1.00
C201   C     0.38701   0.41874   0.43931   0.00000  Uiso   1.00
C202   C     0.59848   0.49724   0.23546   0.00000  Uiso   1.00
C203   C     0.67983   0.50476   0.26398   0.00000  Uiso   1.00
C204   C     0.71079   0.56620   0.26347   0.00000  Uiso   1.00
C205   C     0.51902   0.42918   0.12003   0.00000  Uiso   1.00
C206   C     0.53360   0.37948   0.05149   0.00000  Uiso   1.00
C207   C     0.49768   0.38364   0.95378   0.00000  Uiso   1.00
H208   H     0.42464   0.57062   0.15716   0.00000  Uiso   1.00
H209   H     0.32076   0.54978   0.30579   0.00000  Uiso   1.00
H210   H     0.54290   0.65095   0.18514   0.00000  Uiso   1.00
H211   H     0.39668   0.52569   0.97269   0.00000  Uiso   1.00
H212   H     0.22709   0.50375   0.48297   0.00000  Uiso   1.00
H213   H     0.69548   0.71707   0.22854   0.00000  Uiso   1.00
H214   H     0.38716   0.45295   0.78053   0.00000  Uiso   1.00
H215   H     0.59017   0.39386   0.25245   0.00000  Uiso   1.00
H216   H     0.49537   0.36332   0.40632   0.00000  Uiso   1.00
H217   H     0.71751   0.46449   0.28567   0.00000  Uiso   1.00
H218   H     0.57130   0.33923   0.07321   0.00000  Uiso   1.00
H219   H     0.36881   0.35242   0.56456   0.00000  Uiso   1.00
H220   H     0.83721   0.56574   0.31013   0.00000  Uiso   1.00
H221   H     0.52889   0.30161   0.86212   0.00000  Uiso   1.00
O222   O     0.23262   0.41120   0.62329   0.00000  Uiso   1.00
O223   O     0.84713   0.69107   0.28946   0.00000  Uiso   1.00
O224   O     0.44262   0.34454   0.70169   0.00000  Uiso   1.00
N225   N     0.27344   0.47232   0.48105   0.00000  Uiso   1.00
N226   N     0.71136   0.67176   0.24318   0.00000  Uiso   1.00
N227   N     0.42313   0.42484   0.82432   0.00000  Uiso   1.00
N228   N     0.34970   0.39089   0.52495   0.00000  Uiso   1.00
N229   N     0.78762   0.59033   0.28709   0.00000  Uiso   1.00
N230   N     0.49939   0.34340   0.86822   0.00000  Uiso   1.00
C231   C     0.98752   0.90937   0.36669   0.00000  Uiso   1.00
C232   C     0.98514   0.86551   0.46112   0.00000  Uiso   1.00
C233   C     0.91535   0.84760   0.51525   0.00000  Uiso   1.00
C234   C     0.92606   0.80712   0.59949   0.00000  Uiso   1.00
C235   C     0.91054   0.74234   0.74174   0.00000  Uiso   1.00
C236   C     0.04576   0.96330   0.39505   0.00000  Uiso   1.00
C237   C     0.02693   0.02761   0.39361   0.00000  Uiso   1.00
C238   C     0.08866   0.06945   0.42223   0.00000  Uiso   1.00
C239   C     0.16727   0.15649   0.46182   0.00000  Uiso   1.00
C240   C     0.02975   0.87189   0.28047   0.00000  Uiso   1.00
C241   C     0.99748   0.85935   0.18268   0.00000  Uiso   1.00
C242   C     0.04575   0.82424   0.11483   0.00000  Uiso   1.00
C243   C     0.09950   0.76935   0.97653   0.00000  Uiso   1.00
C244   C     0.13064   0.86934   0.42005   0.00000  Uiso   1.00
C245   C     0.06288   0.84376   0.49010   0.00000  Uiso   1.00
C246   C     0.07370   0.80330   0.57428   0.00000  Uiso   1.00
C247   C     0.00393   0.78533   0.62853   0.00000  Uiso   1.00
C248   C     0.12349   0.94155   0.42403   0.00000  Uiso   1.00
C249   C     0.18527   0.98331   0.45265   0.00000  Uiso   1.00
C250   C     0.16654   0.04767   0.45126   0.00000  Uiso   1.00
C251   C     0.10749   0.85014   0.30945   0.00000  Uiso   1.00
C252   C     0.15582   0.81505   0.24173   0.00000  Uiso   1.00
C253   C     0.12362   0.80246   0.14386   0.00000  Uiso   1.00
H254   H     0.92700   0.92631   0.34412   0.00000  Uiso   1.00
H255   H     0.85520   0.86444   0.49280   0.00000  Uiso   1.00
H256   H     0.96677   0.04442   0.37117   0.00000  Uiso   1.00
H257   H     0.93732   0.87619   0.16029   0.00000  Uiso   1.00
H258   H     0.80989   0.78628   0.67043   0.00000  Uiso   1.00
H259   H     0.04513   0.16578   0.41394   0.00000  Uiso   1.00
H260   H     0.98303   0.81102   0.96925   0.00000  Uiso   1.00
H261   H     0.19117   0.85241   0.44261   0.00000  Uiso   1.00
H262   H     0.13386   0.78648   0.59669   0.00000  Uiso   1.00
H263   H     0.24542   0.96646   0.47506   0.00000  Uiso   1.00
H264   H     0.21597   0.79823   0.26418   0.00000  Uiso   1.00
H265   H     0.03605   0.72300   0.75476   0.00000  Uiso   1.00
H266   H     0.27130   0.10251   0.49826   0.00000  Uiso   1.00
H267   H     0.20920   0.74775   0.05357   0.00000  Uiso   1.00
O268   O     0.88051   0.71262   0.81220   0.00000  Uiso   1.00
O269   O     0.18914   0.21051   0.47567   0.00000  Uiso   1.00
O270   O     0.10767   0.74508   0.89225   0.00000  Uiso   1.00
N271   N     0.87098   0.78042   0.66912   0.00000  Uiso   1.00
N272   N     0.09091   0.13524   0.42933   0.00000  Uiso   1.00
N273   N     0.03286   0.80358   0.01357   0.00000  Uiso   1.00
N274   N     0.99268   0.74637   0.71450   0.00000  Uiso   1.00
N275   N     0.21261   0.10119   0.47471   0.00000  Uiso   1.00
N276   N     0.15456   0.76953   0.05895   0.00000  Uiso   1.00
C277   C     0.03744   0.46988   0.67899   0.00000  Uiso   1.00
C278   C     0.07093   0.50572   0.77296   0.00000  Uiso   1.00
C279   C     0.14156   0.49048   0.82751   0.00000  Uiso   1.00
C280   C     0.16179   0.52915   0.91122   0.00000  Uiso   1.00
C281   C     0.22118   0.57686   0.05288   0.00000  Uiso   1.00
C282   C     0.95024   0.45075   0.70742   0.00000  Uiso   1.00
C283   C     0.91939   0.38929   0.70686   0.00000  Uiso   1.00
C284   C     0.83801   0.38169   0.73538   0.00000  Uiso   1.00
C285   C     0.71001   0.34406   0.77522   0.00000  Uiso   1.00
C286   C     0.02969   0.51880   0.59199   0.00000  Uiso   1.00
C287   C     0.06563   0.51457   0.49436   0.00000  Uiso   1.00
C288   C     0.05112   0.56425   0.42568   0.00000  Uiso   1.00
C289   C     0.04647   0.63230   0.28631   0.00000  Uiso   1.00
C290   C     0.94776   0.56565   0.73062   0.00000  Uiso   1.00
C291   C     0.02221   0.55773   0.80100   0.00000  Uiso   1.00
C292   C     0.04234   0.59643   0.88463   0.00000  Uiso   1.00
C293   C     0.11299   0.58126   0.93931   0.00000  Uiso   1.00
C294   C     0.90152   0.50276   0.73546   0.00000  Uiso   1.00
C295   C     0.82017   0.49524   0.76398   0.00000  Uiso   1.00
C296   C     0.78921   0.43380   0.76347   0.00000  Uiso   1.00
C297   C     0.98098   0.57082   0.62003   0.00000  Uiso   1.00
C298   C     0.96640   0.62052   0.55149   0.00000  Uiso   1.00
C299   C     0.00232   0.61636   0.45378   0.00000  Uiso   1.00
H300   H     0.07536   0.42938   0.65716   0.00000  Uiso   1.00
H301   H     0.17924   0.45022   0.80579   0.00000  Uiso   1.00
H302   H     0.95710   0.34905   0.68514   0.00000  Uiso   1.00
H303   H     0.10332   0.47431   0.47269   0.00000  Uiso   1.00
H304   H     0.27291   0.49625   0.98297   0.00000  Uiso   1.00
H305   H     0.80452   0.28293   0.72854   0.00000  Uiso   1.00
H306   H     0.11284   0.54705   0.28053   0.00000  Uiso   1.00
H307   H     0.90983   0.60614   0.75245   0.00000  Uiso   1.00
H308   H     0.00463   0.63668   0.90632   0.00000  Uiso   1.00
H309   H     0.78249   0.53551   0.78567   0.00000  Uiso   1.00
H310   H     0.92870   0.66077   0.57321   0.00000  Uiso   1.00
H311   H     0.13119   0.64758   0.06456   0.00000  Uiso   1.00
H312   H     0.66279   0.43426   0.81013   0.00000  Uiso   1.00
H313   H     0.97111   0.69839   0.36212   0.00000  Uiso   1.00
O314   O     0.26738   0.58880   0.12329   0.00000  Uiso   1.00
O315   O     0.65287   0.30893   0.78946   0.00000  Uiso   1.00
O316   O     0.05738   0.65546   0.20169   0.00000  Uiso   1.00
N317   N     0.22656   0.52768   0.98105   0.00000  Uiso   1.00
N318   N     0.78864   0.32824   0.74318   0.00000  Uiso   1.00
N319   N     0.07687   0.57516   0.32432   0.00000  Uiso   1.00
N320   N     0.15030   0.60911   0.02495   0.00000  Uiso   1.00
N321   N     0.71238   0.40967   0.78709   0.00000  Uiso   1.00
N322   N     0.00061   0.65660   0.36822   0.00000  Uiso   1.00
C323   C     0.51248   0.09063   0.86669   0.00000  Uiso   1.00
C324   C     0.51486   0.13449   0.96112   0.00000  Uiso   1.00
C325   C     0.58465   0.15240   0.01525   0.00000  Uiso   1.00
C326   C     0.57394   0.19288   0.09949   0.00000  Uiso   1.00
C327   C     0.58946   0.25766   0.24174   0.00000  Uiso   1.00
C328   C     0.45424   0.03670   0.89505   0.00000  Uiso   1.00
C329   C     0.47307   0.97239   0.89361   0.00000  Uiso   1.00
C330   C     0.41134   0.93055   0.92223   0.00000  Uiso   1.00
C331   C     0.33273   0.84351   0.96182   0.00000  Uiso   1.00
C332   C     0.47025   0.12811   0.78047   0.00000  Uiso   1.00
C333   C     0.50252   0.14065   0.68268   0.00000  Uiso   1.00
C334   C     0.45425   0.17576   0.61483   0.00000  Uiso   1.00
C335   C     0.40050   0.23065   0.47653   0.00000  Uiso   1.00
C336   C     0.36936   0.13066   0.92005   0.00000  Uiso   1.00
C337   C     0.43712   0.15624   0.99010   0.00000  Uiso   1.00
C338   C     0.42630   0.19670   0.07428   0.00000  Uiso   1.00
C339   C     0.49607   0.21467   0.12853   0.00000  Uiso   1.00
C340   C     0.37651   0.05845   0.92403   0.00000  Uiso   1.00
C341   C     0.31473   0.01669   0.95265   0.00000  Uiso   1.00
C342   C     0.33346   0.95233   0.95126   0.00000  Uiso   1.00
C343   C     0.39251   0.14986   0.80945   0.00000  Uiso   1.00
C344   C     0.34418   0.18495   0.74173   0.00000  Uiso   1.00
C345   C     0.37638   0.19754   0.64386   0.00000  Uiso   1.00
H346   H     0.57300   0.07369   0.84412   0.00000  Uiso   1.00
H347   H     0.64480   0.13556   0.99280   0.00000  Uiso   1.00
H348   H     0.53323   0.95558   0.87117   0.00000  Uiso   1.00
H349   H     0.56268   0.12381   0.66029   0.00000  Uiso   1.00
H350   H     0.69011   0.21372   0.17043   0.00000  Uiso   1.00
H351   H     0.45487   0.83422   0.91394   0.00000  Uiso   1.00
H352   H     0.51697   0.18898   0.46925   0.00000  Uiso   1.00
H353   H     0.30883   0.14759   0.94261   0.00000  Uiso   1.00
H354   H     0.36614   0.21352   0.09669   0.00000  Uiso   1.00
H355   H     0.25458   0.03354   0.97506   0.00000  Uiso   1.00
H356   H     0.28403   0.20177   0.76418   0.00000  Uiso   1.00
H357   H     0.46395   0.27700   0.25476   0.00000  Uiso   1.00
H358   H     0.22870   0.89749   0.99826   0.00000  Uiso   1.00
H359   H     0.29080   0.25225   0.55357   0.00000  Uiso   1.00
O360   O     0.61949   0.28738   0.31220   0.00000  Uiso   1.00
O361   O     0.31086   0.78949   0.97567   0.00000  Uiso   1.00
O362   O     0.39233   0.25492   0.39225   0.00000  Uiso   1.00
N363   N     0.62902   0.21958   0.16912   0.00000  Uiso   1.00
N364   N     0.40909   0.86476   0.92933   0.00000  Uiso   1.00
N365   N     0.46714   0.19642   0.51357   0.00000  Uiso   1.00
N366   N     0.50732   0.25363   0.21450   0.00000  Uiso   1.00
N367   N     0.28739   0.89881   0.97471   0.00000  Uiso   1.00
N368   N     0.34544   0.23047   0.55895   0.00000  Uiso   1.00
