data_job_00243
_audit_creation_date              2018-12-19
_audit_creation_method            'Materials Studio'
_symmetry_space_group_name_H-M    'P1'
_symmetry_Int_Tables_number       1
_symmetry_cell_setting            triclinic
loop_
_symmetry_equiv_pos_as_xyz
  x,y,z
_cell_length_a                    18.7007
_cell_length_b                    18.7007
_cell_length_c                    11.5600
_cell_angle_alpha                 90.0000
_cell_angle_beta                  90.0000
_cell_angle_gamma                 120.0000
loop_
_atom_site_label
_atom_site_type_symbol
_atom_site_fract_x
_atom_site_fract_y
_atom_site_fract_z
_atom_site_U_iso_or_equiv
_atom_site_adp_type
_atom_site_occupancy
C1     C     0.85842   0.57650   0.87440   0.00000  Uiso   1.00
C2     C     0.93617   0.66109   0.86629   0.00000  Uiso   1.00
C3     C     0.94870   0.73241   0.92134   0.00000  Uiso   1.00
C4     C     0.02405   0.80360   0.90290   0.00000  Uiso   1.00
C5     C     0.13555   0.93499   0.90107   0.00000  Uiso   1.00
C6     C     0.82895   0.55078   0.75038   0.00000  Uiso   1.00
C7     C     0.75133   0.52932   0.70797   0.00000  Uiso   1.00
C8     C     0.73643   0.50764   0.59196   0.00000  Uiso   1.00
C9     C     0.68145   0.46770   0.41018   0.00000  Uiso   1.00
C10    C     0.88658   0.51736   0.91699   0.00000  Uiso   1.00
C11    C     0.85739   0.46779   0.01467   0.00000  Uiso   1.00
C12    C     0.89100   0.41795   0.03892   0.00000  Uiso   1.00
C13    C     0.92549   0.32614   0.11584   0.00000  Uiso   1.00
C14    C     0.96998   0.57611   0.74377   0.00000  Uiso   1.00
C15    C     0.99676   0.66088   0.79534   0.00000  Uiso   1.00
C16    C     0.07212   0.73198   0.77682   0.00000  Uiso   1.00
C17    C     0.08476   0.80339   0.83183   0.00000  Uiso   1.00
C18    C     0.88954   0.55057   0.67942   0.00000  Uiso   1.00
C19    C     0.87475   0.52890   0.56345   0.00000  Uiso   1.00
C20    C     0.79713   0.50743   0.52087   0.00000  Uiso   1.00
C21    C     0.94717   0.51715   0.84604   0.00000  Uiso   1.00
C22    C     0.98082   0.46737   0.87014   0.00000  Uiso   1.00
C23    C     0.95170   0.41774   0.96783   0.00000  Uiso   1.00
H24    H     0.81124   0.57666   0.92963   0.00000  Uiso   1.00
H25    H     0.90178   0.73255   0.97624   0.00000  Uiso   1.00
H26    H     0.70445   0.52948   0.76290   0.00000  Uiso   1.00
H27    H     0.81050   0.46797   0.06955   0.00000  Uiso   1.00
H28    H     0.02888   0.90529   0.99658   0.00000  Uiso   1.00
H29    H     0.61277   0.47710   0.54677   0.00000  Uiso   1.00
H30    H     0.83640   0.34738   0.19339   0.00000  Uiso   1.00
H31    H     0.01715   0.57595   0.68853   0.00000  Uiso   1.00
H32    H     0.11900   0.73180   0.72190   0.00000  Uiso   1.00
H33    H     0.92166   0.52874   0.50857   0.00000  Uiso   1.00
H34    H     0.02771   0.46723   0.81522   0.00000  Uiso   1.00
H35    H     0.20518   0.90469   0.79015   0.00000  Uiso   1.00
H36    H     0.78907   0.47649   0.34034   0.00000  Uiso   1.00
H37    H     0.01270   0.34678   0.98696   0.00000  Uiso   1.00
O38    O     0.18030   0.00753   0.91964   0.00000  Uiso   1.00
O39    O     0.63438   0.44575   0.32951   0.00000  Uiso   1.00
O40    O     0.92778   0.27556   0.17787   0.00000  Uiso   1.00
N41    N     0.05640   0.88376   0.94344   0.00000  Uiso   1.00
N42    N     0.66737   0.48344   0.52288   0.00000  Uiso   1.00
N43    N     0.87643   0.36214   0.12741   0.00000  Uiso   1.00
N44    N     0.15127   0.88343   0.83236   0.00000  Uiso   1.00
N45    N     0.76223   0.48311   0.41181   0.00000  Uiso   1.00
N46    N     0.97130   0.36182   0.01633   0.00000  Uiso   1.00
C47    C     0.42350   0.28192   0.87440   0.00000  Uiso   1.00
C48    C     0.33891   0.27508   0.86629   0.00000  Uiso   1.00
C49    C     0.26759   0.21629   0.92134   0.00000  Uiso   1.00
C50    C     0.19640   0.22046   0.90290   0.00000  Uiso   1.00
C51    C     0.06501   0.20055   0.90107   0.00000  Uiso   1.00
C52    C     0.44922   0.27818   0.75038   0.00000  Uiso   1.00
C53    C     0.47068   0.22200   0.70797   0.00000  Uiso   1.00
C54    C     0.49236   0.22879   0.59196   0.00000  Uiso   1.00
C55    C     0.53230   0.21374   0.41018   0.00000  Uiso   1.00
C56    C     0.48264   0.36922   0.91699   0.00000  Uiso   1.00
C57    C     0.53221   0.38960   0.01467   0.00000  Uiso   1.00
C58    C     0.58205   0.47304   0.03892   0.00000  Uiso   1.00
C59    C     0.67386   0.59935   0.11584   0.00000  Uiso   1.00
C60    C     0.42389   0.39386   0.74377   0.00000  Uiso   1.00
C61    C     0.33912   0.33588   0.79534   0.00000  Uiso   1.00
C62    C     0.26802   0.34014   0.77682   0.00000  Uiso   1.00
C63    C     0.19661   0.28137   0.83183   0.00000  Uiso   1.00
C64    C     0.44943   0.33898   0.67942   0.00000  Uiso   1.00
C65    C     0.47110   0.34585   0.56345   0.00000  Uiso   1.00
C66    C     0.49257   0.28970   0.52087   0.00000  Uiso   1.00
C67    C     0.48285   0.43002   0.84604   0.00000  Uiso   1.00
C68    C     0.53263   0.51345   0.87014   0.00000  Uiso   1.00
C69    C     0.58226   0.53395   0.96783   0.00000  Uiso   1.00
H70    H     0.42334   0.23458   0.92963   0.00000  Uiso   1.00
H71    H     0.26745   0.16924   0.97624   0.00000  Uiso   1.00
H72    H     0.47052   0.17496   0.76290   0.00000  Uiso   1.00
H73    H     0.53203   0.34253   0.06955   0.00000  Uiso   1.00
H74    H     0.09471   0.12359   0.99658   0.00000  Uiso   1.00
H75    H     0.52290   0.13567   0.54677   0.00000  Uiso   1.00
H76    H     0.65262   0.48903   0.19339   0.00000  Uiso   1.00
H77    H     0.42405   0.44120   0.68853   0.00000  Uiso   1.00
H78    H     0.26820   0.38720   0.72190   0.00000  Uiso   1.00
H79    H     0.47126   0.39292   0.50857   0.00000  Uiso   1.00
H80    H     0.53277   0.56049   0.81522   0.00000  Uiso   1.00
H81    H     0.09531   0.30049   0.79015   0.00000  Uiso   1.00
H82    H     0.52351   0.31257   0.34034   0.00000  Uiso   1.00
H83    H     0.65322   0.66593   0.98696   0.00000  Uiso   1.00
O84    O     0.99247   0.17277   0.91964   0.00000  Uiso   1.00
O85    O     0.55425   0.18863   0.32951   0.00000  Uiso   1.00
O86    O     0.72444   0.65222   0.17787   0.00000  Uiso   1.00
N87    N     0.11624   0.17265   0.94344   0.00000  Uiso   1.00
N88    N     0.51656   0.18393   0.52288   0.00000  Uiso   1.00
N89    N     0.63786   0.51429   0.12741   0.00000  Uiso   1.00
N90    N     0.11657   0.26784   0.83236   0.00000  Uiso   1.00
N91    N     0.51689   0.27912   0.41181   0.00000  Uiso   1.00
N92    N     0.63818   0.60948   0.01633   0.00000  Uiso   1.00
C93    C     0.71808   0.14158   0.87440   0.00000  Uiso   1.00
C94    C     0.72492   0.06383   0.86629   0.00000  Uiso   1.00
C95    C     0.78371   0.05130   0.92134   0.00000  Uiso   1.00
C96    C     0.77954   0.97595   0.90290   0.00000  Uiso   1.00
C97    C     0.79945   0.86445   0.90107   0.00000  Uiso   1.00
C98    C     0.72182   0.17105   0.75038   0.00000  Uiso   1.00
C99    C     0.77800   0.24867   0.70797   0.00000  Uiso   1.00
C100   C     0.77121   0.26357   0.59196   0.00000  Uiso   1.00
C101   C     0.78626   0.31855   0.41018   0.00000  Uiso   1.00
C102   C     0.63078   0.11342   0.91699   0.00000  Uiso   1.00
C103   C     0.61040   0.14261   0.01467   0.00000  Uiso   1.00
C104   C     0.52696   0.10900   0.03892   0.00000  Uiso   1.00
C105   C     0.40065   0.07451   0.11584   0.00000  Uiso   1.00
C106   C     0.60614   0.03002   0.74377   0.00000  Uiso   1.00
C107   C     0.66412   0.00324   0.79534   0.00000  Uiso   1.00
C108   C     0.65986   0.92788   0.77682   0.00000  Uiso   1.00
C109   C     0.71863   0.91524   0.83183   0.00000  Uiso   1.00
C110   C     0.66102   0.11046   0.67942   0.00000  Uiso   1.00
C111   C     0.65415   0.12525   0.56345   0.00000  Uiso   1.00
C112   C     0.71030   0.20287   0.52087   0.00000  Uiso   1.00
C113   C     0.56998   0.05283   0.84604   0.00000  Uiso   1.00
C114   C     0.48655   0.01918   0.87014   0.00000  Uiso   1.00
C115   C     0.46605   0.04830   0.96783   0.00000  Uiso   1.00
H116   H     0.76542   0.18876   0.92963   0.00000  Uiso   1.00
H117   H     0.83076   0.09822   0.97624   0.00000  Uiso   1.00
H118   H     0.82504   0.29555   0.76290   0.00000  Uiso   1.00
H119   H     0.65747   0.18950   0.06955   0.00000  Uiso   1.00
H120   H     0.87641   0.97112   0.99658   0.00000  Uiso   1.00
H121   H     0.86433   0.38723   0.54677   0.00000  Uiso   1.00
H122   H     0.51097   0.16360   0.19339   0.00000  Uiso   1.00
H123   H     0.55880   0.98285   0.68853   0.00000  Uiso   1.00
H124   H     0.61280   0.88100   0.72190   0.00000  Uiso   1.00
H125   H     0.60708   0.07834   0.50857   0.00000  Uiso   1.00
H126   H     0.43951   0.97229   0.81522   0.00000  Uiso   1.00
H127   H     0.69951   0.79482   0.79015   0.00000  Uiso   1.00
H128   H     0.68743   0.21093   0.34034   0.00000  Uiso   1.00
H129   H     0.33407   0.98730   0.98696   0.00000  Uiso   1.00
O130   O     0.82723   0.81970   0.91964   0.00000  Uiso   1.00
O131   O     0.81137   0.36562   0.32951   0.00000  Uiso   1.00
O132   O     0.34778   0.07222   0.17787   0.00000  Uiso   1.00
N133   N     0.82735   0.94360   0.94344   0.00000  Uiso   1.00
N134   N     0.81607   0.33263   0.52288   0.00000  Uiso   1.00
N135   N     0.48571   0.12357   0.12741   0.00000  Uiso   1.00
N136   N     0.73216   0.84873   0.83236   0.00000  Uiso   1.00
N137   N     0.72088   0.23777   0.41181   0.00000  Uiso   1.00
N138   N     0.39052   0.02870   0.01633   0.00000  Uiso   1.00
C139   C     0.57650   0.85842   0.37440   0.00000  Uiso   1.00
C140   C     0.66109   0.93617   0.36629   0.00000  Uiso   1.00
C141   C     0.73241   0.94870   0.42134   0.00000  Uiso   1.00
C142   C     0.80360   0.02405   0.40290   0.00000  Uiso   1.00
C143   C     0.93499   0.13555   0.40107   0.00000  Uiso   1.00
C144   C     0.55078   0.82895   0.25038   0.00000  Uiso   1.00
C145   C     0.52932   0.75133   0.20797   0.00000  Uiso   1.00
C146   C     0.50764   0.73643   0.09196   0.00000  Uiso   1.00
C147   C     0.46770   0.68145   0.91018   0.00000  Uiso   1.00
C148   C     0.51736   0.88658   0.41699   0.00000  Uiso   1.00
C149   C     0.46779   0.85739   0.51467   0.00000  Uiso   1.00
C150   C     0.41795   0.89100   0.53892   0.00000  Uiso   1.00
C151   C     0.32614   0.92549   0.61584   0.00000  Uiso   1.00
C152   C     0.57611   0.96998   0.24377   0.00000  Uiso   1.00
C153   C     0.66088   0.99676   0.29534   0.00000  Uiso   1.00
C154   C     0.73198   0.07212   0.27682   0.00000  Uiso   1.00
C155   C     0.80339   0.08476   0.33183   0.00000  Uiso   1.00
C156   C     0.55057   0.88954   0.17942   0.00000  Uiso   1.00
C157   C     0.52890   0.87475   0.06345   0.00000  Uiso   1.00
C158   C     0.50743   0.79713   0.02087   0.00000  Uiso   1.00
C159   C     0.51715   0.94717   0.34604   0.00000  Uiso   1.00
C160   C     0.46737   0.98082   0.37014   0.00000  Uiso   1.00
C161   C     0.41774   0.95170   0.46783   0.00000  Uiso   1.00
H162   H     0.57666   0.81124   0.42963   0.00000  Uiso   1.00
H163   H     0.73255   0.90178   0.47624   0.00000  Uiso   1.00
H164   H     0.52948   0.70445   0.26290   0.00000  Uiso   1.00
H165   H     0.46797   0.81050   0.56955   0.00000  Uiso   1.00
H166   H     0.90529   0.02888   0.49658   0.00000  Uiso   1.00
H167   H     0.47710   0.61277   0.04677   0.00000  Uiso   1.00
H168   H     0.34738   0.83640   0.69339   0.00000  Uiso   1.00
H169   H     0.57595   0.01715   0.18853   0.00000  Uiso   1.00
H170   H     0.73180   0.11900   0.22190   0.00000  Uiso   1.00
H171   H     0.52874   0.92166   0.00857   0.00000  Uiso   1.00
H172   H     0.46723   0.02771   0.31522   0.00000  Uiso   1.00
H173   H     0.90469   0.20518   0.29015   0.00000  Uiso   1.00
H174   H     0.47649   0.78907   0.84034   0.00000  Uiso   1.00
H175   H     0.34678   0.01270   0.48696   0.00000  Uiso   1.00
O176   O     0.00753   0.18030   0.41964   0.00000  Uiso   1.00
O177   O     0.44575   0.63438   0.82951   0.00000  Uiso   1.00
O178   O     0.27556   0.92778   0.67787   0.00000  Uiso   1.00
N179   N     0.88376   0.05640   0.44344   0.00000  Uiso   1.00
N180   N     0.48344   0.66737   0.02288   0.00000  Uiso   1.00
N181   N     0.36214   0.87643   0.62741   0.00000  Uiso   1.00
N182   N     0.88343   0.15127   0.33236   0.00000  Uiso   1.00
N183   N     0.48311   0.76223   0.91181   0.00000  Uiso   1.00
N184   N     0.36182   0.97130   0.51633   0.00000  Uiso   1.00
C185   C     0.28192   0.42350   0.37440   0.00000  Uiso   1.00
C186   C     0.27508   0.33891   0.36629   0.00000  Uiso   1.00
C187   C     0.21629   0.26759   0.42134   0.00000  Uiso   1.00
C188   C     0.22046   0.19640   0.40290   0.00000  Uiso   1.00
C189   C     0.20055   0.06501   0.40107   0.00000  Uiso   1.00
C190   C     0.27818   0.44922   0.25038   0.00000  Uiso   1.00
C191   C     0.22200   0.47068   0.20797   0.00000  Uiso   1.00
C192   C     0.22879   0.49236   0.09196   0.00000  Uiso   1.00
C193   C     0.21374   0.53230   0.91018   0.00000  Uiso   1.00
C194   C     0.36922   0.48264   0.41699   0.00000  Uiso   1.00
C195   C     0.38960   0.53221   0.51467   0.00000  Uiso   1.00
C196   C     0.47304   0.58205   0.53892   0.00000  Uiso   1.00
C197   C     0.59935   0.67386   0.61584   0.00000  Uiso   1.00
C198   C     0.39386   0.42389   0.24377   0.00000  Uiso   1.00
C199   C     0.33588   0.33912   0.29534   0.00000  Uiso   1.00
C200   C     0.34014   0.26802   0.27682   0.00000  Uiso   1.00
C201   C     0.28137   0.19661   0.33183   0.00000  Uiso   1.00
C202   C     0.33898   0.44943   0.17942   0.00000  Uiso   1.00
C203   C     0.34585   0.47110   0.06345   0.00000  Uiso   1.00
C204   C     0.28970   0.49257   0.02087   0.00000  Uiso   1.00
C205   C     0.43002   0.48285   0.34604   0.00000  Uiso   1.00
C206   C     0.51345   0.53263   0.37014   0.00000  Uiso   1.00
C207   C     0.53395   0.58226   0.46783   0.00000  Uiso   1.00
H208   H     0.23458   0.42334   0.42963   0.00000  Uiso   1.00
H209   H     0.16924   0.26745   0.47624   0.00000  Uiso   1.00
H210   H     0.17496   0.47052   0.26290   0.00000  Uiso   1.00
H211   H     0.34253   0.53203   0.56955   0.00000  Uiso   1.00
H212   H     0.12359   0.09471   0.49658   0.00000  Uiso   1.00
H213   H     0.13567   0.52290   0.04677   0.00000  Uiso   1.00
H214   H     0.48903   0.65262   0.69339   0.00000  Uiso   1.00
H215   H     0.44120   0.42405   0.18853   0.00000  Uiso   1.00
H216   H     0.38720   0.26820   0.22190   0.00000  Uiso   1.00
H217   H     0.39292   0.47126   0.00857   0.00000  Uiso   1.00
H218   H     0.56049   0.53277   0.31522   0.00000  Uiso   1.00
H219   H     0.30049   0.09531   0.29015   0.00000  Uiso   1.00
H220   H     0.31257   0.52351   0.84034   0.00000  Uiso   1.00
H221   H     0.66593   0.65322   0.48696   0.00000  Uiso   1.00
O222   O     0.17277   0.99247   0.41964   0.00000  Uiso   1.00
O223   O     0.18863   0.55425   0.82951   0.00000  Uiso   1.00
O224   O     0.65222   0.72444   0.67787   0.00000  Uiso   1.00
N225   N     0.17265   0.11624   0.44344   0.00000  Uiso   1.00
N226   N     0.18393   0.51656   0.02288   0.00000  Uiso   1.00
N227   N     0.51429   0.63786   0.62741   0.00000  Uiso   1.00
N228   N     0.26784   0.11657   0.33236   0.00000  Uiso   1.00
N229   N     0.27912   0.51689   0.91181   0.00000  Uiso   1.00
N230   N     0.60948   0.63818   0.51633   0.00000  Uiso   1.00
C231   C     0.14158   0.71808   0.37440   0.00000  Uiso   1.00
C232   C     0.06383   0.72492   0.36629   0.00000  Uiso   1.00
C233   C     0.05130   0.78371   0.42134   0.00000  Uiso   1.00
C234   C     0.97595   0.77954   0.40290   0.00000  Uiso   1.00
C235   C     0.86445   0.79945   0.40107   0.00000  Uiso   1.00
C236   C     0.17105   0.72182   0.25038   0.00000  Uiso   1.00
C237   C     0.24867   0.77800   0.20797   0.00000  Uiso   1.00
C238   C     0.26357   0.77121   0.09196   0.00000  Uiso   1.00
C239   C     0.31855   0.78626   0.91018   0.00000  Uiso   1.00
C240   C     0.11342   0.63078   0.41699   0.00000  Uiso   1.00
C241   C     0.14261   0.61040   0.51467   0.00000  Uiso   1.00
C242   C     0.10900   0.52696   0.53892   0.00000  Uiso   1.00
C243   C     0.07451   0.40065   0.61584   0.00000  Uiso   1.00
C244   C     0.03002   0.60614   0.24377   0.00000  Uiso   1.00
C245   C     0.00324   0.66412   0.29534   0.00000  Uiso   1.00
C246   C     0.92788   0.65986   0.27682   0.00000  Uiso   1.00
C247   C     0.91524   0.71863   0.33183   0.00000  Uiso   1.00
C248   C     0.11046   0.66102   0.17942   0.00000  Uiso   1.00
C249   C     0.12525   0.65415   0.06345   0.00000  Uiso   1.00
C250   C     0.20287   0.71030   0.02087   0.00000  Uiso   1.00
C251   C     0.05283   0.56998   0.34604   0.00000  Uiso   1.00
C252   C     0.01918   0.48655   0.37014   0.00000  Uiso   1.00
C253   C     0.04830   0.46605   0.46783   0.00000  Uiso   1.00
H254   H     0.18876   0.76542   0.42963   0.00000  Uiso   1.00
H255   H     0.09822   0.83076   0.47624   0.00000  Uiso   1.00
H256   H     0.29555   0.82504   0.26290   0.00000  Uiso   1.00
H257   H     0.18950   0.65747   0.56955   0.00000  Uiso   1.00
H258   H     0.97112   0.87641   0.49658   0.00000  Uiso   1.00
H259   H     0.38723   0.86433   0.04677   0.00000  Uiso   1.00
H260   H     0.16360   0.51097   0.69339   0.00000  Uiso   1.00
H261   H     0.98285   0.55880   0.18853   0.00000  Uiso   1.00
H262   H     0.88100   0.61280   0.22190   0.00000  Uiso   1.00
H263   H     0.07834   0.60708   0.00857   0.00000  Uiso   1.00
H264   H     0.97229   0.43951   0.31522   0.00000  Uiso   1.00
H265   H     0.79482   0.69951   0.29015   0.00000  Uiso   1.00
H266   H     0.21093   0.68743   0.84034   0.00000  Uiso   1.00
H267   H     0.98730   0.33407   0.48696   0.00000  Uiso   1.00
O268   O     0.81970   0.82723   0.41964   0.00000  Uiso   1.00
O269   O     0.36562   0.81137   0.82951   0.00000  Uiso   1.00
O270   O     0.07222   0.34778   0.67787   0.00000  Uiso   1.00
N271   N     0.94360   0.82735   0.44344   0.00000  Uiso   1.00
N272   N     0.33263   0.81607   0.02288   0.00000  Uiso   1.00
N273   N     0.12357   0.48571   0.62741   0.00000  Uiso   1.00
N274   N     0.84873   0.73216   0.33236   0.00000  Uiso   1.00
N275   N     0.23777   0.72088   0.91181   0.00000  Uiso   1.00
N276   N     0.02870   0.39052   0.51633   0.00000  Uiso   1.00
