data_job_03141
_audit_creation_date              2018-12-19
_audit_creation_method            'Materials Studio'
_symmetry_space_group_name_H-M    'P1'
_symmetry_Int_Tables_number       1
_symmetry_cell_setting            triclinic
loop_
_symmetry_equiv_pos_as_xyz
  x,y,z
_cell_length_a                    26.2104
_cell_length_b                    13.6653
_cell_length_c                    15.5982
_cell_angle_alpha                 90.0000
_cell_angle_beta                  149.7342
_cell_angle_gamma                 90.0000
loop_
_atom_site_label
_atom_site_type_symbol
_atom_site_fract_x
_atom_site_fract_y
_atom_site_fract_z
_atom_site_U_iso_or_equiv
_atom_site_adp_type
_atom_site_occupancy
C1     C     0.74284   0.12767   0.64951   0.00000  Uiso   1.00
C2     C     0.63771   0.15256   0.53091   0.00000  Uiso   1.00
C3     C     0.55302   0.17252   0.35835   0.00000  Uiso   1.00
C4     C     0.46383   0.19368   0.27217   0.00000  Uiso   1.00
C5     C     0.30124   0.23221   0.07532   0.00000  Uiso   1.00
C6     C     0.81462   0.20253   0.79319   0.00000  Uiso   1.00
C7     C     0.87869   0.26449   0.84116   0.00000  Uiso   1.00
C8     C     0.93842   0.32770   0.97578   0.00000  Uiso   1.00
C9     C     0.05055   0.44375   0.18621   0.00000  Uiso   1.00
C10    C     0.77083   0.02935   0.72984   0.00000  Uiso   1.00
C11    C     0.79812   0.94570   0.72458   0.00000  Uiso   1.00
C12    C     0.82101   0.86311   0.80590   0.00000  Uiso   1.00
C13    C     0.86516   0.71028   0.91796   0.00000  Uiso   1.00
C14    C     0.73502   0.12975   0.80332   0.00000  Uiso   1.00
C15    C     0.63347   0.15370   0.61446   0.00000  Uiso   1.00
C16    C     0.54437   0.17483   0.52852   0.00000  Uiso   1.00
C17    C     0.45957   0.19481   0.35585   0.00000  Uiso   1.00
C18    C     0.81037   0.20367   0.87673   0.00000  Uiso   1.00
C19    C     0.87003   0.26679   0.01133   0.00000  Uiso   1.00
C20    C     0.93417   0.32884   0.05948   0.00000  Uiso   1.00
C21    C     0.76659   0.03048   0.81338   0.00000  Uiso   1.00
C22    C     0.78946   0.94801   0.89474   0.00000  Uiso   1.00
C23    C     0.81676   0.86425   0.88960   0.00000  Uiso   1.00
H24    H     0.74615   0.12679   0.58448   0.00000  Uiso   1.00
H25    H     0.55634   0.17165   0.29375   0.00000  Uiso   1.00
H26    H     0.88196   0.26359   0.77650   0.00000  Uiso   1.00
H27    H     0.80139   0.94485   0.65992   0.00000  Uiso   1.00
H28    H     0.34404   0.22191   0.00827   0.00000  Uiso   1.00
H29    H     0.03065   0.41575   0.02621   0.00000  Uiso   1.00
H30    H     0.86077   0.74363   0.78040   0.00000  Uiso   1.00
H31    H     0.73172   0.13064   0.86837   0.00000  Uiso   1.00
H32    H     0.54111   0.17570   0.59320   0.00000  Uiso   1.00
H33    H     0.86673   0.26765   0.07595   0.00000  Uiso   1.00
H34    H     0.78616   0.94891   0.95937   0.00000  Uiso   1.00
H35    H     0.33168   0.22521   0.25132   0.00000  Uiso   1.00
H36    H     0.01830   0.41905   0.26926   0.00000  Uiso   1.00
H37    H     0.84840   0.74693   0.02344   0.00000  Uiso   1.00
O38    O     0.21274   0.25317   0.94367   0.00000  Uiso   1.00
O39    O     0.11356   0.50746   0.27919   0.00000  Uiso   1.00
O40    O     0.89067   0.62566   0.95667   0.00000  Uiso   1.00
N41    N     0.36729   0.21648   0.10323   0.00000  Uiso   1.00
N42    N     0.00921   0.39772   0.05492   0.00000  Uiso   1.00
N43    N     0.85041   0.76936   0.82514   0.00000  Uiso   1.00
N44    N     0.36063   0.21826   0.23401   0.00000  Uiso   1.00
N45    N     0.00256   0.39950   0.18570   0.00000  Uiso   1.00
N46    N     0.84376   0.77113   0.95593   0.00000  Uiso   1.00
C47    C     0.25716   0.62767   0.85049   0.00000  Uiso   1.00
C48    C     0.36229   0.65256   0.96909   0.00000  Uiso   1.00
C49    C     0.44698   0.67252   0.14165   0.00000  Uiso   1.00
C50    C     0.53617   0.69368   0.22783   0.00000  Uiso   1.00
C51    C     0.69876   0.73221   0.42468   0.00000  Uiso   1.00
C52    C     0.18538   0.70253   0.70681   0.00000  Uiso   1.00
C53    C     0.12131   0.76449   0.65884   0.00000  Uiso   1.00
C54    C     0.06158   0.82770   0.52422   0.00000  Uiso   1.00
C55    C     0.94945   0.94375   0.31379   0.00000  Uiso   1.00
C56    C     0.22917   0.52935   0.77016   0.00000  Uiso   1.00
C57    C     0.20188   0.44570   0.77542   0.00000  Uiso   1.00
C58    C     0.17899   0.36311   0.69410   0.00000  Uiso   1.00
C59    C     0.13484   0.21028   0.58204   0.00000  Uiso   1.00
C60    C     0.26498   0.62975   0.69668   0.00000  Uiso   1.00
C61    C     0.36653   0.65370   0.88554   0.00000  Uiso   1.00
C62    C     0.45563   0.67483   0.97148   0.00000  Uiso   1.00
C63    C     0.54043   0.69481   0.14415   0.00000  Uiso   1.00
C64    C     0.18963   0.70367   0.62327   0.00000  Uiso   1.00
C65    C     0.12997   0.76679   0.48867   0.00000  Uiso   1.00
C66    C     0.06583   0.82884   0.44052   0.00000  Uiso   1.00
C67    C     0.23341   0.53048   0.68662   0.00000  Uiso   1.00
C68    C     0.21054   0.44801   0.60526   0.00000  Uiso   1.00
C69    C     0.18324   0.36425   0.61040   0.00000  Uiso   1.00
H70    H     0.25385   0.62679   0.91552   0.00000  Uiso   1.00
H71    H     0.44366   0.67165   0.20625   0.00000  Uiso   1.00
H72    H     0.11804   0.76359   0.72350   0.00000  Uiso   1.00
H73    H     0.19861   0.44485   0.84008   0.00000  Uiso   1.00
H74    H     0.65596   0.72191   0.49173   0.00000  Uiso   1.00
H75    H     0.96935   0.91575   0.47379   0.00000  Uiso   1.00
H76    H     0.13923   0.24363   0.71960   0.00000  Uiso   1.00
H77    H     0.26828   0.63064   0.63163   0.00000  Uiso   1.00
H78    H     0.45889   0.67570   0.90680   0.00000  Uiso   1.00
H79    H     0.13327   0.76765   0.42405   0.00000  Uiso   1.00
H80    H     0.21384   0.44891   0.54063   0.00000  Uiso   1.00
H81    H     0.66832   0.72521   0.24868   0.00000  Uiso   1.00
H82    H     0.98170   0.91905   0.23074   0.00000  Uiso   1.00
H83    H     0.15160   0.24693   0.47656   0.00000  Uiso   1.00
O84    O     0.78726   0.75317   0.55633   0.00000  Uiso   1.00
O85    O     0.88644   0.00746   0.22081   0.00000  Uiso   1.00
O86    O     0.10933   0.12566   0.54333   0.00000  Uiso   1.00
N87    N     0.63271   0.71648   0.39677   0.00000  Uiso   1.00
N88    N     0.99079   0.89772   0.44508   0.00000  Uiso   1.00
N89    N     0.14959   0.26936   0.67486   0.00000  Uiso   1.00
N90    N     0.63937   0.71826   0.26599   0.00000  Uiso   1.00
N91    N     0.99744   0.89950   0.31430   0.00000  Uiso   1.00
N92    N     0.15624   0.27113   0.54407   0.00000  Uiso   1.00
C93    C     0.25716   0.87233   0.35049   0.00000  Uiso   1.00
C94    C     0.36229   0.84744   0.46909   0.00000  Uiso   1.00
C95    C     0.44698   0.82748   0.64165   0.00000  Uiso   1.00
C96    C     0.53617   0.80632   0.72783   0.00000  Uiso   1.00
C97    C     0.69876   0.76779   0.92468   0.00000  Uiso   1.00
C98    C     0.18538   0.79747   0.20681   0.00000  Uiso   1.00
C99    C     0.12131   0.73551   0.15884   0.00000  Uiso   1.00
C100   C     0.06158   0.67230   0.02422   0.00000  Uiso   1.00
C101   C     0.94945   0.55625   0.81379   0.00000  Uiso   1.00
C102   C     0.22917   0.97065   0.27016   0.00000  Uiso   1.00
C103   C     0.20188   0.05430   0.27542   0.00000  Uiso   1.00
C104   C     0.17899   0.13689   0.19410   0.00000  Uiso   1.00
C105   C     0.13484   0.28972   0.08204   0.00000  Uiso   1.00
C106   C     0.26498   0.87025   0.19668   0.00000  Uiso   1.00
C107   C     0.36653   0.84630   0.38554   0.00000  Uiso   1.00
C108   C     0.45563   0.82517   0.47148   0.00000  Uiso   1.00
C109   C     0.54043   0.80519   0.64415   0.00000  Uiso   1.00
C110   C     0.18963   0.79633   0.12327   0.00000  Uiso   1.00
C111   C     0.12997   0.73321   0.98867   0.00000  Uiso   1.00
C112   C     0.06583   0.67116   0.94052   0.00000  Uiso   1.00
C113   C     0.23341   0.96952   0.18662   0.00000  Uiso   1.00
C114   C     0.21054   0.05199   0.10526   0.00000  Uiso   1.00
C115   C     0.18324   0.13575   0.11040   0.00000  Uiso   1.00
H116   H     0.25385   0.87321   0.41552   0.00000  Uiso   1.00
H117   H     0.44366   0.82835   0.70625   0.00000  Uiso   1.00
H118   H     0.11804   0.73641   0.22350   0.00000  Uiso   1.00
H119   H     0.19861   0.05515   0.34008   0.00000  Uiso   1.00
H120   H     0.65596   0.77809   0.99173   0.00000  Uiso   1.00
H121   H     0.96935   0.58425   0.97379   0.00000  Uiso   1.00
H122   H     0.13923   0.25637   0.21960   0.00000  Uiso   1.00
H123   H     0.26828   0.86936   0.13163   0.00000  Uiso   1.00
H124   H     0.45889   0.82430   0.40680   0.00000  Uiso   1.00
H125   H     0.13327   0.73235   0.92405   0.00000  Uiso   1.00
H126   H     0.21384   0.05109   0.04063   0.00000  Uiso   1.00
H127   H     0.66832   0.77479   0.74868   0.00000  Uiso   1.00
H128   H     0.98170   0.58095   0.73074   0.00000  Uiso   1.00
H129   H     0.15160   0.25307   0.97656   0.00000  Uiso   1.00
O130   O     0.78726   0.74683   0.05633   0.00000  Uiso   1.00
O131   O     0.88644   0.49254   0.72081   0.00000  Uiso   1.00
O132   O     0.10933   0.37434   0.04333   0.00000  Uiso   1.00
N133   N     0.63271   0.78352   0.89677   0.00000  Uiso   1.00
N134   N     0.99079   0.60228   0.94508   0.00000  Uiso   1.00
N135   N     0.14959   0.23064   0.17486   0.00000  Uiso   1.00
N136   N     0.63937   0.78174   0.76599   0.00000  Uiso   1.00
N137   N     0.99744   0.60050   0.81430   0.00000  Uiso   1.00
N138   N     0.15624   0.22887   0.04407   0.00000  Uiso   1.00
C139   C     0.74284   0.37233   0.14951   0.00000  Uiso   1.00
C140   C     0.63771   0.34744   0.03091   0.00000  Uiso   1.00
C141   C     0.55302   0.32748   0.85835   0.00000  Uiso   1.00
C142   C     0.46383   0.30632   0.77217   0.00000  Uiso   1.00
C143   C     0.30124   0.26779   0.57532   0.00000  Uiso   1.00
C144   C     0.81462   0.29747   0.29319   0.00000  Uiso   1.00
C145   C     0.87869   0.23551   0.34116   0.00000  Uiso   1.00
C146   C     0.93842   0.17230   0.47578   0.00000  Uiso   1.00
C147   C     0.05055   0.05625   0.68621   0.00000  Uiso   1.00
C148   C     0.77083   0.47065   0.22984   0.00000  Uiso   1.00
C149   C     0.79812   0.55430   0.22458   0.00000  Uiso   1.00
C150   C     0.82101   0.63689   0.30590   0.00000  Uiso   1.00
C151   C     0.86516   0.78972   0.41796   0.00000  Uiso   1.00
C152   C     0.73502   0.37025   0.30332   0.00000  Uiso   1.00
C153   C     0.63347   0.34630   0.11446   0.00000  Uiso   1.00
C154   C     0.54437   0.32517   0.02852   0.00000  Uiso   1.00
C155   C     0.45957   0.30519   0.85585   0.00000  Uiso   1.00
C156   C     0.81037   0.29633   0.37673   0.00000  Uiso   1.00
C157   C     0.87003   0.23321   0.51133   0.00000  Uiso   1.00
C158   C     0.93417   0.17116   0.55948   0.00000  Uiso   1.00
C159   C     0.76659   0.46952   0.31338   0.00000  Uiso   1.00
C160   C     0.78946   0.55199   0.39474   0.00000  Uiso   1.00
C161   C     0.81676   0.63575   0.38960   0.00000  Uiso   1.00
H162   H     0.74615   0.37321   0.08448   0.00000  Uiso   1.00
H163   H     0.55634   0.32835   0.79375   0.00000  Uiso   1.00
H164   H     0.88196   0.23641   0.27650   0.00000  Uiso   1.00
H165   H     0.80139   0.55515   0.15992   0.00000  Uiso   1.00
H166   H     0.34404   0.27809   0.50827   0.00000  Uiso   1.00
H167   H     0.03065   0.08425   0.52621   0.00000  Uiso   1.00
H168   H     0.86077   0.75637   0.28040   0.00000  Uiso   1.00
H169   H     0.73172   0.36936   0.36837   0.00000  Uiso   1.00
H170   H     0.54111   0.32430   0.09320   0.00000  Uiso   1.00
H171   H     0.86673   0.23235   0.57595   0.00000  Uiso   1.00
H172   H     0.78616   0.55109   0.45937   0.00000  Uiso   1.00
H173   H     0.33168   0.27479   0.75132   0.00000  Uiso   1.00
H174   H     0.01830   0.08095   0.76926   0.00000  Uiso   1.00
H175   H     0.84840   0.75307   0.52344   0.00000  Uiso   1.00
O176   O     0.21274   0.24683   0.44367   0.00000  Uiso   1.00
O177   O     0.11356   0.99254   0.77919   0.00000  Uiso   1.00
O178   O     0.89067   0.87434   0.45667   0.00000  Uiso   1.00
N179   N     0.36729   0.28352   0.60323   0.00000  Uiso   1.00
N180   N     0.00921   0.10228   0.55492   0.00000  Uiso   1.00
N181   N     0.85041   0.73064   0.32514   0.00000  Uiso   1.00
N182   N     0.36063   0.28174   0.73401   0.00000  Uiso   1.00
N183   N     0.00256   0.10050   0.68570   0.00000  Uiso   1.00
N184   N     0.84376   0.72887   0.45593   0.00000  Uiso   1.00
