data_job_01100
_audit_creation_date              2018-12-19
_audit_creation_method            'Materials Studio'
_symmetry_space_group_name_H-M    'P1'
_symmetry_Int_Tables_number       1
_symmetry_cell_setting            triclinic
loop_
_symmetry_equiv_pos_as_xyz
  x,y,z
_cell_length_a                    22.8066
_cell_length_b                    11.4198
_cell_length_c                    18.1162
_cell_angle_alpha                 90.0000
_cell_angle_beta                  90.0000
_cell_angle_gamma                 90.0000
loop_
_atom_site_label
_atom_site_type_symbol
_atom_site_fract_x
_atom_site_fract_y
_atom_site_fract_z
_atom_site_U_iso_or_equiv
_atom_site_adp_type
_atom_site_occupancy
C1     C     0.31535   0.70669   0.34283   0.00000  Uiso   1.00
C2     C     0.31378   0.76321   0.41907   0.00000  Uiso   1.00
C3     C     0.26466   0.77363   0.46380   0.00000  Uiso   1.00
C4     C     0.27230   0.82819   0.53160   0.00000  Uiso   1.00
C5     C     0.26152   0.90953   0.64659   0.00000  Uiso   1.00
C6     C     0.33955   0.79957   0.29058   0.00000  Uiso   1.00
C7     C     0.31209   0.84053   0.22728   0.00000  Uiso   1.00
C8     C     0.34143   0.92569   0.18693   0.00000  Uiso   1.00
C9     C     0.37067   0.06341   0.10241   0.00000  Uiso   1.00
C10    C     0.36188   0.61101   0.34685   0.00000  Uiso   1.00
C11    C     0.35321   0.49344   0.33084   0.00000  Uiso   1.00
C12    C     0.40135   0.41985   0.33785   0.00000  Uiso   1.00
C13    C     0.46526   0.26481   0.34069   0.00000  Uiso   1.00
C14    C     0.41628   0.78507   0.38371   0.00000  Uiso   1.00
C15    C     0.36860   0.80579   0.44127   0.00000  Uiso   1.00
C16    C     0.37632   0.86034   0.50903   0.00000  Uiso   1.00
C17    C     0.32722   0.87083   0.55385   0.00000  Uiso   1.00
C18    C     0.39437   0.84214   0.31279   0.00000  Uiso   1.00
C19    C     0.42375   0.92725   0.27252   0.00000  Uiso   1.00
C20    C     0.39634   0.96834   0.20917   0.00000  Uiso   1.00
C21    C     0.41670   0.65358   0.36906   0.00000  Uiso   1.00
C22    C     0.46486   0.58016   0.37608   0.00000  Uiso   1.00
C23    C     0.45626   0.46250   0.36009   0.00000  Uiso   1.00
H24    H     0.27268   0.67355   0.32554   0.00000  Uiso   1.00
H25    H     0.22225   0.74068   0.44659   0.00000  Uiso   1.00
H26    H     0.26967   0.80756   0.21011   0.00000  Uiso   1.00
H27    H     0.31078   0.46053   0.31366   0.00000  Uiso   1.00
H28    H     0.19051   0.83392   0.59058   0.00000  Uiso   1.00
H29    H     0.29052   0.97491   0.09193   0.00000  Uiso   1.00
H30    H     0.37720   0.24312   0.31028   0.00000  Uiso   1.00
H31    H     0.45896   0.81821   0.40100   0.00000  Uiso   1.00
H32    H     0.41875   0.89328   0.52620   0.00000  Uiso   1.00
H33    H     0.46617   0.96017   0.28972   0.00000  Uiso   1.00
H34    H     0.50728   0.61313   0.39327   0.00000  Uiso   1.00
H35    H     0.34999   0.95778   0.65519   0.00000  Uiso   1.00
H36    H     0.45000   0.09878   0.15654   0.00000  Uiso   1.00
H37    H     0.53668   0.36698   0.37490   0.00000  Uiso   1.00
O38    O     0.24043   0.94265   0.70387   0.00000  Uiso   1.00
O39    O     0.37165   0.12762   0.04966   0.00000  Uiso   1.00
O40    O     0.48537   0.16753   0.33614   0.00000  Uiso   1.00
N41    N     0.23356   0.85274   0.58861   0.00000  Uiso   1.00
N42    N     0.32706   0.98458   0.12241   0.00000  Uiso   1.00
N43    N     0.40810   0.30042   0.32653   0.00000  Uiso   1.00
N44    N     0.31938   0.91939   0.62338   0.00000  Uiso   1.00
N45    N     0.41288   0.05123   0.15718   0.00000  Uiso   1.00
N46    N     0.49392   0.36707   0.36130   0.00000  Uiso   1.00
C47    C     0.81535   0.20669   0.34283   0.00000  Uiso   1.00
C48    C     0.81378   0.26321   0.41907   0.00000  Uiso   1.00
C49    C     0.76466   0.27363   0.46380   0.00000  Uiso   1.00
C50    C     0.77230   0.32819   0.53160   0.00000  Uiso   1.00
C51    C     0.76152   0.40953   0.64659   0.00000  Uiso   1.00
C52    C     0.83955   0.29957   0.29058   0.00000  Uiso   1.00
C53    C     0.81209   0.34053   0.22728   0.00000  Uiso   1.00
C54    C     0.84143   0.42569   0.18693   0.00000  Uiso   1.00
C55    C     0.87067   0.56341   0.10241   0.00000  Uiso   1.00
C56    C     0.86188   0.11101   0.34685   0.00000  Uiso   1.00
C57    C     0.85321   0.99344   0.33084   0.00000  Uiso   1.00
C58    C     0.90135   0.91985   0.33785   0.00000  Uiso   1.00
C59    C     0.96526   0.76481   0.34069   0.00000  Uiso   1.00
C60    C     0.91628   0.28507   0.38371   0.00000  Uiso   1.00
C61    C     0.86860   0.30579   0.44127   0.00000  Uiso   1.00
C62    C     0.87632   0.36034   0.50903   0.00000  Uiso   1.00
C63    C     0.82722   0.37083   0.55385   0.00000  Uiso   1.00
C64    C     0.89437   0.34214   0.31279   0.00000  Uiso   1.00
C65    C     0.92375   0.42725   0.27252   0.00000  Uiso   1.00
C66    C     0.89634   0.46834   0.20917   0.00000  Uiso   1.00
C67    C     0.91670   0.15358   0.36906   0.00000  Uiso   1.00
C68    C     0.96486   0.08016   0.37608   0.00000  Uiso   1.00
C69    C     0.95626   0.96250   0.36009   0.00000  Uiso   1.00
H70    H     0.77268   0.17355   0.32554   0.00000  Uiso   1.00
H71    H     0.72225   0.24068   0.44659   0.00000  Uiso   1.00
H72    H     0.76967   0.30756   0.21011   0.00000  Uiso   1.00
H73    H     0.81078   0.96053   0.31366   0.00000  Uiso   1.00
H74    H     0.69051   0.33392   0.59058   0.00000  Uiso   1.00
H75    H     0.79052   0.47491   0.09193   0.00000  Uiso   1.00
H76    H     0.87720   0.74312   0.31028   0.00000  Uiso   1.00
H77    H     0.95896   0.31821   0.40100   0.00000  Uiso   1.00
H78    H     0.91875   0.39328   0.52620   0.00000  Uiso   1.00
H79    H     0.96617   0.46017   0.28972   0.00000  Uiso   1.00
H80    H     0.00728   0.11313   0.39327   0.00000  Uiso   1.00
H81    H     0.84999   0.45778   0.65519   0.00000  Uiso   1.00
H82    H     0.95000   0.59878   0.15654   0.00000  Uiso   1.00
H83    H     0.03668   0.86698   0.37490   0.00000  Uiso   1.00
O84    O     0.74043   0.44265   0.70387   0.00000  Uiso   1.00
O85    O     0.87165   0.62762   0.04966   0.00000  Uiso   1.00
O86    O     0.98537   0.66753   0.33614   0.00000  Uiso   1.00
N87    N     0.73356   0.35274   0.58861   0.00000  Uiso   1.00
N88    N     0.82706   0.48458   0.12241   0.00000  Uiso   1.00
N89    N     0.90810   0.80042   0.32653   0.00000  Uiso   1.00
N90    N     0.81938   0.41939   0.62338   0.00000  Uiso   1.00
N91    N     0.91288   0.55123   0.15718   0.00000  Uiso   1.00
N92    N     0.99392   0.86707   0.36130   0.00000  Uiso   1.00
C93    C     0.68465   0.29331   0.84283   0.00000  Uiso   1.00
C94    C     0.68622   0.23679   0.91907   0.00000  Uiso   1.00
C95    C     0.73534   0.22637   0.96380   0.00000  Uiso   1.00
C96    C     0.72770   0.17181   0.03160   0.00000  Uiso   1.00
C97    C     0.73848   0.09047   0.14659   0.00000  Uiso   1.00
C98    C     0.66045   0.20043   0.79058   0.00000  Uiso   1.00
C99    C     0.68791   0.15947   0.72728   0.00000  Uiso   1.00
C100   C     0.65857   0.07431   0.68693   0.00000  Uiso   1.00
C101   C     0.62933   0.93659   0.60241   0.00000  Uiso   1.00
C102   C     0.63812   0.38899   0.84685   0.00000  Uiso   1.00
C103   C     0.64679   0.50656   0.83084   0.00000  Uiso   1.00
C104   C     0.59865   0.58015   0.83785   0.00000  Uiso   1.00
C105   C     0.53474   0.73519   0.84069   0.00000  Uiso   1.00
C106   C     0.58372   0.21493   0.88371   0.00000  Uiso   1.00
C107   C     0.63140   0.19421   0.94127   0.00000  Uiso   1.00
C108   C     0.62368   0.13966   0.00903   0.00000  Uiso   1.00
C109   C     0.67278   0.12917   0.05385   0.00000  Uiso   1.00
C110   C     0.60563   0.15786   0.81279   0.00000  Uiso   1.00
C111   C     0.57625   0.07275   0.77252   0.00000  Uiso   1.00
C112   C     0.60366   0.03166   0.70917   0.00000  Uiso   1.00
C113   C     0.58330   0.34642   0.86906   0.00000  Uiso   1.00
C114   C     0.53514   0.41984   0.87608   0.00000  Uiso   1.00
C115   C     0.54374   0.53750   0.86009   0.00000  Uiso   1.00
H116   H     0.72732   0.32645   0.82554   0.00000  Uiso   1.00
H117   H     0.77775   0.25932   0.94659   0.00000  Uiso   1.00
H118   H     0.73033   0.19244   0.71011   0.00000  Uiso   1.00
H119   H     0.68922   0.53947   0.81366   0.00000  Uiso   1.00
H120   H     0.80949   0.16608   0.09058   0.00000  Uiso   1.00
H121   H     0.70948   0.02509   0.59193   0.00000  Uiso   1.00
H122   H     0.62280   0.75688   0.81028   0.00000  Uiso   1.00
H123   H     0.54104   0.18179   0.90100   0.00000  Uiso   1.00
H124   H     0.58125   0.10672   0.02620   0.00000  Uiso   1.00
H125   H     0.53383   0.03983   0.78972   0.00000  Uiso   1.00
H126   H     0.49272   0.38687   0.89327   0.00000  Uiso   1.00
H127   H     0.65001   0.04222   0.15519   0.00000  Uiso   1.00
H128   H     0.55000   0.90122   0.65654   0.00000  Uiso   1.00
H129   H     0.46332   0.63302   0.87490   0.00000  Uiso   1.00
O130   O     0.75957   0.05735   0.20387   0.00000  Uiso   1.00
O131   O     0.62835   0.87238   0.54966   0.00000  Uiso   1.00
O132   O     0.51463   0.83247   0.83614   0.00000  Uiso   1.00
N133   N     0.76644   0.14726   0.08861   0.00000  Uiso   1.00
N134   N     0.67294   0.01542   0.62241   0.00000  Uiso   1.00
N135   N     0.59190   0.69958   0.82653   0.00000  Uiso   1.00
N136   N     0.68062   0.08061   0.12338   0.00000  Uiso   1.00
N137   N     0.58712   0.94877   0.65718   0.00000  Uiso   1.00
N138   N     0.50608   0.63293   0.86130   0.00000  Uiso   1.00
C139   C     0.18465   0.79331   0.84283   0.00000  Uiso   1.00
C140   C     0.18622   0.73679   0.91907   0.00000  Uiso   1.00
C141   C     0.23534   0.72637   0.96380   0.00000  Uiso   1.00
C142   C     0.22770   0.67181   0.03160   0.00000  Uiso   1.00
C143   C     0.23848   0.59047   0.14659   0.00000  Uiso   1.00
C144   C     0.16045   0.70043   0.79058   0.00000  Uiso   1.00
C145   C     0.18791   0.65947   0.72728   0.00000  Uiso   1.00
C146   C     0.15857   0.57431   0.68693   0.00000  Uiso   1.00
C147   C     0.12933   0.43659   0.60241   0.00000  Uiso   1.00
C148   C     0.13812   0.88899   0.84685   0.00000  Uiso   1.00
C149   C     0.14679   0.00656   0.83084   0.00000  Uiso   1.00
C150   C     0.09865   0.08015   0.83785   0.00000  Uiso   1.00
C151   C     0.03474   0.23519   0.84069   0.00000  Uiso   1.00
C152   C     0.08372   0.71493   0.88371   0.00000  Uiso   1.00
C153   C     0.13140   0.69421   0.94127   0.00000  Uiso   1.00
C154   C     0.12368   0.63966   0.00903   0.00000  Uiso   1.00
C155   C     0.17278   0.62917   0.05385   0.00000  Uiso   1.00
C156   C     0.10563   0.65786   0.81279   0.00000  Uiso   1.00
C157   C     0.07625   0.57275   0.77252   0.00000  Uiso   1.00
C158   C     0.10366   0.53166   0.70917   0.00000  Uiso   1.00
C159   C     0.08330   0.84642   0.86906   0.00000  Uiso   1.00
C160   C     0.03514   0.91984   0.87608   0.00000  Uiso   1.00
C161   C     0.04374   0.03750   0.86009   0.00000  Uiso   1.00
H162   H     0.22732   0.82645   0.82554   0.00000  Uiso   1.00
H163   H     0.27775   0.75932   0.94659   0.00000  Uiso   1.00
H164   H     0.23033   0.69244   0.71011   0.00000  Uiso   1.00
H165   H     0.18922   0.03947   0.81366   0.00000  Uiso   1.00
H166   H     0.30949   0.66608   0.09058   0.00000  Uiso   1.00
H167   H     0.20948   0.52509   0.59193   0.00000  Uiso   1.00
H168   H     0.12280   0.25688   0.81028   0.00000  Uiso   1.00
H169   H     0.04104   0.68179   0.90100   0.00000  Uiso   1.00
H170   H     0.08125   0.60672   0.02620   0.00000  Uiso   1.00
H171   H     0.03383   0.53983   0.78972   0.00000  Uiso   1.00
H172   H     0.99272   0.88687   0.89327   0.00000  Uiso   1.00
H173   H     0.15001   0.54222   0.15519   0.00000  Uiso   1.00
H174   H     0.05000   0.40122   0.65654   0.00000  Uiso   1.00
H175   H     0.96332   0.13302   0.87490   0.00000  Uiso   1.00
O176   O     0.25957   0.55735   0.20387   0.00000  Uiso   1.00
O177   O     0.12835   0.37238   0.54966   0.00000  Uiso   1.00
O178   O     0.01463   0.33247   0.83614   0.00000  Uiso   1.00
N179   N     0.26644   0.64726   0.08861   0.00000  Uiso   1.00
N180   N     0.17294   0.51542   0.62241   0.00000  Uiso   1.00
N181   N     0.09190   0.19958   0.82653   0.00000  Uiso   1.00
N182   N     0.18062   0.58061   0.12338   0.00000  Uiso   1.00
N183   N     0.08712   0.44877   0.65718   0.00000  Uiso   1.00
N184   N     0.00608   0.13293   0.86130   0.00000  Uiso   1.00
C185   C     0.68465   0.70669   0.15717   0.00000  Uiso   1.00
C186   C     0.68622   0.76321   0.08093   0.00000  Uiso   1.00
C187   C     0.73534   0.77363   0.03620   0.00000  Uiso   1.00
C188   C     0.72770   0.82819   0.96840   0.00000  Uiso   1.00
C189   C     0.73848   0.90953   0.85341   0.00000  Uiso   1.00
C190   C     0.66045   0.79957   0.20942   0.00000  Uiso   1.00
C191   C     0.68791   0.84053   0.27272   0.00000  Uiso   1.00
C192   C     0.65857   0.92569   0.31307   0.00000  Uiso   1.00
C193   C     0.62933   0.06341   0.39759   0.00000  Uiso   1.00
C194   C     0.63812   0.61101   0.15315   0.00000  Uiso   1.00
C195   C     0.64679   0.49344   0.16916   0.00000  Uiso   1.00
C196   C     0.59865   0.41985   0.16215   0.00000  Uiso   1.00
C197   C     0.53474   0.26481   0.15931   0.00000  Uiso   1.00
C198   C     0.58372   0.78507   0.11629   0.00000  Uiso   1.00
C199   C     0.63140   0.80579   0.05873   0.00000  Uiso   1.00
C200   C     0.62368   0.86034   0.99097   0.00000  Uiso   1.00
C201   C     0.67278   0.87083   0.94615   0.00000  Uiso   1.00
C202   C     0.60563   0.84214   0.18721   0.00000  Uiso   1.00
C203   C     0.57625   0.92725   0.22748   0.00000  Uiso   1.00
C204   C     0.60366   0.96834   0.29083   0.00000  Uiso   1.00
C205   C     0.58330   0.65358   0.13094   0.00000  Uiso   1.00
C206   C     0.53514   0.58016   0.12392   0.00000  Uiso   1.00
C207   C     0.54374   0.46250   0.13991   0.00000  Uiso   1.00
H208   H     0.72732   0.67355   0.17446   0.00000  Uiso   1.00
H209   H     0.77775   0.74068   0.05341   0.00000  Uiso   1.00
H210   H     0.73033   0.80756   0.28989   0.00000  Uiso   1.00
H211   H     0.68922   0.46053   0.18634   0.00000  Uiso   1.00
H212   H     0.80949   0.83392   0.90942   0.00000  Uiso   1.00
H213   H     0.70948   0.97491   0.40807   0.00000  Uiso   1.00
H214   H     0.62280   0.24312   0.18972   0.00000  Uiso   1.00
H215   H     0.54104   0.81821   0.09900   0.00000  Uiso   1.00
H216   H     0.58125   0.89328   0.97380   0.00000  Uiso   1.00
H217   H     0.53383   0.96017   0.21028   0.00000  Uiso   1.00
H218   H     0.49272   0.61313   0.10673   0.00000  Uiso   1.00
H219   H     0.65001   0.95778   0.84481   0.00000  Uiso   1.00
H220   H     0.55000   0.09878   0.34346   0.00000  Uiso   1.00
H221   H     0.46332   0.36698   0.12510   0.00000  Uiso   1.00
O222   O     0.75957   0.94265   0.79613   0.00000  Uiso   1.00
O223   O     0.62835   0.12762   0.45034   0.00000  Uiso   1.00
O224   O     0.51463   0.16753   0.16386   0.00000  Uiso   1.00
N225   N     0.76644   0.85274   0.91139   0.00000  Uiso   1.00
N226   N     0.67294   0.98458   0.37759   0.00000  Uiso   1.00
N227   N     0.59190   0.30042   0.17347   0.00000  Uiso   1.00
N228   N     0.68062   0.91939   0.87662   0.00000  Uiso   1.00
N229   N     0.58712   0.05123   0.34282   0.00000  Uiso   1.00
N230   N     0.50608   0.36707   0.13870   0.00000  Uiso   1.00
C231   C     0.18465   0.20669   0.15717   0.00000  Uiso   1.00
C232   C     0.18622   0.26321   0.08093   0.00000  Uiso   1.00
C233   C     0.23534   0.27363   0.03620   0.00000  Uiso   1.00
C234   C     0.22770   0.32819   0.96840   0.00000  Uiso   1.00
C235   C     0.23848   0.40953   0.85341   0.00000  Uiso   1.00
C236   C     0.16045   0.29957   0.20942   0.00000  Uiso   1.00
C237   C     0.18791   0.34053   0.27272   0.00000  Uiso   1.00
C238   C     0.15857   0.42569   0.31307   0.00000  Uiso   1.00
C239   C     0.12933   0.56341   0.39759   0.00000  Uiso   1.00
C240   C     0.13812   0.11101   0.15315   0.00000  Uiso   1.00
C241   C     0.14679   0.99344   0.16916   0.00000  Uiso   1.00
C242   C     0.09865   0.91985   0.16215   0.00000  Uiso   1.00
C243   C     0.03474   0.76481   0.15931   0.00000  Uiso   1.00
C244   C     0.08372   0.28507   0.11629   0.00000  Uiso   1.00
C245   C     0.13140   0.30579   0.05873   0.00000  Uiso   1.00
C246   C     0.12368   0.36034   0.99097   0.00000  Uiso   1.00
C247   C     0.17278   0.37083   0.94615   0.00000  Uiso   1.00
C248   C     0.10563   0.34214   0.18721   0.00000  Uiso   1.00
C249   C     0.07625   0.42725   0.22748   0.00000  Uiso   1.00
C250   C     0.10366   0.46834   0.29083   0.00000  Uiso   1.00
C251   C     0.08330   0.15358   0.13094   0.00000  Uiso   1.00
C252   C     0.03514   0.08016   0.12392   0.00000  Uiso   1.00
C253   C     0.04374   0.96250   0.13991   0.00000  Uiso   1.00
H254   H     0.22732   0.17355   0.17446   0.00000  Uiso   1.00
H255   H     0.27775   0.24068   0.05341   0.00000  Uiso   1.00
H256   H     0.23033   0.30756   0.28989   0.00000  Uiso   1.00
H257   H     0.18922   0.96053   0.18634   0.00000  Uiso   1.00
H258   H     0.30949   0.33392   0.90942   0.00000  Uiso   1.00
H259   H     0.20948   0.47491   0.40807   0.00000  Uiso   1.00
H260   H     0.12280   0.74312   0.18972   0.00000  Uiso   1.00
H261   H     0.04104   0.31821   0.09900   0.00000  Uiso   1.00
H262   H     0.08125   0.39328   0.97380   0.00000  Uiso   1.00
H263   H     0.03383   0.46017   0.21028   0.00000  Uiso   1.00
H264   H     0.99272   0.11313   0.10673   0.00000  Uiso   1.00
H265   H     0.15001   0.45778   0.84481   0.00000  Uiso   1.00
H266   H     0.05000   0.59878   0.34346   0.00000  Uiso   1.00
H267   H     0.96332   0.86698   0.12510   0.00000  Uiso   1.00
O268   O     0.25957   0.44265   0.79613   0.00000  Uiso   1.00
O269   O     0.12835   0.62762   0.45034   0.00000  Uiso   1.00
O270   O     0.01463   0.66753   0.16386   0.00000  Uiso   1.00
N271   N     0.26644   0.35274   0.91139   0.00000  Uiso   1.00
N272   N     0.17294   0.48458   0.37759   0.00000  Uiso   1.00
N273   N     0.09190   0.80042   0.17347   0.00000  Uiso   1.00
N274   N     0.18062   0.41939   0.87662   0.00000  Uiso   1.00
N275   N     0.08712   0.55123   0.34282   0.00000  Uiso   1.00
N276   N     0.00608   0.86707   0.13870   0.00000  Uiso   1.00
C277   C     0.31535   0.29331   0.65717   0.00000  Uiso   1.00
C278   C     0.31378   0.23679   0.58093   0.00000  Uiso   1.00
C279   C     0.26466   0.22637   0.53620   0.00000  Uiso   1.00
C280   C     0.27230   0.17181   0.46840   0.00000  Uiso   1.00
C281   C     0.26152   0.09047   0.35341   0.00000  Uiso   1.00
C282   C     0.33955   0.20043   0.70942   0.00000  Uiso   1.00
C283   C     0.31209   0.15947   0.77272   0.00000  Uiso   1.00
C284   C     0.34143   0.07431   0.81307   0.00000  Uiso   1.00
C285   C     0.37067   0.93659   0.89759   0.00000  Uiso   1.00
C286   C     0.36188   0.38899   0.65315   0.00000  Uiso   1.00
C287   C     0.35321   0.50656   0.66916   0.00000  Uiso   1.00
C288   C     0.40135   0.58015   0.66215   0.00000  Uiso   1.00
C289   C     0.46526   0.73519   0.65931   0.00000  Uiso   1.00
C290   C     0.41628   0.21493   0.61629   0.00000  Uiso   1.00
C291   C     0.36860   0.19421   0.55873   0.00000  Uiso   1.00
C292   C     0.37632   0.13966   0.49097   0.00000  Uiso   1.00
C293   C     0.32722   0.12917   0.44615   0.00000  Uiso   1.00
C294   C     0.39437   0.15786   0.68721   0.00000  Uiso   1.00
C295   C     0.42375   0.07275   0.72748   0.00000  Uiso   1.00
C296   C     0.39634   0.03166   0.79083   0.00000  Uiso   1.00
C297   C     0.41670   0.34642   0.63094   0.00000  Uiso   1.00
C298   C     0.46486   0.41984   0.62392   0.00000  Uiso   1.00
C299   C     0.45626   0.53750   0.63991   0.00000  Uiso   1.00
H300   H     0.27268   0.32645   0.67446   0.00000  Uiso   1.00
H301   H     0.22225   0.25932   0.55341   0.00000  Uiso   1.00
H302   H     0.26967   0.19244   0.78989   0.00000  Uiso   1.00
H303   H     0.31078   0.53947   0.68634   0.00000  Uiso   1.00
H304   H     0.19051   0.16608   0.40942   0.00000  Uiso   1.00
H305   H     0.29052   0.02509   0.90807   0.00000  Uiso   1.00
H306   H     0.37720   0.75688   0.68972   0.00000  Uiso   1.00
H307   H     0.45896   0.18179   0.59900   0.00000  Uiso   1.00
H308   H     0.41875   0.10672   0.47380   0.00000  Uiso   1.00
H309   H     0.46617   0.03983   0.71028   0.00000  Uiso   1.00
H310   H     0.50728   0.38687   0.60673   0.00000  Uiso   1.00
H311   H     0.34999   0.04222   0.34481   0.00000  Uiso   1.00
H312   H     0.45000   0.90122   0.84346   0.00000  Uiso   1.00
H313   H     0.53668   0.63302   0.62510   0.00000  Uiso   1.00
O314   O     0.24043   0.05735   0.29613   0.00000  Uiso   1.00
O315   O     0.37165   0.87238   0.95034   0.00000  Uiso   1.00
O316   O     0.48537   0.83247   0.66386   0.00000  Uiso   1.00
N317   N     0.23356   0.14726   0.41139   0.00000  Uiso   1.00
N318   N     0.32706   0.01542   0.87759   0.00000  Uiso   1.00
N319   N     0.40810   0.69958   0.67347   0.00000  Uiso   1.00
N320   N     0.31938   0.08061   0.37662   0.00000  Uiso   1.00
N321   N     0.41288   0.94877   0.84282   0.00000  Uiso   1.00
N322   N     0.49392   0.63293   0.63870   0.00000  Uiso   1.00
C323   C     0.81535   0.79331   0.65717   0.00000  Uiso   1.00
C324   C     0.81378   0.73679   0.58093   0.00000  Uiso   1.00
C325   C     0.76466   0.72637   0.53620   0.00000  Uiso   1.00
C326   C     0.77230   0.67181   0.46840   0.00000  Uiso   1.00
C327   C     0.76152   0.59047   0.35341   0.00000  Uiso   1.00
C328   C     0.83955   0.70043   0.70942   0.00000  Uiso   1.00
C329   C     0.81209   0.65947   0.77272   0.00000  Uiso   1.00
C330   C     0.84143   0.57431   0.81307   0.00000  Uiso   1.00
C331   C     0.87067   0.43659   0.89759   0.00000  Uiso   1.00
C332   C     0.86188   0.88899   0.65315   0.00000  Uiso   1.00
C333   C     0.85321   0.00656   0.66916   0.00000  Uiso   1.00
C334   C     0.90135   0.08015   0.66215   0.00000  Uiso   1.00
C335   C     0.96526   0.23519   0.65931   0.00000  Uiso   1.00
C336   C     0.91628   0.71493   0.61629   0.00000  Uiso   1.00
C337   C     0.86860   0.69421   0.55873   0.00000  Uiso   1.00
C338   C     0.87632   0.63966   0.49097   0.00000  Uiso   1.00
C339   C     0.82722   0.62917   0.44615   0.00000  Uiso   1.00
C340   C     0.89437   0.65786   0.68721   0.00000  Uiso   1.00
C341   C     0.92375   0.57275   0.72748   0.00000  Uiso   1.00
C342   C     0.89634   0.53166   0.79083   0.00000  Uiso   1.00
C343   C     0.91670   0.84642   0.63094   0.00000  Uiso   1.00
C344   C     0.96486   0.91984   0.62392   0.00000  Uiso   1.00
C345   C     0.95626   0.03750   0.63991   0.00000  Uiso   1.00
H346   H     0.77268   0.82645   0.67446   0.00000  Uiso   1.00
H347   H     0.72225   0.75932   0.55341   0.00000  Uiso   1.00
H348   H     0.76967   0.69244   0.78989   0.00000  Uiso   1.00
H349   H     0.81078   0.03947   0.68634   0.00000  Uiso   1.00
H350   H     0.69051   0.66608   0.40942   0.00000  Uiso   1.00
H351   H     0.79052   0.52509   0.90807   0.00000  Uiso   1.00
H352   H     0.87720   0.25688   0.68972   0.00000  Uiso   1.00
H353   H     0.95896   0.68179   0.59900   0.00000  Uiso   1.00
H354   H     0.91875   0.60672   0.47380   0.00000  Uiso   1.00
H355   H     0.96617   0.53983   0.71028   0.00000  Uiso   1.00
H356   H     0.00728   0.88687   0.60673   0.00000  Uiso   1.00
H357   H     0.84999   0.54222   0.34481   0.00000  Uiso   1.00
H358   H     0.95000   0.40122   0.84346   0.00000  Uiso   1.00
H359   H     0.03668   0.13302   0.62510   0.00000  Uiso   1.00
O360   O     0.74043   0.55735   0.29613   0.00000  Uiso   1.00
O361   O     0.87165   0.37238   0.95034   0.00000  Uiso   1.00
O362   O     0.98537   0.33247   0.66386   0.00000  Uiso   1.00
N363   N     0.73356   0.64726   0.41139   0.00000  Uiso   1.00
N364   N     0.82706   0.51542   0.87759   0.00000  Uiso   1.00
N365   N     0.90810   0.19958   0.67347   0.00000  Uiso   1.00
N366   N     0.81938   0.58061   0.37662   0.00000  Uiso   1.00
N367   N     0.91288   0.44877   0.84282   0.00000  Uiso   1.00
N368   N     0.99392   0.13293   0.63870   0.00000  Uiso   1.00
