data_job_00740
_audit_creation_date              2018-12-19
_audit_creation_method            'Materials Studio'
_symmetry_space_group_name_H-M    'P1'
_symmetry_Int_Tables_number       1
_symmetry_cell_setting            triclinic
loop_
_symmetry_equiv_pos_as_xyz
  x,y,z
_cell_length_a                    12.5563
_cell_length_b                    19.0418
_cell_length_c                    28.4268
_cell_angle_alpha                 90.0000
_cell_angle_beta                  58.3827
_cell_angle_gamma                 90.0000
loop_
_atom_site_label
_atom_site_type_symbol
_atom_site_fract_x
_atom_site_fract_y
_atom_site_fract_z
_atom_site_U_iso_or_equiv
_atom_site_adp_type
_atom_site_occupancy
C1     C     0.87742   0.99858   0.44564   0.00000  Uiso   1.00
C2     C     0.01478   0.99845   0.39940   0.00000  Uiso   1.00
C3     C     0.10971   0.96115   0.39941   0.00000  Uiso   1.00
C4     C     0.22921   0.96802   0.35319   0.00000  Uiso   1.00
C5     C     0.43891   0.96136   0.28818   0.00000  Uiso   1.00
C6     C     0.84306   0.07526   0.46209   0.00000  Uiso   1.00
C7     C     0.79360   0.10254   0.51482   0.00000  Uiso   1.00
C8     C     0.76853   0.17407   0.52138   0.00000  Uiso   1.00
C9     C     0.71155   0.28665   0.55371   0.00000  Uiso   1.00
C10    C     0.80417   0.97585   0.41917   0.00000  Uiso   1.00
C11    C     0.72198   0.91955   0.43582   0.00000  Uiso   1.00
C12    C     0.66414   0.90740   0.40624   0.00000  Uiso   1.00
C13    C     0.54677   0.86563   0.37194   0.00000  Uiso   1.00
C14    C     0.92082   0.07711   0.36353   0.00000  Uiso   1.00
C15    C     0.03834   0.04111   0.35480   0.00000  Uiso   1.00
C16    C     0.15772   0.04804   0.30857   0.00000  Uiso   1.00
C17    C     0.25282   0.01075   0.30851   0.00000  Uiso   1.00
C18    C     0.86663   0.11792   0.41750   0.00000  Uiso   1.00
C19    C     0.84161   0.18943   0.42398   0.00000  Uiso   1.00
C20    C     0.79214   0.21681   0.47670   0.00000  Uiso   1.00
C21    C     0.82774   0.01851   0.37457   0.00000  Uiso   1.00
C22    C     0.77000   0.00644   0.34497   0.00000  Uiso   1.00
C23    C     0.68775   0.95014   0.36157   0.00000  Uiso   1.00
H24    H     0.85907   0.96537   0.48036   0.00000  Uiso   1.00
H25    H     0.09144   0.92815   0.43393   0.00000  Uiso   1.00
H26    H     0.77536   0.06951   0.54932   0.00000  Uiso   1.00
H27    H     0.70376   0.88655   0.47033   0.00000  Uiso   1.00
H28    H     0.35946   0.90571   0.36280   0.00000  Uiso   1.00
H29    H     0.69296   0.20378   0.60611   0.00000  Uiso   1.00
H30    H     0.54197   0.81798   0.43954   0.00000  Uiso   1.00
H31    H     0.93916   0.11033   0.32881   0.00000  Uiso   1.00
H32    H     0.17594   0.08105   0.27406   0.00000  Uiso   1.00
H33    H     0.85986   0.22242   0.38946   0.00000  Uiso   1.00
H34    H     0.78826   0.03947   0.31046   0.00000  Uiso   1.00
H35    H     0.42805   0.02982   0.23304   0.00000  Uiso   1.00
H36    H     0.76154   0.32789   0.47636   0.00000  Uiso   1.00
H37    H     0.61056   0.94209   0.30978   0.00000  Uiso   1.00
O38    O     0.54807   0.94591   0.26465   0.00000  Uiso   1.00
O39    O     0.67362   0.33697   0.58386   0.00000  Uiso   1.00
O40    O     0.47554   0.83080   0.36533   0.00000  Uiso   1.00
N41    N     0.34311   0.93892   0.33977   0.00000  Uiso   1.00
N42    N     0.71999   0.21761   0.56725   0.00000  Uiso   1.00
N43    N     0.57880   0.85693   0.41153   0.00000  Uiso   1.00
N44    N     0.38001   0.00570   0.26995   0.00000  Uiso   1.00
N45    N     0.75689   0.28439   0.49743   0.00000  Uiso   1.00
N46    N     0.61570   0.92371   0.34171   0.00000  Uiso   1.00
C47    C     0.06746   0.74672   0.09503   0.00000  Uiso   1.00
C48    C     0.92981   0.74738   0.14094   0.00000  Uiso   1.00
C49    C     0.83471   0.71049   0.14075   0.00000  Uiso   1.00
C50    C     0.71496   0.71808   0.18666   0.00000  Uiso   1.00
C51    C     0.50482   0.71259   0.25116   0.00000  Uiso   1.00
C52    C     0.10329   0.82318   0.07821   0.00000  Uiso   1.00
C53    C     0.15406   0.85003   0.02527   0.00000  Uiso   1.00
C54    C     0.18035   0.92142   0.01838   0.00000  Uiso   1.00
C55    C     0.23962   0.03361   0.98548   0.00000  Uiso   1.00
C56    C     0.13942   0.72378   0.12206   0.00000  Uiso   1.00
C57    C     0.22061   0.66706   0.10598   0.00000  Uiso   1.00
C58    C     0.27735   0.65478   0.13600   0.00000  Uiso   1.00
C59    C     0.39272   0.61264   0.17119   0.00000  Uiso   1.00
C60    C     0.02390   0.82578   0.17691   0.00000  Uiso   1.00
C61    C     0.90615   0.79032   0.18541   0.00000  Uiso   1.00
C62    C     0.78651   0.79796   0.23133   0.00000  Uiso   1.00
C63    C     0.69125   0.76109   0.23121   0.00000  Uiso   1.00
C64    C     0.07963   0.86612   0.12267   0.00000  Uiso   1.00
C65    C     0.10586   0.93749   0.11586   0.00000  Uiso   1.00
C66    C     0.15665   0.96444   0.06293   0.00000  Uiso   1.00
C67    C     0.11576   0.76672   0.16653   0.00000  Uiso   1.00
C68    C     0.17240   0.75453   0.19657   0.00000  Uiso   1.00
C69    C     0.25364   0.69780   0.18055   0.00000  Uiso   1.00
H70    H     0.08588   0.71329   0.06041   0.00000  Uiso   1.00
H71    H     0.85306   0.67727   0.10632   0.00000  Uiso   1.00
H72    H     0.17237   0.81678   0.99086   0.00000  Uiso   1.00
H73    H     0.23889   0.63384   0.07157   0.00000  Uiso   1.00
H74    H     0.58449   0.65629   0.17683   0.00000  Uiso   1.00
H75    H     0.25781   0.95045   0.93338   0.00000  Uiso   1.00
H76    H     0.39810   0.56470   0.10356   0.00000  Uiso   1.00
H77    H     0.00547   0.85921   0.21153   0.00000  Uiso   1.00
H78    H     0.76823   0.83120   0.26574   0.00000  Uiso   1.00
H79    H     0.08754   0.97071   0.15028   0.00000  Uiso   1.00
H80    H     0.15406   0.78777   0.23098   0.00000  Uiso   1.00
H81    H     0.51564   0.78123   0.30622   0.00000  Uiso   1.00
H82    H     0.18897   0.07539   0.06276   0.00000  Uiso   1.00
H83    H     0.32924   0.68963   0.23295   0.00000  Uiso   1.00
O84    O     0.39544   0.69772   0.27445   0.00000  Uiso   1.00
O85    O     0.27884   0.08364   0.95505   0.00000  Uiso   1.00
O86    O     0.46288   0.57753   0.17832   0.00000  Uiso   1.00
N87    N     0.60085   0.68953   0.19985   0.00000  Uiso   1.00
N88    N     0.23035   0.96455   0.97223   0.00000  Uiso   1.00
N89    N     0.36153   0.60391   0.13133   0.00000  Uiso   1.00
N90    N     0.56380   0.75675   0.26947   0.00000  Uiso   1.00
N91    N     0.19330   0.03178   0.04186   0.00000  Uiso   1.00
N92    N     0.32448   0.67114   0.20095   0.00000  Uiso   1.00
C93    C     0.37742   0.49858   0.44564   0.00000  Uiso   1.00
C94    C     0.51478   0.49845   0.39940   0.00000  Uiso   1.00
C95    C     0.60971   0.46115   0.39941   0.00000  Uiso   1.00
C96    C     0.72921   0.46802   0.35319   0.00000  Uiso   1.00
C97    C     0.93891   0.46136   0.28818   0.00000  Uiso   1.00
C98    C     0.34306   0.57526   0.46209   0.00000  Uiso   1.00
C99    C     0.29360   0.60254   0.51482   0.00000  Uiso   1.00
C100   C     0.26853   0.67407   0.52138   0.00000  Uiso   1.00
C101   C     0.21155   0.78665   0.55371   0.00000  Uiso   1.00
C102   C     0.30417   0.47585   0.41917   0.00000  Uiso   1.00
C103   C     0.22198   0.41955   0.43582   0.00000  Uiso   1.00
C104   C     0.16414   0.40740   0.40624   0.00000  Uiso   1.00
C105   C     0.04677   0.36563   0.37194   0.00000  Uiso   1.00
C106   C     0.42082   0.57711   0.36353   0.00000  Uiso   1.00
C107   C     0.53834   0.54111   0.35480   0.00000  Uiso   1.00
C108   C     0.65772   0.54804   0.30857   0.00000  Uiso   1.00
C109   C     0.75282   0.51075   0.30851   0.00000  Uiso   1.00
C110   C     0.36663   0.61792   0.41750   0.00000  Uiso   1.00
C111   C     0.34161   0.68943   0.42398   0.00000  Uiso   1.00
C112   C     0.29214   0.71681   0.47670   0.00000  Uiso   1.00
C113   C     0.32774   0.51851   0.37457   0.00000  Uiso   1.00
C114   C     0.27000   0.50644   0.34497   0.00000  Uiso   1.00
C115   C     0.18775   0.45014   0.36157   0.00000  Uiso   1.00
H116   H     0.35907   0.46537   0.48036   0.00000  Uiso   1.00
H117   H     0.59144   0.42815   0.43393   0.00000  Uiso   1.00
H118   H     0.27536   0.56951   0.54932   0.00000  Uiso   1.00
H119   H     0.20376   0.38655   0.47033   0.00000  Uiso   1.00
H120   H     0.85946   0.40571   0.36280   0.00000  Uiso   1.00
H121   H     0.19296   0.70378   0.60611   0.00000  Uiso   1.00
H122   H     0.04197   0.31798   0.43954   0.00000  Uiso   1.00
H123   H     0.43916   0.61033   0.32881   0.00000  Uiso   1.00
H124   H     0.67594   0.58105   0.27406   0.00000  Uiso   1.00
H125   H     0.35986   0.72242   0.38946   0.00000  Uiso   1.00
H126   H     0.28826   0.53947   0.31046   0.00000  Uiso   1.00
H127   H     0.92805   0.52982   0.23304   0.00000  Uiso   1.00
H128   H     0.26154   0.82789   0.47636   0.00000  Uiso   1.00
H129   H     0.11056   0.44209   0.30978   0.00000  Uiso   1.00
O130   O     0.04807   0.44591   0.26465   0.00000  Uiso   1.00
O131   O     0.17362   0.83697   0.58386   0.00000  Uiso   1.00
O132   O     0.97554   0.33080   0.36533   0.00000  Uiso   1.00
N133   N     0.84311   0.43892   0.33977   0.00000  Uiso   1.00
N134   N     0.21999   0.71761   0.56725   0.00000  Uiso   1.00
N135   N     0.07880   0.35693   0.41153   0.00000  Uiso   1.00
N136   N     0.88001   0.50570   0.26995   0.00000  Uiso   1.00
N137   N     0.25689   0.78439   0.49743   0.00000  Uiso   1.00
N138   N     0.11570   0.42371   0.34171   0.00000  Uiso   1.00
C139   C     0.56746   0.24672   0.09503   0.00000  Uiso   1.00
C140   C     0.42981   0.24738   0.14094   0.00000  Uiso   1.00
C141   C     0.33471   0.21049   0.14075   0.00000  Uiso   1.00
C142   C     0.21496   0.21808   0.18666   0.00000  Uiso   1.00
C143   C     0.00482   0.21259   0.25116   0.00000  Uiso   1.00
C144   C     0.60329   0.32318   0.07821   0.00000  Uiso   1.00
C145   C     0.65406   0.35003   0.02527   0.00000  Uiso   1.00
C146   C     0.68035   0.42142   0.01838   0.00000  Uiso   1.00
C147   C     0.73962   0.53361   0.98548   0.00000  Uiso   1.00
C148   C     0.63942   0.22378   0.12206   0.00000  Uiso   1.00
C149   C     0.72061   0.16706   0.10598   0.00000  Uiso   1.00
C150   C     0.77735   0.15478   0.13600   0.00000  Uiso   1.00
C151   C     0.89272   0.11264   0.17119   0.00000  Uiso   1.00
C152   C     0.52390   0.32578   0.17691   0.00000  Uiso   1.00
C153   C     0.40615   0.29032   0.18541   0.00000  Uiso   1.00
C154   C     0.28651   0.29796   0.23133   0.00000  Uiso   1.00
C155   C     0.19125   0.26109   0.23121   0.00000  Uiso   1.00
C156   C     0.57963   0.36612   0.12267   0.00000  Uiso   1.00
C157   C     0.60586   0.43749   0.11586   0.00000  Uiso   1.00
C158   C     0.65665   0.46444   0.06293   0.00000  Uiso   1.00
C159   C     0.61576   0.26672   0.16653   0.00000  Uiso   1.00
C160   C     0.67240   0.25453   0.19657   0.00000  Uiso   1.00
C161   C     0.75364   0.19780   0.18055   0.00000  Uiso   1.00
H162   H     0.58588   0.21329   0.06041   0.00000  Uiso   1.00
H163   H     0.35306   0.17727   0.10632   0.00000  Uiso   1.00
H164   H     0.67237   0.31678   0.99086   0.00000  Uiso   1.00
H165   H     0.73889   0.13384   0.07157   0.00000  Uiso   1.00
H166   H     0.08449   0.15629   0.17683   0.00000  Uiso   1.00
H167   H     0.75781   0.45045   0.93338   0.00000  Uiso   1.00
H168   H     0.89810   0.06470   0.10356   0.00000  Uiso   1.00
H169   H     0.50547   0.35921   0.21153   0.00000  Uiso   1.00
H170   H     0.26823   0.33120   0.26574   0.00000  Uiso   1.00
H171   H     0.58754   0.47071   0.15028   0.00000  Uiso   1.00
H172   H     0.65406   0.28777   0.23098   0.00000  Uiso   1.00
H173   H     0.01564   0.28123   0.30622   0.00000  Uiso   1.00
H174   H     0.68897   0.57539   0.06276   0.00000  Uiso   1.00
H175   H     0.82924   0.18963   0.23295   0.00000  Uiso   1.00
O176   O     0.89544   0.19772   0.27445   0.00000  Uiso   1.00
O177   O     0.77884   0.58364   0.95505   0.00000  Uiso   1.00
O178   O     0.96288   0.07753   0.17832   0.00000  Uiso   1.00
N179   N     0.10085   0.18953   0.19985   0.00000  Uiso   1.00
N180   N     0.73035   0.46455   0.97223   0.00000  Uiso   1.00
N181   N     0.86153   0.10391   0.13133   0.00000  Uiso   1.00
N182   N     0.06380   0.25675   0.26947   0.00000  Uiso   1.00
N183   N     0.69330   0.53178   0.04186   0.00000  Uiso   1.00
N184   N     0.82448   0.17114   0.20095   0.00000  Uiso   1.00
C185   C     0.87742   0.00142   0.94564   0.00000  Uiso   1.00
C186   C     0.01478   0.00155   0.89940   0.00000  Uiso   1.00
C187   C     0.10971   0.03885   0.89941   0.00000  Uiso   1.00
C188   C     0.22921   0.03198   0.85319   0.00000  Uiso   1.00
C189   C     0.43891   0.03864   0.78818   0.00000  Uiso   1.00
C190   C     0.84306   0.92474   0.96209   0.00000  Uiso   1.00
C191   C     0.79360   0.89746   0.01482   0.00000  Uiso   1.00
C192   C     0.76853   0.82593   0.02138   0.00000  Uiso   1.00
C193   C     0.71155   0.71335   0.05371   0.00000  Uiso   1.00
C194   C     0.80417   0.02415   0.91917   0.00000  Uiso   1.00
C195   C     0.72198   0.08045   0.93582   0.00000  Uiso   1.00
C196   C     0.66414   0.09260   0.90624   0.00000  Uiso   1.00
C197   C     0.54677   0.13437   0.87194   0.00000  Uiso   1.00
C198   C     0.92082   0.92289   0.86353   0.00000  Uiso   1.00
C199   C     0.03834   0.95889   0.85480   0.00000  Uiso   1.00
C200   C     0.15772   0.95196   0.80857   0.00000  Uiso   1.00
C201   C     0.25282   0.98925   0.80851   0.00000  Uiso   1.00
C202   C     0.86663   0.88208   0.91750   0.00000  Uiso   1.00
C203   C     0.84161   0.81057   0.92398   0.00000  Uiso   1.00
C204   C     0.79214   0.78319   0.97670   0.00000  Uiso   1.00
C205   C     0.82774   0.98149   0.87457   0.00000  Uiso   1.00
C206   C     0.77000   0.99356   0.84497   0.00000  Uiso   1.00
C207   C     0.68775   0.04986   0.86157   0.00000  Uiso   1.00
H208   H     0.85907   0.03463   0.98036   0.00000  Uiso   1.00
H209   H     0.09144   0.07185   0.93393   0.00000  Uiso   1.00
H210   H     0.77536   0.93049   0.04932   0.00000  Uiso   1.00
H211   H     0.70376   0.11345   0.97033   0.00000  Uiso   1.00
H212   H     0.35946   0.09429   0.86280   0.00000  Uiso   1.00
H213   H     0.69296   0.79622   0.10611   0.00000  Uiso   1.00
H214   H     0.54197   0.18202   0.93954   0.00000  Uiso   1.00
H215   H     0.93916   0.88967   0.82881   0.00000  Uiso   1.00
H216   H     0.17594   0.91895   0.77406   0.00000  Uiso   1.00
H217   H     0.85986   0.77758   0.88946   0.00000  Uiso   1.00
H218   H     0.78826   0.96053   0.81046   0.00000  Uiso   1.00
H219   H     0.42805   0.97018   0.73304   0.00000  Uiso   1.00
H220   H     0.76154   0.67211   0.97636   0.00000  Uiso   1.00
H221   H     0.61056   0.05791   0.80978   0.00000  Uiso   1.00
O222   O     0.54807   0.05409   0.76465   0.00000  Uiso   1.00
O223   O     0.67362   0.66303   0.08386   0.00000  Uiso   1.00
O224   O     0.47554   0.16920   0.86533   0.00000  Uiso   1.00
N225   N     0.34311   0.06108   0.83977   0.00000  Uiso   1.00
N226   N     0.71999   0.78239   0.06725   0.00000  Uiso   1.00
N227   N     0.57880   0.14307   0.91153   0.00000  Uiso   1.00
N228   N     0.38001   0.99430   0.76995   0.00000  Uiso   1.00
N229   N     0.75689   0.71561   0.99743   0.00000  Uiso   1.00
N230   N     0.61570   0.07629   0.84171   0.00000  Uiso   1.00
C231   C     0.06746   0.25328   0.59503   0.00000  Uiso   1.00
C232   C     0.92981   0.25262   0.64094   0.00000  Uiso   1.00
C233   C     0.83471   0.28951   0.64075   0.00000  Uiso   1.00
C234   C     0.71496   0.28192   0.68666   0.00000  Uiso   1.00
C235   C     0.50482   0.28741   0.75116   0.00000  Uiso   1.00
C236   C     0.10329   0.17682   0.57821   0.00000  Uiso   1.00
C237   C     0.15406   0.14997   0.52527   0.00000  Uiso   1.00
C238   C     0.18035   0.07858   0.51838   0.00000  Uiso   1.00
C239   C     0.23962   0.96639   0.48548   0.00000  Uiso   1.00
C240   C     0.13942   0.27622   0.62206   0.00000  Uiso   1.00
C241   C     0.22061   0.33294   0.60598   0.00000  Uiso   1.00
C242   C     0.27735   0.34522   0.63600   0.00000  Uiso   1.00
C243   C     0.39272   0.38736   0.67119   0.00000  Uiso   1.00
C244   C     0.02390   0.17422   0.67691   0.00000  Uiso   1.00
C245   C     0.90615   0.20968   0.68541   0.00000  Uiso   1.00
C246   C     0.78651   0.20204   0.73133   0.00000  Uiso   1.00
C247   C     0.69125   0.23891   0.73121   0.00000  Uiso   1.00
C248   C     0.07963   0.13388   0.62267   0.00000  Uiso   1.00
C249   C     0.10586   0.06251   0.61586   0.00000  Uiso   1.00
C250   C     0.15665   0.03556   0.56293   0.00000  Uiso   1.00
C251   C     0.11576   0.23328   0.66653   0.00000  Uiso   1.00
C252   C     0.17240   0.24547   0.69657   0.00000  Uiso   1.00
C253   C     0.25364   0.30220   0.68055   0.00000  Uiso   1.00
H254   H     0.08588   0.28671   0.56041   0.00000  Uiso   1.00
H255   H     0.85306   0.32273   0.60632   0.00000  Uiso   1.00
H256   H     0.17237   0.18322   0.49086   0.00000  Uiso   1.00
H257   H     0.23889   0.36616   0.57157   0.00000  Uiso   1.00
H258   H     0.58449   0.34371   0.67683   0.00000  Uiso   1.00
H259   H     0.25781   0.04955   0.43338   0.00000  Uiso   1.00
H260   H     0.39810   0.43530   0.60356   0.00000  Uiso   1.00
H261   H     0.00547   0.14079   0.71153   0.00000  Uiso   1.00
H262   H     0.76823   0.16880   0.76574   0.00000  Uiso   1.00
H263   H     0.08754   0.02929   0.65028   0.00000  Uiso   1.00
H264   H     0.15406   0.21223   0.73098   0.00000  Uiso   1.00
H265   H     0.51564   0.21877   0.80622   0.00000  Uiso   1.00
H266   H     0.18897   0.92461   0.56276   0.00000  Uiso   1.00
H267   H     0.32924   0.31037   0.73295   0.00000  Uiso   1.00
O268   O     0.39544   0.30228   0.77445   0.00000  Uiso   1.00
O269   O     0.27884   0.91636   0.45505   0.00000  Uiso   1.00
O270   O     0.46288   0.42247   0.67832   0.00000  Uiso   1.00
N271   N     0.60085   0.31047   0.69985   0.00000  Uiso   1.00
N272   N     0.23035   0.03545   0.47223   0.00000  Uiso   1.00
N273   N     0.36153   0.39609   0.63133   0.00000  Uiso   1.00
N274   N     0.56380   0.24325   0.76947   0.00000  Uiso   1.00
N275   N     0.19330   0.96822   0.54186   0.00000  Uiso   1.00
N276   N     0.32448   0.32886   0.70095   0.00000  Uiso   1.00
C277   C     0.37742   0.50142   0.94564   0.00000  Uiso   1.00
C278   C     0.51478   0.50155   0.89940   0.00000  Uiso   1.00
C279   C     0.60971   0.53885   0.89941   0.00000  Uiso   1.00
C280   C     0.72921   0.53198   0.85319   0.00000  Uiso   1.00
C281   C     0.93891   0.53864   0.78818   0.00000  Uiso   1.00
C282   C     0.34306   0.42474   0.96209   0.00000  Uiso   1.00
C283   C     0.29360   0.39746   0.01482   0.00000  Uiso   1.00
C284   C     0.26853   0.32593   0.02138   0.00000  Uiso   1.00
C285   C     0.21155   0.21335   0.05371   0.00000  Uiso   1.00
C286   C     0.30417   0.52415   0.91917   0.00000  Uiso   1.00
C287   C     0.22198   0.58045   0.93582   0.00000  Uiso   1.00
C288   C     0.16414   0.59260   0.90624   0.00000  Uiso   1.00
C289   C     0.04677   0.63437   0.87194   0.00000  Uiso   1.00
C290   C     0.42082   0.42289   0.86353   0.00000  Uiso   1.00
C291   C     0.53834   0.45889   0.85480   0.00000  Uiso   1.00
C292   C     0.65772   0.45196   0.80857   0.00000  Uiso   1.00
C293   C     0.75282   0.48925   0.80851   0.00000  Uiso   1.00
C294   C     0.36663   0.38208   0.91750   0.00000  Uiso   1.00
C295   C     0.34161   0.31057   0.92398   0.00000  Uiso   1.00
C296   C     0.29214   0.28319   0.97670   0.00000  Uiso   1.00
C297   C     0.32774   0.48149   0.87457   0.00000  Uiso   1.00
C298   C     0.27000   0.49356   0.84497   0.00000  Uiso   1.00
C299   C     0.18775   0.54986   0.86157   0.00000  Uiso   1.00
H300   H     0.35907   0.53463   0.98036   0.00000  Uiso   1.00
H301   H     0.59144   0.57185   0.93393   0.00000  Uiso   1.00
H302   H     0.27536   0.43049   0.04932   0.00000  Uiso   1.00
H303   H     0.20376   0.61345   0.97033   0.00000  Uiso   1.00
H304   H     0.85946   0.59429   0.86280   0.00000  Uiso   1.00
H305   H     0.19296   0.29622   0.10611   0.00000  Uiso   1.00
H306   H     0.04197   0.68202   0.93954   0.00000  Uiso   1.00
H307   H     0.43916   0.38967   0.82881   0.00000  Uiso   1.00
H308   H     0.67594   0.41895   0.77406   0.00000  Uiso   1.00
H309   H     0.35986   0.27758   0.88946   0.00000  Uiso   1.00
H310   H     0.28826   0.46053   0.81046   0.00000  Uiso   1.00
H311   H     0.92805   0.47018   0.73304   0.00000  Uiso   1.00
H312   H     0.26154   0.17211   0.97636   0.00000  Uiso   1.00
H313   H     0.11056   0.55791   0.80978   0.00000  Uiso   1.00
O314   O     0.04807   0.55409   0.76465   0.00000  Uiso   1.00
O315   O     0.17362   0.16303   0.08386   0.00000  Uiso   1.00
O316   O     0.97554   0.66920   0.86533   0.00000  Uiso   1.00
N317   N     0.84311   0.56108   0.83977   0.00000  Uiso   1.00
N318   N     0.21999   0.28239   0.06725   0.00000  Uiso   1.00
N319   N     0.07880   0.64307   0.91153   0.00000  Uiso   1.00
N320   N     0.88001   0.49430   0.76995   0.00000  Uiso   1.00
N321   N     0.25689   0.21561   0.99743   0.00000  Uiso   1.00
N322   N     0.11570   0.57629   0.84171   0.00000  Uiso   1.00
C323   C     0.56746   0.75328   0.59503   0.00000  Uiso   1.00
C324   C     0.42981   0.75262   0.64094   0.00000  Uiso   1.00
C325   C     0.33471   0.78951   0.64075   0.00000  Uiso   1.00
C326   C     0.21496   0.78192   0.68666   0.00000  Uiso   1.00
C327   C     0.00482   0.78741   0.75116   0.00000  Uiso   1.00
C328   C     0.60329   0.67682   0.57821   0.00000  Uiso   1.00
C329   C     0.65406   0.64997   0.52527   0.00000  Uiso   1.00
C330   C     0.68035   0.57858   0.51838   0.00000  Uiso   1.00
C331   C     0.73962   0.46639   0.48548   0.00000  Uiso   1.00
C332   C     0.63942   0.77622   0.62206   0.00000  Uiso   1.00
C333   C     0.72061   0.83294   0.60598   0.00000  Uiso   1.00
C334   C     0.77735   0.84522   0.63600   0.00000  Uiso   1.00
C335   C     0.89272   0.88736   0.67119   0.00000  Uiso   1.00
C336   C     0.52390   0.67422   0.67691   0.00000  Uiso   1.00
C337   C     0.40615   0.70968   0.68541   0.00000  Uiso   1.00
C338   C     0.28651   0.70204   0.73133   0.00000  Uiso   1.00
C339   C     0.19125   0.73891   0.73121   0.00000  Uiso   1.00
C340   C     0.57963   0.63388   0.62267   0.00000  Uiso   1.00
C341   C     0.60586   0.56251   0.61586   0.00000  Uiso   1.00
C342   C     0.65665   0.53556   0.56293   0.00000  Uiso   1.00
C343   C     0.61576   0.73328   0.66653   0.00000  Uiso   1.00
C344   C     0.67240   0.74547   0.69657   0.00000  Uiso   1.00
C345   C     0.75364   0.80220   0.68055   0.00000  Uiso   1.00
H346   H     0.58588   0.78671   0.56041   0.00000  Uiso   1.00
H347   H     0.35306   0.82273   0.60632   0.00000  Uiso   1.00
H348   H     0.67237   0.68322   0.49086   0.00000  Uiso   1.00
H349   H     0.73889   0.86616   0.57157   0.00000  Uiso   1.00
H350   H     0.08449   0.84371   0.67683   0.00000  Uiso   1.00
H351   H     0.75781   0.54955   0.43338   0.00000  Uiso   1.00
H352   H     0.89810   0.93530   0.60356   0.00000  Uiso   1.00
H353   H     0.50547   0.64079   0.71153   0.00000  Uiso   1.00
H354   H     0.26823   0.66880   0.76574   0.00000  Uiso   1.00
H355   H     0.58754   0.52929   0.65028   0.00000  Uiso   1.00
H356   H     0.65406   0.71223   0.73098   0.00000  Uiso   1.00
H357   H     0.01564   0.71877   0.80622   0.00000  Uiso   1.00
H358   H     0.68897   0.42461   0.56276   0.00000  Uiso   1.00
H359   H     0.82924   0.81037   0.73295   0.00000  Uiso   1.00
O360   O     0.89544   0.80228   0.77445   0.00000  Uiso   1.00
O361   O     0.77884   0.41636   0.45505   0.00000  Uiso   1.00
O362   O     0.96288   0.92247   0.67832   0.00000  Uiso   1.00
N363   N     0.10085   0.81047   0.69985   0.00000  Uiso   1.00
N364   N     0.73035   0.53545   0.47223   0.00000  Uiso   1.00
N365   N     0.86153   0.89609   0.63133   0.00000  Uiso   1.00
N366   N     0.06380   0.74325   0.76947   0.00000  Uiso   1.00
N367   N     0.69330   0.46822   0.54186   0.00000  Uiso   1.00
N368   N     0.82448   0.82886   0.70095   0.00000  Uiso   1.00
