data_job_03510
_audit_creation_date              2018-12-19
_audit_creation_method            'Materials Studio'
_symmetry_space_group_name_H-M    'P1'
_symmetry_Int_Tables_number       1
_symmetry_cell_setting            triclinic
loop_
_symmetry_equiv_pos_as_xyz
  x,y,z
_cell_length_a                    10.1952
_cell_length_b                    13.9896
_cell_length_c                    16.1658
_cell_angle_alpha                 90.0000
_cell_angle_beta                  90.0000
_cell_angle_gamma                 90.0000
loop_
_atom_site_label
_atom_site_type_symbol
_atom_site_fract_x
_atom_site_fract_y
_atom_site_fract_z
_atom_site_U_iso_or_equiv
_atom_site_adp_type
_atom_site_occupancy
C1     C     0.50467   0.29454   0.23307   0.00000  Uiso   1.00
C2     C     0.46319   0.24982   0.15112   0.00000  Uiso   1.00
C3     C     0.50746   0.27694   0.07341   0.00000  Uiso   1.00
C4     C     0.45768   0.22717   0.00606   0.00000  Uiso   1.00
C5     C     0.40703   0.16904   0.87728   0.00000  Uiso   1.00
C6     C     0.37852   0.32734   0.27505   0.00000  Uiso   1.00
C7     C     0.35161   0.41964   0.30156   0.00000  Uiso   1.00
C8     C     0.23055   0.43511   0.33856   0.00000  Uiso   1.00
C9     C     0.04848   0.49732   0.40224   0.00000  Uiso   1.00
C10    C     0.55777   0.21285   0.28577   0.00000  Uiso   1.00
C11    C     0.68156   0.20889   0.32131   0.00000  Uiso   1.00
C12    C     0.71141   0.12798   0.36735   0.00000  Uiso   1.00
C13    C     0.80766   0.01242   0.44768   0.00000  Uiso   1.00
C14    C     0.33754   0.15790   0.25166   0.00000  Uiso   1.00
C15    C     0.37241   0.17560   0.16122   0.00000  Uiso   1.00
C16    C     0.32255   0.12577   0.09398   0.00000  Uiso   1.00
C17    C     0.36674   0.15281   0.01618   0.00000  Uiso   1.00
C18    C     0.28774   0.25312   0.28516   0.00000  Uiso   1.00
C19    C     0.16670   0.26846   0.32213   0.00000  Uiso   1.00
C20    C     0.13961   0.36076   0.34868   0.00000  Uiso   1.00
C21    C     0.46699   0.13863   0.29587   0.00000  Uiso   1.00
C22    C     0.49665   0.05771   0.34188   0.00000  Uiso   1.00
C23    C     0.62047   0.05363   0.37747   0.00000  Uiso   1.00
H24    H     0.57534   0.35233   0.22521   0.00000  Uiso   1.00
H25    H     0.57771   0.33439   0.06562   0.00000  Uiso   1.00
H26    H     0.42188   0.47705   0.29374   0.00000  Uiso   1.00
H27    H     0.75178   0.26634   0.31348   0.00000  Uiso   1.00
H28    H     0.54026   0.28179   0.89313   0.00000  Uiso   1.00
H29    H     0.21171   0.58261   0.37417   0.00000  Uiso   1.00
H30    H     0.90738   0.13827   0.41581   0.00000  Uiso   1.00
H31    H     0.26686   0.10012   0.25953   0.00000  Uiso   1.00
H32    H     0.25230   0.06834   0.10181   0.00000  Uiso   1.00
H33    H     0.09648   0.21101   0.32994   0.00000  Uiso   1.00
H34    H     0.42638   0.00029   0.34968   0.00000  Uiso   1.00
H35    H     0.27614   0.06586   0.92251   0.00000  Uiso   1.00
H36    H     0.94760   0.36668   0.40355   0.00000  Uiso   1.00
H37    H     0.64326   0.92234   0.44518   0.00000  Uiso   1.00
O38    O     0.40415   0.15749   0.80345   0.00000  Uiso   1.00
O39    O     0.97313   0.55214   0.43456   0.00000  Uiso   1.00
O40    O     0.88583   0.96918   0.48919   0.00000  Uiso   1.00
N41    N     0.48012   0.23532   0.92169   0.00000  Uiso   1.00
N42    N     0.17294   0.51657   0.37142   0.00000  Uiso   1.00
N43    N     0.82332   0.10116   0.41036   0.00000  Uiso   1.00
N44    N     0.33800   0.11913   0.93750   0.00000  Uiso   1.00
N45    N     0.03082   0.40038   0.38723   0.00000  Uiso   1.00
N46    N     0.68120   0.98497   0.42617   0.00000  Uiso   1.00
C47    C     0.99533   0.70546   0.73307   0.00000  Uiso   1.00
C48    C     0.03681   0.75018   0.65112   0.00000  Uiso   1.00
C49    C     0.99254   0.72306   0.57341   0.00000  Uiso   1.00
C50    C     0.04232   0.77283   0.50606   0.00000  Uiso   1.00
C51    C     0.09297   0.83096   0.37728   0.00000  Uiso   1.00
C52    C     0.12148   0.67266   0.77505   0.00000  Uiso   1.00
C53    C     0.14839   0.58036   0.80156   0.00000  Uiso   1.00
C54    C     0.26945   0.56489   0.83856   0.00000  Uiso   1.00
C55    C     0.45152   0.50268   0.90224   0.00000  Uiso   1.00
C56    C     0.94223   0.78715   0.78577   0.00000  Uiso   1.00
C57    C     0.81844   0.79111   0.82131   0.00000  Uiso   1.00
C58    C     0.78859   0.87202   0.86735   0.00000  Uiso   1.00
C59    C     0.69234   0.98758   0.94768   0.00000  Uiso   1.00
C60    C     0.16246   0.84210   0.75166   0.00000  Uiso   1.00
C61    C     0.12759   0.82440   0.66122   0.00000  Uiso   1.00
C62    C     0.17745   0.87423   0.59398   0.00000  Uiso   1.00
C63    C     0.13326   0.84719   0.51618   0.00000  Uiso   1.00
C64    C     0.21226   0.74688   0.78516   0.00000  Uiso   1.00
C65    C     0.33330   0.73154   0.82213   0.00000  Uiso   1.00
C66    C     0.36039   0.63924   0.84868   0.00000  Uiso   1.00
C67    C     0.03301   0.86137   0.79587   0.00000  Uiso   1.00
C68    C     0.00335   0.94229   0.84188   0.00000  Uiso   1.00
C69    C     0.87953   0.94637   0.87747   0.00000  Uiso   1.00
H70    H     0.92466   0.64767   0.72521   0.00000  Uiso   1.00
H71    H     0.92229   0.66561   0.56562   0.00000  Uiso   1.00
H72    H     0.07812   0.52295   0.79374   0.00000  Uiso   1.00
H73    H     0.74822   0.73366   0.81348   0.00000  Uiso   1.00
H74    H     0.95974   0.71821   0.39313   0.00000  Uiso   1.00
H75    H     0.28829   0.41739   0.87417   0.00000  Uiso   1.00
H76    H     0.59262   0.86173   0.91581   0.00000  Uiso   1.00
H77    H     0.23314   0.89988   0.75953   0.00000  Uiso   1.00
H78    H     0.24770   0.93166   0.60181   0.00000  Uiso   1.00
H79    H     0.40352   0.78899   0.82994   0.00000  Uiso   1.00
H80    H     0.07362   0.99971   0.84968   0.00000  Uiso   1.00
H81    H     0.22386   0.93414   0.42251   0.00000  Uiso   1.00
H82    H     0.55240   0.63332   0.90355   0.00000  Uiso   1.00
H83    H     0.85674   0.07766   0.94518   0.00000  Uiso   1.00
O84    O     0.09585   0.84251   0.30345   0.00000  Uiso   1.00
O85    O     0.52687   0.44786   0.93456   0.00000  Uiso   1.00
O86    O     0.61417   0.03082   0.98919   0.00000  Uiso   1.00
N87    N     0.01988   0.76468   0.42169   0.00000  Uiso   1.00
N88    N     0.32706   0.48343   0.87142   0.00000  Uiso   1.00
N89    N     0.67668   0.89884   0.91036   0.00000  Uiso   1.00
N90    N     0.16200   0.88087   0.43750   0.00000  Uiso   1.00
N91    N     0.46918   0.59962   0.88723   0.00000  Uiso   1.00
N92    N     0.81880   0.01503   0.92617   0.00000  Uiso   1.00
C93    C     0.49533   0.79454   0.26693   0.00000  Uiso   1.00
C94    C     0.53681   0.74982   0.34888   0.00000  Uiso   1.00
C95    C     0.49254   0.77694   0.42659   0.00000  Uiso   1.00
C96    C     0.54232   0.72717   0.49394   0.00000  Uiso   1.00
C97    C     0.59297   0.66904   0.62272   0.00000  Uiso   1.00
C98    C     0.62148   0.82734   0.22495   0.00000  Uiso   1.00
C99    C     0.64839   0.91964   0.19844   0.00000  Uiso   1.00
C100   C     0.76945   0.93511   0.16144   0.00000  Uiso   1.00
C101   C     0.95152   0.99732   0.09776   0.00000  Uiso   1.00
C102   C     0.44223   0.71285   0.21423   0.00000  Uiso   1.00
C103   C     0.31844   0.70889   0.17869   0.00000  Uiso   1.00
C104   C     0.28859   0.62798   0.13265   0.00000  Uiso   1.00
C105   C     0.19234   0.51242   0.05232   0.00000  Uiso   1.00
C106   C     0.66246   0.65790   0.24834   0.00000  Uiso   1.00
C107   C     0.62759   0.67560   0.33878   0.00000  Uiso   1.00
C108   C     0.67745   0.62577   0.40602   0.00000  Uiso   1.00
C109   C     0.63326   0.65281   0.48382   0.00000  Uiso   1.00
C110   C     0.71226   0.75312   0.21484   0.00000  Uiso   1.00
C111   C     0.83330   0.76846   0.17787   0.00000  Uiso   1.00
C112   C     0.86039   0.86076   0.15132   0.00000  Uiso   1.00
C113   C     0.53301   0.63863   0.20413   0.00000  Uiso   1.00
C114   C     0.50335   0.55771   0.15812   0.00000  Uiso   1.00
C115   C     0.37953   0.55363   0.12253   0.00000  Uiso   1.00
H116   H     0.42466   0.85233   0.27479   0.00000  Uiso   1.00
H117   H     0.42229   0.83439   0.43438   0.00000  Uiso   1.00
H118   H     0.57812   0.97705   0.20626   0.00000  Uiso   1.00
H119   H     0.24822   0.76634   0.18652   0.00000  Uiso   1.00
H120   H     0.45974   0.78179   0.60687   0.00000  Uiso   1.00
H121   H     0.78829   0.08261   0.12583   0.00000  Uiso   1.00
H122   H     0.09262   0.63827   0.08419   0.00000  Uiso   1.00
H123   H     0.73314   0.60012   0.24047   0.00000  Uiso   1.00
H124   H     0.74770   0.56834   0.39819   0.00000  Uiso   1.00
H125   H     0.90352   0.71101   0.17006   0.00000  Uiso   1.00
H126   H     0.57362   0.50029   0.15032   0.00000  Uiso   1.00
H127   H     0.72386   0.56586   0.57749   0.00000  Uiso   1.00
H128   H     0.05240   0.86668   0.09645   0.00000  Uiso   1.00
H129   H     0.35674   0.42234   0.05482   0.00000  Uiso   1.00
O130   O     0.59585   0.65749   0.69655   0.00000  Uiso   1.00
O131   O     0.02687   0.05214   0.06544   0.00000  Uiso   1.00
O132   O     0.11417   0.46918   0.01081   0.00000  Uiso   1.00
N133   N     0.51988   0.73532   0.57831   0.00000  Uiso   1.00
N134   N     0.82706   0.01657   0.12858   0.00000  Uiso   1.00
N135   N     0.17668   0.60116   0.08964   0.00000  Uiso   1.00
N136   N     0.66200   0.61913   0.56250   0.00000  Uiso   1.00
N137   N     0.96918   0.90038   0.11277   0.00000  Uiso   1.00
N138   N     0.31880   0.48497   0.07383   0.00000  Uiso   1.00
C139   C     0.00467   0.20546   0.76693   0.00000  Uiso   1.00
C140   C     0.96319   0.25018   0.84888   0.00000  Uiso   1.00
C141   C     0.00746   0.22306   0.92659   0.00000  Uiso   1.00
C142   C     0.95768   0.27283   0.99394   0.00000  Uiso   1.00
C143   C     0.90703   0.33096   0.12272   0.00000  Uiso   1.00
C144   C     0.87852   0.17266   0.72495   0.00000  Uiso   1.00
C145   C     0.85161   0.08036   0.69844   0.00000  Uiso   1.00
C146   C     0.73055   0.06489   0.66144   0.00000  Uiso   1.00
C147   C     0.54848   0.00268   0.59776   0.00000  Uiso   1.00
C148   C     0.05777   0.28715   0.71423   0.00000  Uiso   1.00
C149   C     0.18156   0.29111   0.67869   0.00000  Uiso   1.00
C150   C     0.21141   0.37202   0.63265   0.00000  Uiso   1.00
C151   C     0.30766   0.48758   0.55232   0.00000  Uiso   1.00
C152   C     0.83754   0.34210   0.74834   0.00000  Uiso   1.00
C153   C     0.87241   0.32440   0.83878   0.00000  Uiso   1.00
C154   C     0.82255   0.37423   0.90602   0.00000  Uiso   1.00
C155   C     0.86674   0.34719   0.98382   0.00000  Uiso   1.00
C156   C     0.78774   0.24688   0.71484   0.00000  Uiso   1.00
C157   C     0.66670   0.23154   0.67787   0.00000  Uiso   1.00
C158   C     0.63961   0.13924   0.65132   0.00000  Uiso   1.00
C159   C     0.96699   0.36137   0.70413   0.00000  Uiso   1.00
C160   C     0.99665   0.44229   0.65812   0.00000  Uiso   1.00
C161   C     0.12047   0.44637   0.62253   0.00000  Uiso   1.00
H162   H     0.07534   0.14767   0.77479   0.00000  Uiso   1.00
H163   H     0.07771   0.16561   0.93438   0.00000  Uiso   1.00
H164   H     0.92188   0.02295   0.70626   0.00000  Uiso   1.00
H165   H     0.25178   0.23366   0.68652   0.00000  Uiso   1.00
H166   H     0.04026   0.21821   0.10687   0.00000  Uiso   1.00
H167   H     0.71171   0.91739   0.62583   0.00000  Uiso   1.00
H168   H     0.40738   0.36173   0.58419   0.00000  Uiso   1.00
H169   H     0.76686   0.39988   0.74047   0.00000  Uiso   1.00
H170   H     0.75230   0.43166   0.89819   0.00000  Uiso   1.00
H171   H     0.59648   0.28899   0.67006   0.00000  Uiso   1.00
H172   H     0.92638   0.49971   0.65032   0.00000  Uiso   1.00
H173   H     0.77614   0.43414   0.07749   0.00000  Uiso   1.00
H174   H     0.44760   0.13332   0.59645   0.00000  Uiso   1.00
H175   H     0.14326   0.57766   0.55482   0.00000  Uiso   1.00
O176   O     0.90415   0.34251   0.19655   0.00000  Uiso   1.00
O177   O     0.47313   0.94786   0.56544   0.00000  Uiso   1.00
O178   O     0.38583   0.53082   0.51081   0.00000  Uiso   1.00
N179   N     0.98012   0.26468   0.07831   0.00000  Uiso   1.00
N180   N     0.67294   0.98343   0.62858   0.00000  Uiso   1.00
N181   N     0.32332   0.39884   0.58964   0.00000  Uiso   1.00
N182   N     0.83800   0.38087   0.06250   0.00000  Uiso   1.00
N183   N     0.53082   0.09962   0.61277   0.00000  Uiso   1.00
N184   N     0.18120   0.51503   0.57383   0.00000  Uiso   1.00
