data_job_02322
_audit_creation_date              2018-12-19
_audit_creation_method            'Materials Studio'
_symmetry_space_group_name_H-M    'P1'
_symmetry_Int_Tables_number       1
_symmetry_cell_setting            triclinic
loop_
_symmetry_equiv_pos_as_xyz
  x,y,z
_cell_length_a                    9.7345
_cell_length_b                    14.6019
_cell_length_c                    19.0943
_cell_angle_alpha                 90.0000
_cell_angle_beta                  90.0000
_cell_angle_gamma                 90.0000
loop_
_atom_site_label
_atom_site_type_symbol
_atom_site_fract_x
_atom_site_fract_y
_atom_site_fract_z
_atom_site_U_iso_or_equiv
_atom_site_adp_type
_atom_site_occupancy
C1     C     0.18042   0.98465   0.26627   0.00000  Uiso   1.00
C2     C     0.28626   0.02998   0.21869   0.00000  Uiso   1.00
C3     C     0.42781   0.02435   0.22615   0.00000  Uiso   1.00
C4     C     0.50707   0.07074   0.17719   0.00000  Uiso   1.00
C5     C     0.68058   0.13353   0.11160   0.00000  Uiso   1.00
C6     C     0.08806   0.06157   0.29276   0.00000  Uiso   1.00
C7     C     0.06297   0.08248   0.36250   0.00000  Uiso   1.00
C8     C     0.97536   0.15544   0.37590   0.00000  Uiso   1.00
C9     C     0.84110   0.26723   0.42530   0.00000  Uiso   1.00
C10    C     0.09087   0.92571   0.21871   0.00000  Uiso   1.00
C11    C     0.06811   0.83240   0.22620   0.00000  Uiso   1.00
C12    C     0.98284   0.79098   0.17726   0.00000  Uiso   1.00
C13    C     0.85294   0.69184   0.11170   0.00000  Uiso   1.00
C14    C     0.06944   0.07703   0.16607   0.00000  Uiso   1.00
C15    C     0.22598   0.08016   0.16426   0.00000  Uiso   1.00
C16    C     0.30503   0.12656   0.11528   0.00000  Uiso   1.00
C17    C     0.44668   0.12100   0.12266   0.00000  Uiso   1.00
C18    C     0.02779   0.11174   0.23833   0.00000  Uiso   1.00
C19    C     0.94019   0.18469   0.25163   0.00000  Uiso   1.00
C20    C     0.91498   0.20571   0.32137   0.00000  Uiso   1.00
C21    C     0.03060   0.97589   0.16428   0.00000  Uiso   1.00
C22    C     0.94533   0.93461   0.11533   0.00000  Uiso   1.00
C23    C     0.92245   0.84125   0.12274   0.00000  Uiso   1.00
H24    H     0.22734   0.94559   0.30865   0.00000  Uiso   1.00
H25    H     0.47442   0.98552   0.26828   0.00000  Uiso   1.00
H26    H     0.10962   0.04363   0.40461   0.00000  Uiso   1.00
H27    H     0.11477   0.79359   0.26832   0.00000  Uiso   1.00
H28    H     0.72178   0.05195   0.19953   0.00000  Uiso   1.00
H29    H     0.95254   0.17446   0.48698   0.00000  Uiso   1.00
H30    H     0.96339   0.64720   0.19961   0.00000  Uiso   1.00
H31    H     0.02251   0.11609   0.12369   0.00000  Uiso   1.00
H32    H     0.25836   0.16538   0.07317   0.00000  Uiso   1.00
H33    H     0.89356   0.22350   0.20950   0.00000  Uiso   1.00
H34    H     0.89871   0.97346   0.07322   0.00000  Uiso   1.00
H35    H     0.54641   0.19794   0.04117   0.00000  Uiso   1.00
H36    H     0.77717   0.32045   0.32863   0.00000  Uiso   1.00
H37    H     0.78802   0.79319   0.04125   0.00000  Uiso   1.00
O38    O     0.79294   0.15432   0.09046   0.00000  Uiso   1.00
O39    O     0.78371   0.31503   0.46759   0.00000  Uiso   1.00
O40    O     0.79795   0.62328   0.09056   0.00000  Uiso   1.00
N41    N     0.64814   0.07953   0.16919   0.00000  Uiso   1.00
N42    N     0.92896   0.19408   0.43794   0.00000  Uiso   1.00
N43    N     0.93908   0.70114   0.16928   0.00000  Uiso   1.00
N44    N     0.55377   0.15808   0.08397   0.00000  Uiso   1.00
N45    N     0.83460   0.27263   0.35273   0.00000  Uiso   1.00
N46    N     0.84472   0.77969   0.08407   0.00000  Uiso   1.00
C47    C     0.81958   0.01535   0.76627   0.00000  Uiso   1.00
C48    C     0.71374   0.97002   0.71869   0.00000  Uiso   1.00
C49    C     0.57219   0.97565   0.72615   0.00000  Uiso   1.00
C50    C     0.49293   0.92926   0.67719   0.00000  Uiso   1.00
C51    C     0.31942   0.86647   0.61160   0.00000  Uiso   1.00
C52    C     0.91194   0.93843   0.79276   0.00000  Uiso   1.00
C53    C     0.93703   0.91752   0.86250   0.00000  Uiso   1.00
C54    C     0.02464   0.84456   0.87590   0.00000  Uiso   1.00
C55    C     0.15890   0.73277   0.92530   0.00000  Uiso   1.00
C56    C     0.90913   0.07429   0.71871   0.00000  Uiso   1.00
C57    C     0.93189   0.16760   0.72620   0.00000  Uiso   1.00
C58    C     0.01716   0.20902   0.67726   0.00000  Uiso   1.00
C59    C     0.14706   0.30816   0.61170   0.00000  Uiso   1.00
C60    C     0.93056   0.92297   0.66607   0.00000  Uiso   1.00
C61    C     0.77402   0.91984   0.66426   0.00000  Uiso   1.00
C62    C     0.69497   0.87344   0.61528   0.00000  Uiso   1.00
C63    C     0.55332   0.87900   0.62266   0.00000  Uiso   1.00
C64    C     0.97221   0.88826   0.73833   0.00000  Uiso   1.00
C65    C     0.05981   0.81531   0.75163   0.00000  Uiso   1.00
C66    C     0.08502   0.79429   0.82137   0.00000  Uiso   1.00
C67    C     0.96940   0.02411   0.66428   0.00000  Uiso   1.00
C68    C     0.05467   0.06539   0.61533   0.00000  Uiso   1.00
C69    C     0.07755   0.15875   0.62274   0.00000  Uiso   1.00
H70    H     0.77266   0.05441   0.80865   0.00000  Uiso   1.00
H71    H     0.52558   0.01448   0.76828   0.00000  Uiso   1.00
H72    H     0.89038   0.95637   0.90461   0.00000  Uiso   1.00
H73    H     0.88523   0.20641   0.76832   0.00000  Uiso   1.00
H74    H     0.27822   0.94805   0.69953   0.00000  Uiso   1.00
H75    H     0.04746   0.82554   0.98698   0.00000  Uiso   1.00
H76    H     0.03661   0.35280   0.69961   0.00000  Uiso   1.00
H77    H     0.97749   0.88391   0.62369   0.00000  Uiso   1.00
H78    H     0.74164   0.83462   0.57317   0.00000  Uiso   1.00
H79    H     0.10644   0.77650   0.70950   0.00000  Uiso   1.00
H80    H     0.10129   0.02654   0.57322   0.00000  Uiso   1.00
H81    H     0.45359   0.80206   0.54117   0.00000  Uiso   1.00
H82    H     0.22283   0.67955   0.82863   0.00000  Uiso   1.00
H83    H     0.21198   0.20681   0.54125   0.00000  Uiso   1.00
O84    O     0.20706   0.84568   0.59046   0.00000  Uiso   1.00
O85    O     0.21629   0.68497   0.96759   0.00000  Uiso   1.00
O86    O     0.20205   0.37672   0.59056   0.00000  Uiso   1.00
N87    N     0.35186   0.92047   0.66919   0.00000  Uiso   1.00
N88    N     0.07104   0.80592   0.93794   0.00000  Uiso   1.00
N89    N     0.06092   0.29886   0.66928   0.00000  Uiso   1.00
N90    N     0.44623   0.84192   0.58397   0.00000  Uiso   1.00
N91    N     0.16540   0.72737   0.85273   0.00000  Uiso   1.00
N92    N     0.15528   0.22031   0.58407   0.00000  Uiso   1.00
C93    C     0.68042   0.51535   0.26627   0.00000  Uiso   1.00
C94    C     0.78626   0.47002   0.21869   0.00000  Uiso   1.00
C95    C     0.92781   0.47565   0.22615   0.00000  Uiso   1.00
C96    C     0.00707   0.42926   0.17719   0.00000  Uiso   1.00
C97    C     0.18058   0.36647   0.11160   0.00000  Uiso   1.00
C98    C     0.58806   0.43843   0.29276   0.00000  Uiso   1.00
C99    C     0.56297   0.41752   0.36250   0.00000  Uiso   1.00
C100   C     0.47536   0.34456   0.37590   0.00000  Uiso   1.00
C101   C     0.34110   0.23277   0.42530   0.00000  Uiso   1.00
C102   C     0.59087   0.57429   0.21871   0.00000  Uiso   1.00
C103   C     0.56811   0.66760   0.22620   0.00000  Uiso   1.00
C104   C     0.48284   0.70902   0.17726   0.00000  Uiso   1.00
C105   C     0.35294   0.80816   0.11170   0.00000  Uiso   1.00
C106   C     0.56944   0.42297   0.16607   0.00000  Uiso   1.00
C107   C     0.72598   0.41984   0.16426   0.00000  Uiso   1.00
C108   C     0.80503   0.37344   0.11528   0.00000  Uiso   1.00
C109   C     0.94668   0.37900   0.12266   0.00000  Uiso   1.00
C110   C     0.52779   0.38826   0.23833   0.00000  Uiso   1.00
C111   C     0.44019   0.31531   0.25163   0.00000  Uiso   1.00
C112   C     0.41498   0.29429   0.32137   0.00000  Uiso   1.00
C113   C     0.53060   0.52411   0.16428   0.00000  Uiso   1.00
C114   C     0.44533   0.56539   0.11533   0.00000  Uiso   1.00
C115   C     0.42245   0.65875   0.12274   0.00000  Uiso   1.00
H116   H     0.72734   0.55441   0.30865   0.00000  Uiso   1.00
H117   H     0.97442   0.51448   0.26828   0.00000  Uiso   1.00
H118   H     0.60962   0.45637   0.40461   0.00000  Uiso   1.00
H119   H     0.61477   0.70641   0.26832   0.00000  Uiso   1.00
H120   H     0.22178   0.44805   0.19953   0.00000  Uiso   1.00
H121   H     0.45254   0.32554   0.48698   0.00000  Uiso   1.00
H122   H     0.46339   0.85280   0.19961   0.00000  Uiso   1.00
H123   H     0.52251   0.38391   0.12369   0.00000  Uiso   1.00
H124   H     0.75836   0.33462   0.07317   0.00000  Uiso   1.00
H125   H     0.39356   0.27650   0.20950   0.00000  Uiso   1.00
H126   H     0.39871   0.52654   0.07322   0.00000  Uiso   1.00
H127   H     0.04641   0.30206   0.04117   0.00000  Uiso   1.00
H128   H     0.27717   0.17955   0.32863   0.00000  Uiso   1.00
H129   H     0.28802   0.70681   0.04125   0.00000  Uiso   1.00
O130   O     0.29294   0.34568   0.09046   0.00000  Uiso   1.00
O131   O     0.28371   0.18497   0.46759   0.00000  Uiso   1.00
O132   O     0.29795   0.87672   0.09056   0.00000  Uiso   1.00
N133   N     0.14814   0.42047   0.16919   0.00000  Uiso   1.00
N134   N     0.42896   0.30592   0.43794   0.00000  Uiso   1.00
N135   N     0.43908   0.79886   0.16928   0.00000  Uiso   1.00
N136   N     0.05377   0.34192   0.08397   0.00000  Uiso   1.00
N137   N     0.33460   0.22737   0.35273   0.00000  Uiso   1.00
N138   N     0.34472   0.72031   0.08407   0.00000  Uiso   1.00
C139   C     0.31958   0.48465   0.76627   0.00000  Uiso   1.00
C140   C     0.21374   0.52998   0.71869   0.00000  Uiso   1.00
C141   C     0.07219   0.52435   0.72615   0.00000  Uiso   1.00
C142   C     0.99293   0.57074   0.67719   0.00000  Uiso   1.00
C143   C     0.81942   0.63353   0.61160   0.00000  Uiso   1.00
C144   C     0.41194   0.56157   0.79276   0.00000  Uiso   1.00
C145   C     0.43703   0.58248   0.86250   0.00000  Uiso   1.00
C146   C     0.52464   0.65544   0.87590   0.00000  Uiso   1.00
C147   C     0.65890   0.76723   0.92530   0.00000  Uiso   1.00
C148   C     0.40913   0.42571   0.71871   0.00000  Uiso   1.00
C149   C     0.43189   0.33240   0.72620   0.00000  Uiso   1.00
C150   C     0.51716   0.29098   0.67726   0.00000  Uiso   1.00
C151   C     0.64706   0.19184   0.61170   0.00000  Uiso   1.00
C152   C     0.43056   0.57703   0.66607   0.00000  Uiso   1.00
C153   C     0.27402   0.58016   0.66426   0.00000  Uiso   1.00
C154   C     0.19497   0.62656   0.61528   0.00000  Uiso   1.00
C155   C     0.05332   0.62100   0.62266   0.00000  Uiso   1.00
C156   C     0.47221   0.61174   0.73833   0.00000  Uiso   1.00
C157   C     0.55981   0.68469   0.75163   0.00000  Uiso   1.00
C158   C     0.58502   0.70571   0.82137   0.00000  Uiso   1.00
C159   C     0.46940   0.47589   0.66428   0.00000  Uiso   1.00
C160   C     0.55467   0.43461   0.61533   0.00000  Uiso   1.00
C161   C     0.57755   0.34125   0.62274   0.00000  Uiso   1.00
H162   H     0.27266   0.44559   0.80865   0.00000  Uiso   1.00
H163   H     0.02558   0.48552   0.76828   0.00000  Uiso   1.00
H164   H     0.39038   0.54363   0.90461   0.00000  Uiso   1.00
H165   H     0.38523   0.29359   0.76832   0.00000  Uiso   1.00
H166   H     0.77822   0.55195   0.69953   0.00000  Uiso   1.00
H167   H     0.54746   0.67446   0.98698   0.00000  Uiso   1.00
H168   H     0.53661   0.14720   0.69961   0.00000  Uiso   1.00
H169   H     0.47749   0.61609   0.62369   0.00000  Uiso   1.00
H170   H     0.24164   0.66538   0.57317   0.00000  Uiso   1.00
H171   H     0.60644   0.72350   0.70950   0.00000  Uiso   1.00
H172   H     0.60129   0.47346   0.57322   0.00000  Uiso   1.00
H173   H     0.95359   0.69794   0.54117   0.00000  Uiso   1.00
H174   H     0.72283   0.82045   0.82863   0.00000  Uiso   1.00
H175   H     0.71198   0.29319   0.54125   0.00000  Uiso   1.00
O176   O     0.70706   0.65432   0.59046   0.00000  Uiso   1.00
O177   O     0.71629   0.81503   0.96759   0.00000  Uiso   1.00
O178   O     0.70205   0.12328   0.59056   0.00000  Uiso   1.00
N179   N     0.85186   0.57953   0.66919   0.00000  Uiso   1.00
N180   N     0.57104   0.69408   0.93794   0.00000  Uiso   1.00
N181   N     0.56092   0.20114   0.66928   0.00000  Uiso   1.00
N182   N     0.94623   0.65808   0.58397   0.00000  Uiso   1.00
N183   N     0.66540   0.77263   0.85273   0.00000  Uiso   1.00
N184   N     0.65528   0.27969   0.58407   0.00000  Uiso   1.00
