data_job_02308
_audit_creation_date              2018-12-19
_audit_creation_method            'Materials Studio'
_symmetry_space_group_name_H-M    'P1'
_symmetry_Int_Tables_number       1
_symmetry_cell_setting            triclinic
loop_
_symmetry_equiv_pos_as_xyz
  x,y,z
_cell_length_a                    8.0691
_cell_length_b                    11.0587
_cell_length_c                    18.3532
_cell_angle_alpha                 87.2621
_cell_angle_beta                  78.6404
_cell_angle_gamma                 73.8032
loop_
_atom_site_label
_atom_site_type_symbol
_atom_site_fract_x
_atom_site_fract_y
_atom_site_fract_z
_atom_site_U_iso_or_equiv
_atom_site_adp_type
_atom_site_occupancy
C1     C     0.75632   0.34748   0.81505   0.00000  Uiso   1.00
C2     C     0.74459   0.27971   0.88944   0.00000  Uiso   1.00
C3     C     0.59194   0.26329   0.93367   0.00000  Uiso   1.00
C4     C     0.60883   0.19865   0.99973   0.00000  Uiso   1.00
C5     C     0.56570   0.10054   0.11206   0.00000  Uiso   1.00
C6     C     0.84312   0.45092   0.82316   0.00000  Uiso   1.00
C7     C     0.77332   0.57846   0.81165   0.00000  Uiso   1.00
C8     C     0.87316   0.65794   0.82192   0.00000  Uiso   1.00
C9     C     0.98305   0.82563   0.83129   0.00000  Uiso   1.00
C10    C     0.88783   0.25317   0.75907   0.00000  Uiso   1.00
C11    C     0.85564   0.21444   0.69365   0.00000  Uiso   1.00
C12    C     0.99315   0.12745   0.64994   0.00000  Uiso   1.00
C13    C     0.17246   0.98809   0.55979   0.00000  Uiso   1.00
C14    C     0.05777   0.26188   0.85372   0.00000  Uiso   1.00
C15    C     0.90833   0.23321   0.91044   0.00000  Uiso   1.00
C16    C     0.92545   0.16857   0.97645   0.00000  Uiso   1.00
C17    C     0.77285   0.15206   0.02077   0.00000  Uiso   1.00
C18    C     0.00684   0.40443   0.84417   0.00000  Uiso   1.00
C19    C     0.10682   0.48374   0.85444   0.00000  Uiso   1.00
C20    C     0.03719   0.61136   0.84296   0.00000  Uiso   1.00
C21    C     0.05156   0.20666   0.78007   0.00000  Uiso   1.00
C22    C     0.18915   0.11972   0.73644   0.00000  Uiso   1.00
C23    C     0.15718   0.08087   0.67098   0.00000  Uiso   1.00
H24    H     0.62886   0.38369   0.79870   0.00000  Uiso   1.00
H25    H     0.46525   0.29930   0.91740   0.00000  Uiso   1.00
H26    H     0.64662   0.61441   0.79539   0.00000  Uiso   1.00
H27    H     0.72893   0.25045   0.67742   0.00000  Uiso   1.00
H28    H     0.35607   0.18527   0.05827   0.00000  Uiso   1.00
H29    H     0.73850   0.84969   0.80100   0.00000  Uiso   1.00
H30    H     0.91207   0.08221   0.55221   0.00000  Uiso   1.00
H31    H     0.18524   0.22567   0.87008   0.00000  Uiso   1.00
H32    H     0.05217   0.13260   0.99269   0.00000  Uiso   1.00
H33    H     0.23353   0.44772   0.87069   0.00000  Uiso   1.00
H34    H     0.31584   0.08376   0.75272   0.00000  Uiso   1.00
H35    H     0.83243   0.04998   0.11939   0.00000  Uiso   1.00
H36    H     0.21486   0.71440   0.86211   0.00000  Uiso   1.00
H37    H     0.38843   0.94692   0.61333   0.00000  Uiso   1.00
O38    O     0.49667   0.05929   0.16821   0.00000  Uiso   1.00
O39    O     0.99841   0.93098   0.83067   0.00000  Uiso   1.00
O40    O     0.22612   0.92406   0.50428   0.00000  Uiso   1.00
N41    N     0.48645   0.16618   0.05582   0.00000  Uiso   1.00
N42    N     0.84399   0.78738   0.81530   0.00000  Uiso   1.00
N43    N     0.00627   0.06987   0.58270   0.00000  Uiso   1.00
N44    N     0.74278   0.09338   0.08871   0.00000  Uiso   1.00
N45    N     0.10031   0.71458   0.84818   0.00000  Uiso   1.00
N46    N     0.26260   0.99707   0.61558   0.00000  Uiso   1.00
C47    C     0.24368   0.65252   0.18495   0.00000  Uiso   1.00
C48    C     0.25541   0.72029   0.11056   0.00000  Uiso   1.00
C49    C     0.40806   0.73671   0.06633   0.00000  Uiso   1.00
C50    C     0.39117   0.80135   0.00027   0.00000  Uiso   1.00
C51    C     0.43430   0.89946   0.88794   0.00000  Uiso   1.00
C52    C     0.15688   0.54908   0.17684   0.00000  Uiso   1.00
C53    C     0.22668   0.42154   0.18835   0.00000  Uiso   1.00
C54    C     0.12684   0.34206   0.17808   0.00000  Uiso   1.00
C55    C     0.01695   0.17437   0.16871   0.00000  Uiso   1.00
C56    C     0.11217   0.74683   0.24093   0.00000  Uiso   1.00
C57    C     0.14436   0.78556   0.30635   0.00000  Uiso   1.00
C58    C     0.00685   0.87255   0.35006   0.00000  Uiso   1.00
C59    C     0.82754   0.01191   0.44021   0.00000  Uiso   1.00
C60    C     0.94223   0.73812   0.14628   0.00000  Uiso   1.00
C61    C     0.09167   0.76679   0.08956   0.00000  Uiso   1.00
C62    C     0.07455   0.83143   0.02355   0.00000  Uiso   1.00
C63    C     0.22715   0.84794   0.97923   0.00000  Uiso   1.00
C64    C     0.99316   0.59557   0.15583   0.00000  Uiso   1.00
C65    C     0.89318   0.51626   0.14556   0.00000  Uiso   1.00
C66    C     0.96281   0.38864   0.15704   0.00000  Uiso   1.00
C67    C     0.94844   0.79334   0.21993   0.00000  Uiso   1.00
C68    C     0.81085   0.88028   0.26356   0.00000  Uiso   1.00
C69    C     0.84282   0.91913   0.32902   0.00000  Uiso   1.00
H70    H     0.37114   0.61631   0.20130   0.00000  Uiso   1.00
H71    H     0.53475   0.70070   0.08260   0.00000  Uiso   1.00
H72    H     0.35338   0.38559   0.20461   0.00000  Uiso   1.00
H73    H     0.27107   0.74955   0.32258   0.00000  Uiso   1.00
H74    H     0.64393   0.81473   0.94173   0.00000  Uiso   1.00
H75    H     0.26150   0.15031   0.19900   0.00000  Uiso   1.00
H76    H     0.08793   0.91779   0.44779   0.00000  Uiso   1.00
H77    H     0.81476   0.77433   0.12992   0.00000  Uiso   1.00
H78    H     0.94783   0.86740   0.00731   0.00000  Uiso   1.00
H79    H     0.76647   0.55228   0.12931   0.00000  Uiso   1.00
H80    H     0.68416   0.91624   0.24728   0.00000  Uiso   1.00
H81    H     0.16757   0.95002   0.88061   0.00000  Uiso   1.00
H82    H     0.78514   0.28560   0.13789   0.00000  Uiso   1.00
H83    H     0.61157   0.05308   0.38667   0.00000  Uiso   1.00
O84    O     0.50333   0.94071   0.83179   0.00000  Uiso   1.00
O85    O     0.00159   0.06902   0.16933   0.00000  Uiso   1.00
O86    O     0.77388   0.07594   0.49572   0.00000  Uiso   1.00
N87    N     0.51355   0.83382   0.94418   0.00000  Uiso   1.00
N88    N     0.15601   0.21262   0.18470   0.00000  Uiso   1.00
N89    N     0.99373   0.93013   0.41730   0.00000  Uiso   1.00
N90    N     0.25722   0.90662   0.91129   0.00000  Uiso   1.00
N91    N     0.89969   0.28542   0.15182   0.00000  Uiso   1.00
N92    N     0.73740   0.00293   0.38442   0.00000  Uiso   1.00
