data_job_05440
_audit_creation_date              2018-12-19
_audit_creation_method            'Materials Studio'
_symmetry_space_group_name_H-M    'P1'
_symmetry_Int_Tables_number       1
_symmetry_cell_setting            triclinic
loop_
_symmetry_equiv_pos_as_xyz
  x,y,z
_cell_length_a                    11.4541
_cell_length_b                    30.5512
_cell_length_c                    7.1945
_cell_angle_alpha                 90.0000
_cell_angle_beta                  90.0000
_cell_angle_gamma                 90.0000
loop_
_atom_site_label
_atom_site_type_symbol
_atom_site_fract_x
_atom_site_fract_y
_atom_site_fract_z
_atom_site_U_iso_or_equiv
_atom_site_adp_type
_atom_site_occupancy
C1     C     0.52684   0.88058   0.63709   0.00000  Uiso   1.00
C2     C     0.45676   0.90703   0.77800   0.00000  Uiso   1.00
C3     C     0.36248   0.93393   0.73755   0.00000  Uiso   1.00
C4     C     0.31012   0.95534   0.88596   0.00000  Uiso   1.00
C5     C     0.19517   0.99724   0.07702   0.00000  Uiso   1.00
C6     C     0.65358   0.89482   0.66058   0.00000  Uiso   1.00
C7     C     0.72480   0.91145   0.52138   0.00000  Uiso   1.00
C8     C     0.83813   0.92257   0.57095   0.00000  Uiso   1.00
C9     C     0.02878   0.94549   0.57967   0.00000  Uiso   1.00
C10    C     0.52135   0.83315   0.70263   0.00000  Uiso   1.00
C11    C     0.48141   0.79792   0.59878   0.00000  Uiso   1.00
C12    C     0.48344   0.75712   0.68374   0.00000  Uiso   1.00
C13    C     0.46878   0.68429   0.75775   0.00000  Uiso   1.00
C14    C     0.60149   0.87077   0.97261   0.00000  Uiso   1.00
C15    C     0.49731   0.90170   0.96024   0.00000  Uiso   1.00
C16    C     0.44507   0.92307   0.10876   0.00000  Uiso   1.00
C17    C     0.35074   0.95000   0.06853   0.00000  Uiso   1.00
C18    C     0.69413   0.88949   0.84281   0.00000  Uiso   1.00
C19    C     0.80739   0.90059   0.89259   0.00000  Uiso   1.00
C20    C     0.87875   0.91723   0.75352   0.00000  Uiso   1.00
C21    C     0.56190   0.82782   0.88487   0.00000  Uiso   1.00
C22    C     0.56400   0.78707   0.96999   0.00000  Uiso   1.00
C23    C     0.52406   0.75178   0.86630   0.00000  Uiso   1.00
H24    H     0.49528   0.88472   0.49521   0.00000  Uiso   1.00
H25    H     0.33114   0.93805   0.59649   0.00000  Uiso   1.00
H26    H     0.69340   0.91556   0.38036   0.00000  Uiso   1.00
H27    H     0.45005   0.80206   0.45776   0.00000  Uiso   1.00
H28    H     0.16706   0.99482   0.78914   0.00000  Uiso   1.00
H29    H     0.93092   0.94740   0.33341   0.00000  Uiso   1.00
H30    H     0.41776   0.70806   0.49659   0.00000  Uiso   1.00
H31    H     0.63306   0.86662   0.11449   0.00000  Uiso   1.00
H32    H     0.47647   0.91895   0.24977   0.00000  Uiso   1.00
H33    H     0.83874   0.89646   0.03363   0.00000  Uiso   1.00
H34    H     0.59538   0.78296   0.11102   0.00000  Uiso   1.00
H35    H     0.28502   0.97932   0.31937   0.00000  Uiso   1.00
H36    H     0.04889   0.93190   0.86362   0.00000  Uiso   1.00
H37    H     0.53572   0.69256   0.02681   0.00000  Uiso   1.00
O38    O     0.12057   0.02184   0.13206   0.00000  Uiso   1.00
O39    O     0.12273   0.95961   0.53414   0.00000  Uiso   1.00
O40    O     0.44947   0.64560   0.74824   0.00000  Uiso   1.00
N41    N     0.21630   0.98399   0.89537   0.00000  Uiso   1.00
N42    N     0.93046   0.93966   0.46929   0.00000  Uiso   1.00
N43    N     0.45073   0.71589   0.62184   0.00000  Uiso   1.00
N44    N     0.27977   0.97565   0.18068   0.00000  Uiso   1.00
N45    N     0.99393   0.93132   0.75460   0.00000  Uiso   1.00
N46    N     0.51420   0.70755   0.90715   0.00000  Uiso   1.00
C47    C     0.47316   0.11942   0.63709   0.00000  Uiso   1.00
C48    C     0.54324   0.09297   0.77800   0.00000  Uiso   1.00
C49    C     0.63752   0.06607   0.73755   0.00000  Uiso   1.00
C50    C     0.68988   0.04466   0.88596   0.00000  Uiso   1.00
C51    C     0.80483   0.00276   0.07702   0.00000  Uiso   1.00
C52    C     0.34642   0.10518   0.66058   0.00000  Uiso   1.00
C53    C     0.27520   0.08855   0.52138   0.00000  Uiso   1.00
C54    C     0.16187   0.07743   0.57095   0.00000  Uiso   1.00
C55    C     0.97122   0.05451   0.57967   0.00000  Uiso   1.00
C56    C     0.47865   0.16685   0.70263   0.00000  Uiso   1.00
C57    C     0.51859   0.20208   0.59878   0.00000  Uiso   1.00
C58    C     0.51656   0.24288   0.68374   0.00000  Uiso   1.00
C59    C     0.53122   0.31571   0.75775   0.00000  Uiso   1.00
C60    C     0.39851   0.12923   0.97261   0.00000  Uiso   1.00
C61    C     0.50269   0.09830   0.96024   0.00000  Uiso   1.00
C62    C     0.55493   0.07693   0.10876   0.00000  Uiso   1.00
C63    C     0.64926   0.05000   0.06853   0.00000  Uiso   1.00
C64    C     0.30587   0.11051   0.84281   0.00000  Uiso   1.00
C65    C     0.19261   0.09941   0.89259   0.00000  Uiso   1.00
C66    C     0.12125   0.08277   0.75352   0.00000  Uiso   1.00
C67    C     0.43810   0.17218   0.88487   0.00000  Uiso   1.00
C68    C     0.43600   0.21293   0.96999   0.00000  Uiso   1.00
C69    C     0.47594   0.24822   0.86630   0.00000  Uiso   1.00
H70    H     0.50472   0.11528   0.49521   0.00000  Uiso   1.00
H71    H     0.66886   0.06195   0.59649   0.00000  Uiso   1.00
H72    H     0.30660   0.08444   0.38036   0.00000  Uiso   1.00
H73    H     0.54995   0.19794   0.45776   0.00000  Uiso   1.00
H74    H     0.83294   0.00518   0.78914   0.00000  Uiso   1.00
H75    H     0.06908   0.05260   0.33341   0.00000  Uiso   1.00
H76    H     0.58224   0.29194   0.49659   0.00000  Uiso   1.00
H77    H     0.36694   0.13338   0.11449   0.00000  Uiso   1.00
H78    H     0.52353   0.08105   0.24977   0.00000  Uiso   1.00
H79    H     0.16126   0.10354   0.03363   0.00000  Uiso   1.00
H80    H     0.40462   0.21704   0.11102   0.00000  Uiso   1.00
H81    H     0.71498   0.02068   0.31937   0.00000  Uiso   1.00
H82    H     0.95111   0.06810   0.86362   0.00000  Uiso   1.00
H83    H     0.46428   0.30744   0.02681   0.00000  Uiso   1.00
O84    O     0.87943   0.97816   0.13206   0.00000  Uiso   1.00
O85    O     0.87727   0.04039   0.53414   0.00000  Uiso   1.00
O86    O     0.55053   0.35440   0.74824   0.00000  Uiso   1.00
N87    N     0.78370   0.01601   0.89537   0.00000  Uiso   1.00
N88    N     0.06954   0.06034   0.46929   0.00000  Uiso   1.00
N89    N     0.54927   0.28411   0.62184   0.00000  Uiso   1.00
N90    N     0.72023   0.02435   0.18068   0.00000  Uiso   1.00
N91    N     0.00607   0.06868   0.75460   0.00000  Uiso   1.00
N92    N     0.48580   0.29245   0.90715   0.00000  Uiso   1.00
C93    C     0.97316   0.38058   0.36291   0.00000  Uiso   1.00
C94    C     0.04324   0.40703   0.22200   0.00000  Uiso   1.00
C95    C     0.13752   0.43393   0.26245   0.00000  Uiso   1.00
C96    C     0.18988   0.45534   0.11404   0.00000  Uiso   1.00
C97    C     0.30483   0.49724   0.92298   0.00000  Uiso   1.00
C98    C     0.84642   0.39482   0.33942   0.00000  Uiso   1.00
C99    C     0.77520   0.41145   0.47862   0.00000  Uiso   1.00
C100   C     0.66187   0.42257   0.42905   0.00000  Uiso   1.00
C101   C     0.47122   0.44549   0.42033   0.00000  Uiso   1.00
C102   C     0.97865   0.33315   0.29737   0.00000  Uiso   1.00
C103   C     0.01859   0.29792   0.40122   0.00000  Uiso   1.00
C104   C     0.01656   0.25712   0.31626   0.00000  Uiso   1.00
C105   C     0.03122   0.18429   0.24225   0.00000  Uiso   1.00
C106   C     0.89851   0.37077   0.02739   0.00000  Uiso   1.00
C107   C     0.00269   0.40170   0.03976   0.00000  Uiso   1.00
C108   C     0.05493   0.42307   0.89124   0.00000  Uiso   1.00
C109   C     0.14926   0.45000   0.93147   0.00000  Uiso   1.00
C110   C     0.80587   0.38949   0.15719   0.00000  Uiso   1.00
C111   C     0.69261   0.40059   0.10741   0.00000  Uiso   1.00
C112   C     0.62125   0.41723   0.24648   0.00000  Uiso   1.00
C113   C     0.93810   0.32782   0.11513   0.00000  Uiso   1.00
C114   C     0.93600   0.28707   0.03001   0.00000  Uiso   1.00
C115   C     0.97594   0.25178   0.13370   0.00000  Uiso   1.00
H116   H     0.00472   0.38472   0.50479   0.00000  Uiso   1.00
H117   H     0.16886   0.43805   0.40351   0.00000  Uiso   1.00
H118   H     0.80660   0.41556   0.61964   0.00000  Uiso   1.00
H119   H     0.04995   0.30206   0.54224   0.00000  Uiso   1.00
H120   H     0.33294   0.49482   0.21086   0.00000  Uiso   1.00
H121   H     0.56908   0.44740   0.66659   0.00000  Uiso   1.00
H122   H     0.08224   0.20806   0.50341   0.00000  Uiso   1.00
H123   H     0.86694   0.36662   0.88551   0.00000  Uiso   1.00
H124   H     0.02353   0.41895   0.75023   0.00000  Uiso   1.00
H125   H     0.66126   0.39646   0.96637   0.00000  Uiso   1.00
H126   H     0.90462   0.28296   0.88898   0.00000  Uiso   1.00
H127   H     0.21498   0.47932   0.68063   0.00000  Uiso   1.00
H128   H     0.45111   0.43190   0.13638   0.00000  Uiso   1.00
H129   H     0.96428   0.19256   0.97319   0.00000  Uiso   1.00
O130   O     0.37943   0.52184   0.86794   0.00000  Uiso   1.00
O131   O     0.37727   0.45961   0.46586   0.00000  Uiso   1.00
O132   O     0.05053   0.14560   0.25176   0.00000  Uiso   1.00
N133   N     0.28370   0.48399   0.10463   0.00000  Uiso   1.00
N134   N     0.56954   0.43966   0.53071   0.00000  Uiso   1.00
N135   N     0.04927   0.21589   0.37816   0.00000  Uiso   1.00
N136   N     0.22023   0.47565   0.81932   0.00000  Uiso   1.00
N137   N     0.50607   0.43132   0.24540   0.00000  Uiso   1.00
N138   N     0.98580   0.20755   0.09285   0.00000  Uiso   1.00
C139   C     0.02684   0.61942   0.36291   0.00000  Uiso   1.00
C140   C     0.95676   0.59297   0.22200   0.00000  Uiso   1.00
C141   C     0.86248   0.56607   0.26245   0.00000  Uiso   1.00
C142   C     0.81012   0.54466   0.11404   0.00000  Uiso   1.00
C143   C     0.69517   0.50276   0.92298   0.00000  Uiso   1.00
C144   C     0.15358   0.60518   0.33942   0.00000  Uiso   1.00
C145   C     0.22480   0.58855   0.47862   0.00000  Uiso   1.00
C146   C     0.33813   0.57743   0.42905   0.00000  Uiso   1.00
C147   C     0.52878   0.55451   0.42033   0.00000  Uiso   1.00
C148   C     0.02135   0.66685   0.29737   0.00000  Uiso   1.00
C149   C     0.98141   0.70208   0.40122   0.00000  Uiso   1.00
C150   C     0.98344   0.74288   0.31626   0.00000  Uiso   1.00
C151   C     0.96878   0.81571   0.24225   0.00000  Uiso   1.00
C152   C     0.10149   0.62923   0.02739   0.00000  Uiso   1.00
C153   C     0.99731   0.59830   0.03976   0.00000  Uiso   1.00
C154   C     0.94507   0.57693   0.89124   0.00000  Uiso   1.00
C155   C     0.85074   0.55000   0.93147   0.00000  Uiso   1.00
C156   C     0.19413   0.61051   0.15719   0.00000  Uiso   1.00
C157   C     0.30739   0.59941   0.10741   0.00000  Uiso   1.00
C158   C     0.37875   0.58277   0.24648   0.00000  Uiso   1.00
C159   C     0.06190   0.67218   0.11513   0.00000  Uiso   1.00
C160   C     0.06400   0.71293   0.03001   0.00000  Uiso   1.00
C161   C     0.02406   0.74822   0.13370   0.00000  Uiso   1.00
H162   H     0.99528   0.61528   0.50479   0.00000  Uiso   1.00
H163   H     0.83114   0.56195   0.40351   0.00000  Uiso   1.00
H164   H     0.19340   0.58444   0.61964   0.00000  Uiso   1.00
H165   H     0.95005   0.69794   0.54224   0.00000  Uiso   1.00
H166   H     0.66706   0.50518   0.21086   0.00000  Uiso   1.00
H167   H     0.43092   0.55260   0.66659   0.00000  Uiso   1.00
H168   H     0.91776   0.79194   0.50341   0.00000  Uiso   1.00
H169   H     0.13306   0.63338   0.88551   0.00000  Uiso   1.00
H170   H     0.97647   0.58105   0.75023   0.00000  Uiso   1.00
H171   H     0.33874   0.60354   0.96637   0.00000  Uiso   1.00
H172   H     0.09538   0.71704   0.88898   0.00000  Uiso   1.00
H173   H     0.78502   0.52068   0.68063   0.00000  Uiso   1.00
H174   H     0.54889   0.56810   0.13638   0.00000  Uiso   1.00
H175   H     0.03572   0.80744   0.97319   0.00000  Uiso   1.00
O176   O     0.62057   0.47816   0.86794   0.00000  Uiso   1.00
O177   O     0.62273   0.54039   0.46586   0.00000  Uiso   1.00
O178   O     0.94947   0.85440   0.25176   0.00000  Uiso   1.00
N179   N     0.71630   0.51601   0.10463   0.00000  Uiso   1.00
N180   N     0.43046   0.56034   0.53071   0.00000  Uiso   1.00
N181   N     0.95073   0.78411   0.37816   0.00000  Uiso   1.00
N182   N     0.77977   0.52435   0.81932   0.00000  Uiso   1.00
N183   N     0.49393   0.56868   0.24540   0.00000  Uiso   1.00
N184   N     0.01420   0.79245   0.09285   0.00000  Uiso   1.00
