data_job_01611
_audit_creation_date              2018-12-19
_audit_creation_method            'Materials Studio'
_symmetry_space_group_name_H-M    'P1'
_symmetry_Int_Tables_number       1
_symmetry_cell_setting            triclinic
loop_
_symmetry_equiv_pos_as_xyz
  x,y,z
_cell_length_a                    12.3334
_cell_length_b                    13.5544
_cell_length_c                    19.7473
_cell_angle_alpha                 90.0000
_cell_angle_beta                  131.3720
_cell_angle_gamma                 90.0000
loop_
_atom_site_label
_atom_site_type_symbol
_atom_site_fract_x
_atom_site_fract_y
_atom_site_fract_z
_atom_site_U_iso_or_equiv
_atom_site_adp_type
_atom_site_occupancy
C1     C     0.53552   0.06863   0.76914   0.00000  Uiso   1.00
C2     C     0.43940   0.11243   0.78451   0.00000  Uiso   1.00
C3     C     0.45123   0.09423   0.85832   0.00000  Uiso   1.00
C4     C     0.35292   0.14140   0.85984   0.00000  Uiso   1.00
C5     C     0.21979   0.19977   0.89431   0.00000  Uiso   1.00
C6     C     0.43410   0.01694   0.67783   0.00000  Uiso   1.00
C7     C     0.44149   0.91846   0.66195   0.00000  Uiso   1.00
C8     C     0.33873   0.88526   0.57365   0.00000  Uiso   1.00
C9     C     0.19744   0.79540   0.44248   0.00000  Uiso   1.00
C10    C     0.59900   0.15610   0.75697   0.00000  Uiso   1.00
C11    C     0.74503   0.17463   0.80761   0.00000  Uiso   1.00
C12    C     0.78111   0.25858   0.78594   0.00000  Uiso   1.00
C13    C     0.89584   0.38479   0.77765   0.00000  Uiso   1.00
C14    C     0.33991   0.18477   0.64057   0.00000  Uiso   1.00
C15    C     0.33315   0.17551   0.71467   0.00000  Uiso   1.00
C16    C     0.23481   0.22272   0.71608   0.00000  Uiso   1.00
C17    C     0.24649   0.20460   0.78988   0.00000  Uiso   1.00
C18    C     0.32786   0.08002   0.60799   0.00000  Uiso   1.00
C19    C     0.22507   0.04696   0.51970   0.00000  Uiso   1.00
C20    C     0.23229   0.94845   0.50369   0.00000  Uiso   1.00
C21    C     0.49275   0.21919   0.68713   0.00000  Uiso   1.00
C22    C     0.52861   0.30312   0.66537   0.00000  Uiso   1.00
C23    C     0.67467   0.32177   0.71597   0.00000  Uiso   1.00
H24    H     0.61823   0.01952   0.82350   0.00000  Uiso   1.00
H25    H     0.53346   0.04540   0.91235   0.00000  Uiso   1.00
H26    H     0.52373   0.86967   0.71600   0.00000  Uiso   1.00
H27    H     0.82722   0.12579   0.86165   0.00000  Uiso   1.00
H28    H     0.39258   0.10189   0.98004   0.00000  Uiso   1.00
H29    H     0.37209   0.73135   0.56603   0.00000  Uiso   1.00
H30    H     0.01207   0.27144   0.87315   0.00000  Uiso   1.00
H31    H     0.25719   0.23388   0.58619   0.00000  Uiso   1.00
H32    H     0.15260   0.27154   0.66202   0.00000  Uiso   1.00
H33    H     0.14287   0.09580   0.46567   0.00000  Uiso   1.00
H34    H     0.44636   0.35192   0.61132   0.00000  Uiso   1.00
H35    H     0.08346   0.28542   0.77686   0.00000  Uiso   1.00
H36    H     0.06298   0.91488   0.36285   0.00000  Uiso   1.00
H37    H     0.70295   0.45498   0.66997   0.00000  Uiso   1.00
O38    O     0.17570   0.21453   0.93260   0.00000  Uiso   1.00
O39    O     0.14885   0.72840   0.38943   0.00000  Uiso   1.00
O40    O     0.98848   0.43700   0.79237   0.00000  Uiso   1.00
N41    N     0.33420   0.13993   0.92183   0.00000  Uiso   1.00
N42    N     0.31503   0.79350   0.53475   0.00000  Uiso   1.00
N43    N     0.91336   0.29842   0.82187   0.00000  Uiso   1.00
N44    N     0.16786   0.23869   0.81250   0.00000  Uiso   1.00
N45    N     0.14870   0.89226   0.42542   0.00000  Uiso   1.00
N46    N     0.74702   0.39719   0.71254   0.00000  Uiso   1.00
C47    C     0.46448   0.56863   0.73086   0.00000  Uiso   1.00
C48    C     0.56060   0.61243   0.71549   0.00000  Uiso   1.00
C49    C     0.54877   0.59423   0.64168   0.00000  Uiso   1.00
C50    C     0.64708   0.64140   0.64016   0.00000  Uiso   1.00
C51    C     0.78021   0.69977   0.60569   0.00000  Uiso   1.00
C52    C     0.56590   0.51694   0.82217   0.00000  Uiso   1.00
C53    C     0.55851   0.41846   0.83805   0.00000  Uiso   1.00
C54    C     0.66127   0.38526   0.92635   0.00000  Uiso   1.00
C55    C     0.80256   0.29540   0.05752   0.00000  Uiso   1.00
C56    C     0.40100   0.65610   0.74303   0.00000  Uiso   1.00
C57    C     0.25497   0.67463   0.69239   0.00000  Uiso   1.00
C58    C     0.21889   0.75858   0.71406   0.00000  Uiso   1.00
C59    C     0.10416   0.88479   0.72235   0.00000  Uiso   1.00
C60    C     0.66009   0.68477   0.85943   0.00000  Uiso   1.00
C61    C     0.66685   0.67551   0.78533   0.00000  Uiso   1.00
C62    C     0.76519   0.72272   0.78392   0.00000  Uiso   1.00
C63    C     0.75351   0.70460   0.71012   0.00000  Uiso   1.00
C64    C     0.67214   0.58002   0.89201   0.00000  Uiso   1.00
C65    C     0.77493   0.54696   0.98030   0.00000  Uiso   1.00
C66    C     0.76771   0.44845   0.99631   0.00000  Uiso   1.00
C67    C     0.50725   0.71919   0.81287   0.00000  Uiso   1.00
C68    C     0.47139   0.80312   0.83463   0.00000  Uiso   1.00
C69    C     0.32533   0.82177   0.78403   0.00000  Uiso   1.00
H70    H     0.38177   0.51952   0.67650   0.00000  Uiso   1.00
H71    H     0.46654   0.54540   0.58765   0.00000  Uiso   1.00
H72    H     0.47627   0.36967   0.78400   0.00000  Uiso   1.00
H73    H     0.17278   0.62579   0.63835   0.00000  Uiso   1.00
H74    H     0.60742   0.60189   0.51996   0.00000  Uiso   1.00
H75    H     0.62791   0.23135   0.93397   0.00000  Uiso   1.00
H76    H     0.98793   0.77144   0.62685   0.00000  Uiso   1.00
H77    H     0.74281   0.73388   0.91381   0.00000  Uiso   1.00
H78    H     0.84740   0.77154   0.83798   0.00000  Uiso   1.00
H79    H     0.85713   0.59580   0.03433   0.00000  Uiso   1.00
H80    H     0.55364   0.85192   0.88868   0.00000  Uiso   1.00
H81    H     0.91654   0.78542   0.72314   0.00000  Uiso   1.00
H82    H     0.93702   0.41488   0.13715   0.00000  Uiso   1.00
H83    H     0.29705   0.95498   0.83003   0.00000  Uiso   1.00
O84    O     0.82430   0.71453   0.56740   0.00000  Uiso   1.00
O85    O     0.85115   0.22840   0.11057   0.00000  Uiso   1.00
O86    O     0.01152   0.93700   0.70763   0.00000  Uiso   1.00
N87    N     0.66580   0.63993   0.57817   0.00000  Uiso   1.00
N88    N     0.68497   0.29350   0.96525   0.00000  Uiso   1.00
N89    N     0.08664   0.79842   0.67813   0.00000  Uiso   1.00
N90    N     0.83214   0.73869   0.68750   0.00000  Uiso   1.00
N91    N     0.85130   0.39226   0.07458   0.00000  Uiso   1.00
N92    N     0.25298   0.89719   0.78746   0.00000  Uiso   1.00
C93    C     0.46448   0.93137   0.23086   0.00000  Uiso   1.00
C94    C     0.56060   0.88757   0.21549   0.00000  Uiso   1.00
C95    C     0.54877   0.90577   0.14168   0.00000  Uiso   1.00
C96    C     0.64708   0.85860   0.14016   0.00000  Uiso   1.00
C97    C     0.78021   0.80023   0.10569   0.00000  Uiso   1.00
C98    C     0.56590   0.98306   0.32217   0.00000  Uiso   1.00
C99    C     0.55851   0.08154   0.33805   0.00000  Uiso   1.00
C100   C     0.66127   0.11474   0.42635   0.00000  Uiso   1.00
C101   C     0.80256   0.20460   0.55752   0.00000  Uiso   1.00
C102   C     0.40100   0.84390   0.24303   0.00000  Uiso   1.00
C103   C     0.25497   0.82537   0.19239   0.00000  Uiso   1.00
C104   C     0.21889   0.74142   0.21406   0.00000  Uiso   1.00
C105   C     0.10416   0.61521   0.22235   0.00000  Uiso   1.00
C106   C     0.66009   0.81523   0.35943   0.00000  Uiso   1.00
C107   C     0.66685   0.82449   0.28533   0.00000  Uiso   1.00
C108   C     0.76519   0.77728   0.28392   0.00000  Uiso   1.00
C109   C     0.75351   0.79540   0.21012   0.00000  Uiso   1.00
C110   C     0.67214   0.91998   0.39201   0.00000  Uiso   1.00
C111   C     0.77493   0.95304   0.48030   0.00000  Uiso   1.00
C112   C     0.76771   0.05155   0.49631   0.00000  Uiso   1.00
C113   C     0.50725   0.78081   0.31287   0.00000  Uiso   1.00
C114   C     0.47139   0.69688   0.33463   0.00000  Uiso   1.00
C115   C     0.32533   0.67823   0.28403   0.00000  Uiso   1.00
H116   H     0.38177   0.98048   0.17650   0.00000  Uiso   1.00
H117   H     0.46654   0.95460   0.08765   0.00000  Uiso   1.00
H118   H     0.47627   0.13033   0.28400   0.00000  Uiso   1.00
H119   H     0.17278   0.87421   0.13835   0.00000  Uiso   1.00
H120   H     0.60742   0.89811   0.01996   0.00000  Uiso   1.00
H121   H     0.62791   0.26865   0.43397   0.00000  Uiso   1.00
H122   H     0.98793   0.72856   0.12685   0.00000  Uiso   1.00
H123   H     0.74281   0.76612   0.41381   0.00000  Uiso   1.00
H124   H     0.84740   0.72846   0.33798   0.00000  Uiso   1.00
H125   H     0.85713   0.90420   0.53433   0.00000  Uiso   1.00
H126   H     0.55364   0.64808   0.38868   0.00000  Uiso   1.00
H127   H     0.91654   0.71458   0.22314   0.00000  Uiso   1.00
H128   H     0.93702   0.08512   0.63715   0.00000  Uiso   1.00
H129   H     0.29705   0.54502   0.33003   0.00000  Uiso   1.00
O130   O     0.82430   0.78547   0.06740   0.00000  Uiso   1.00
O131   O     0.85115   0.27160   0.61057   0.00000  Uiso   1.00
O132   O     0.01152   0.56300   0.20763   0.00000  Uiso   1.00
N133   N     0.66580   0.86007   0.07817   0.00000  Uiso   1.00
N134   N     0.68497   0.20650   0.46525   0.00000  Uiso   1.00
N135   N     0.08664   0.70158   0.17813   0.00000  Uiso   1.00
N136   N     0.83214   0.76131   0.18750   0.00000  Uiso   1.00
N137   N     0.85130   0.10774   0.57458   0.00000  Uiso   1.00
N138   N     0.25298   0.60281   0.28746   0.00000  Uiso   1.00
C139   C     0.53552   0.43137   0.26914   0.00000  Uiso   1.00
C140   C     0.43940   0.38757   0.28451   0.00000  Uiso   1.00
C141   C     0.45123   0.40577   0.35832   0.00000  Uiso   1.00
C142   C     0.35292   0.35860   0.35984   0.00000  Uiso   1.00
C143   C     0.21979   0.30023   0.39431   0.00000  Uiso   1.00
C144   C     0.43410   0.48306   0.17783   0.00000  Uiso   1.00
C145   C     0.44149   0.58154   0.16195   0.00000  Uiso   1.00
C146   C     0.33873   0.61474   0.07365   0.00000  Uiso   1.00
C147   C     0.19744   0.70460   0.94248   0.00000  Uiso   1.00
C148   C     0.59900   0.34390   0.25697   0.00000  Uiso   1.00
C149   C     0.74503   0.32537   0.30761   0.00000  Uiso   1.00
C150   C     0.78111   0.24142   0.28594   0.00000  Uiso   1.00
C151   C     0.89584   0.11521   0.27765   0.00000  Uiso   1.00
C152   C     0.33991   0.31523   0.14057   0.00000  Uiso   1.00
C153   C     0.33315   0.32449   0.21467   0.00000  Uiso   1.00
C154   C     0.23481   0.27728   0.21608   0.00000  Uiso   1.00
C155   C     0.24649   0.29540   0.28988   0.00000  Uiso   1.00
C156   C     0.32786   0.41998   0.10799   0.00000  Uiso   1.00
C157   C     0.22507   0.45304   0.01970   0.00000  Uiso   1.00
C158   C     0.23229   0.55155   0.00369   0.00000  Uiso   1.00
C159   C     0.49275   0.28081   0.18713   0.00000  Uiso   1.00
C160   C     0.52861   0.19688   0.16537   0.00000  Uiso   1.00
C161   C     0.67467   0.17823   0.21597   0.00000  Uiso   1.00
H162   H     0.61823   0.48048   0.32350   0.00000  Uiso   1.00
H163   H     0.53346   0.45460   0.41235   0.00000  Uiso   1.00
H164   H     0.52373   0.63033   0.21600   0.00000  Uiso   1.00
H165   H     0.82722   0.37421   0.36165   0.00000  Uiso   1.00
H166   H     0.39258   0.39811   0.48004   0.00000  Uiso   1.00
H167   H     0.37209   0.76865   0.06603   0.00000  Uiso   1.00
H168   H     0.01207   0.22856   0.37315   0.00000  Uiso   1.00
H169   H     0.25719   0.26612   0.08619   0.00000  Uiso   1.00
H170   H     0.15260   0.22846   0.16202   0.00000  Uiso   1.00
H171   H     0.14287   0.40420   0.96567   0.00000  Uiso   1.00
H172   H     0.44636   0.14808   0.11132   0.00000  Uiso   1.00
H173   H     0.08346   0.21458   0.27686   0.00000  Uiso   1.00
H174   H     0.06298   0.58512   0.86285   0.00000  Uiso   1.00
H175   H     0.70295   0.04502   0.16997   0.00000  Uiso   1.00
O176   O     0.17570   0.28547   0.43260   0.00000  Uiso   1.00
O177   O     0.14885   0.77160   0.88943   0.00000  Uiso   1.00
O178   O     0.98848   0.06300   0.29237   0.00000  Uiso   1.00
N179   N     0.33420   0.36007   0.42183   0.00000  Uiso   1.00
N180   N     0.31503   0.70650   0.03475   0.00000  Uiso   1.00
N181   N     0.91336   0.20158   0.32187   0.00000  Uiso   1.00
N182   N     0.16786   0.26131   0.31250   0.00000  Uiso   1.00
N183   N     0.14870   0.60774   0.92542   0.00000  Uiso   1.00
N184   N     0.74702   0.10281   0.21254   0.00000  Uiso   1.00
