data_job_03385
_audit_creation_date              2018-12-19
_audit_creation_method            'Materials Studio'
_symmetry_space_group_name_H-M    'P1'
_symmetry_Int_Tables_number       1
_symmetry_cell_setting            triclinic
loop_
_symmetry_equiv_pos_as_xyz
  x,y,z
_cell_length_a                    20.1971
_cell_length_b                    19.9071
_cell_length_c                    12.5866
_cell_angle_alpha                 90.0000
_cell_angle_beta                  144.8150
_cell_angle_gamma                 90.0000
loop_
_atom_site_label
_atom_site_type_symbol
_atom_site_fract_x
_atom_site_fract_y
_atom_site_fract_z
_atom_site_U_iso_or_equiv
_atom_site_adp_type
_atom_site_occupancy
C1     C     0.37881   0.83618   0.38573   0.00000  Uiso   1.00
C2     C     0.39673   0.86705   0.29960   0.00000  Uiso   1.00
C3     C     0.35168   0.92774   0.20580   0.00000  Uiso   1.00
C4     C     0.37803   0.94721   0.13726   0.00000  Uiso   1.00
C5     C     0.39533   0.00117   0.99972   0.00000  Uiso   1.00
C6     C     0.32807   0.76660   0.30007   0.00000  Uiso   1.00
C7     C     0.22529   0.74284   0.20670   0.00000  Uiso   1.00
C8     C     0.19384   0.67775   0.13858   0.00000  Uiso   1.00
C9     C     0.10457   0.57575   0.00189   0.00000  Uiso   1.00
C10    C     0.49858   0.82462   0.58840   0.00000  Uiso   1.00
C11    C     0.53917   0.84963   0.73747   0.00000  Uiso   1.00
C12    C     0.65127   0.83336   0.91211   0.00000  Uiso   1.00
C13    C     0.82676   0.82145   0.22310   0.00000  Uiso   1.00
C14    C     0.50571   0.76281   0.43082   0.00000  Uiso   1.00
C15    C     0.46566   0.82719   0.32409   0.00000  Uiso   1.00
C16    C     0.49209   0.84656   0.25568   0.00000  Uiso   1.00
C17    C     0.44708   0.90728   0.16180   0.00000  Uiso   1.00
C18    C     0.39699   0.72674   0.32456   0.00000  Uiso   1.00
C19    C     0.36569   0.66166   0.25658   0.00000  Uiso   1.00
C20    C     0.26289   0.63782   0.16311   0.00000  Uiso   1.00
C21    C     0.56751   0.78476   0.61290   0.00000  Uiso   1.00
C22    C     0.67957   0.76845   0.78734   0.00000  Uiso   1.00
C23    C     0.72033   0.79343   0.93664   0.00000  Uiso   1.00
H24    H     0.32514   0.86721   0.36666   0.00000  Uiso   1.00
H25    H     0.29833   0.95857   0.18686   0.00000  Uiso   1.00
H26    H     0.17197   0.77370   0.18778   0.00000  Uiso   1.00
H27    H     0.48580   0.88047   0.71846   0.00000  Uiso   1.00
H28    H     0.29898   0.04228   0.99827   0.00000  Uiso   1.00
H29    H     0.03254   0.65245   0.00025   0.00000  Uiso   1.00
H30    H     0.69433   0.87760   0.11931   0.00000  Uiso   1.00
H31    H     0.55938   0.73177   0.44988   0.00000  Uiso   1.00
H32    H     0.54543   0.81571   0.27465   0.00000  Uiso   1.00
H33    H     0.41906   0.63083   0.27556   0.00000  Uiso   1.00
H34    H     0.73289   0.73761   0.80624   0.00000  Uiso   1.00
H35    H     0.49952   0.92632   0.06951   0.00000  Uiso   1.00
H36    H     0.23309   0.53650   0.07150   0.00000  Uiso   1.00
H37    H     0.89487   0.76164   0.19055   0.00000  Uiso   1.00
O38    O     0.38582   0.04195   0.91706   0.00000  Uiso   1.00
O39    O     0.03628   0.53051   0.91970   0.00000  Uiso   1.00
O40    O     0.90452   0.82590   0.38786   0.00000  Uiso   1.00
N41    N     0.34811   0.00347   0.03911   0.00000  Uiso   1.00
N42    N     0.09900   0.63901   0.04095   0.00000  Uiso   1.00
N43    N     0.71770   0.84949   0.08716   0.00000  Uiso   1.00
N44    N     0.45602   0.94108   0.07745   0.00000  Uiso   1.00
N45    N     0.20691   0.57662   0.07928   0.00000  Uiso   1.00
N46    N     0.82561   0.78710   0.12550   0.00000  Uiso   1.00
C47    C     0.62119   0.33618   0.11427   0.00000  Uiso   1.00
C48    C     0.60327   0.36705   0.20040   0.00000  Uiso   1.00
C49    C     0.64832   0.42774   0.29420   0.00000  Uiso   1.00
C50    C     0.62197   0.44721   0.36274   0.00000  Uiso   1.00
C51    C     0.60467   0.50117   0.50028   0.00000  Uiso   1.00
C52    C     0.67193   0.26660   0.19993   0.00000  Uiso   1.00
C53    C     0.77471   0.24284   0.29330   0.00000  Uiso   1.00
C54    C     0.80616   0.17775   0.36142   0.00000  Uiso   1.00
C55    C     0.89543   0.07575   0.49811   0.00000  Uiso   1.00
C56    C     0.50142   0.32462   0.91160   0.00000  Uiso   1.00
C57    C     0.46083   0.34963   0.76253   0.00000  Uiso   1.00
C58    C     0.34873   0.33336   0.58789   0.00000  Uiso   1.00
C59    C     0.17324   0.32145   0.27690   0.00000  Uiso   1.00
C60    C     0.49429   0.26281   0.06918   0.00000  Uiso   1.00
C61    C     0.53434   0.32719   0.17591   0.00000  Uiso   1.00
C62    C     0.50791   0.34656   0.24432   0.00000  Uiso   1.00
C63    C     0.55292   0.40728   0.33820   0.00000  Uiso   1.00
C64    C     0.60301   0.22674   0.17544   0.00000  Uiso   1.00
C65    C     0.63431   0.16166   0.24342   0.00000  Uiso   1.00
C66    C     0.73711   0.13782   0.33689   0.00000  Uiso   1.00
C67    C     0.43249   0.28476   0.88710   0.00000  Uiso   1.00
C68    C     0.32043   0.26845   0.71266   0.00000  Uiso   1.00
C69    C     0.27967   0.29343   0.56336   0.00000  Uiso   1.00
H70    H     0.67486   0.36721   0.13334   0.00000  Uiso   1.00
H71    H     0.70167   0.45857   0.31314   0.00000  Uiso   1.00
H72    H     0.82803   0.27370   0.31222   0.00000  Uiso   1.00
H73    H     0.51420   0.38047   0.78154   0.00000  Uiso   1.00
H74    H     0.70102   0.54228   0.50173   0.00000  Uiso   1.00
H75    H     0.96746   0.15245   0.49975   0.00000  Uiso   1.00
H76    H     0.30567   0.37760   0.38069   0.00000  Uiso   1.00
H77    H     0.44062   0.23177   0.05012   0.00000  Uiso   1.00
H78    H     0.45457   0.31571   0.22535   0.00000  Uiso   1.00
H79    H     0.58094   0.13083   0.22444   0.00000  Uiso   1.00
H80    H     0.26711   0.23761   0.69376   0.00000  Uiso   1.00
H81    H     0.50048   0.42632   0.43049   0.00000  Uiso   1.00
H82    H     0.76691   0.03650   0.42850   0.00000  Uiso   1.00
H83    H     0.10513   0.26164   0.30945   0.00000  Uiso   1.00
O84    O     0.61418   0.54195   0.58294   0.00000  Uiso   1.00
O85    O     0.96372   0.03051   0.58030   0.00000  Uiso   1.00
O86    O     0.09548   0.32590   0.11214   0.00000  Uiso   1.00
N87    N     0.65189   0.50347   0.46089   0.00000  Uiso   1.00
N88    N     0.90100   0.13901   0.45905   0.00000  Uiso   1.00
N89    N     0.28230   0.34949   0.41284   0.00000  Uiso   1.00
N90    N     0.54398   0.44108   0.42255   0.00000  Uiso   1.00
N91    N     0.79309   0.07662   0.42072   0.00000  Uiso   1.00
N92    N     0.17439   0.28710   0.37450   0.00000  Uiso   1.00
C93    C     0.62119   0.16382   0.61427   0.00000  Uiso   1.00
C94    C     0.60327   0.13295   0.70040   0.00000  Uiso   1.00
C95    C     0.64832   0.07226   0.79420   0.00000  Uiso   1.00
C96    C     0.62197   0.05279   0.86274   0.00000  Uiso   1.00
C97    C     0.60467   0.99883   0.00028   0.00000  Uiso   1.00
C98    C     0.67193   0.23340   0.69993   0.00000  Uiso   1.00
C99    C     0.77471   0.25716   0.79330   0.00000  Uiso   1.00
C100   C     0.80616   0.32225   0.86142   0.00000  Uiso   1.00
C101   C     0.89543   0.42425   0.99811   0.00000  Uiso   1.00
C102   C     0.50142   0.17538   0.41160   0.00000  Uiso   1.00
C103   C     0.46083   0.15037   0.26253   0.00000  Uiso   1.00
C104   C     0.34873   0.16664   0.08789   0.00000  Uiso   1.00
C105   C     0.17324   0.17855   0.77690   0.00000  Uiso   1.00
C106   C     0.49429   0.23719   0.56918   0.00000  Uiso   1.00
C107   C     0.53434   0.17281   0.67591   0.00000  Uiso   1.00
C108   C     0.50791   0.15344   0.74432   0.00000  Uiso   1.00
C109   C     0.55292   0.09272   0.83820   0.00000  Uiso   1.00
C110   C     0.60301   0.27326   0.67544   0.00000  Uiso   1.00
C111   C     0.63431   0.33834   0.74342   0.00000  Uiso   1.00
C112   C     0.73711   0.36218   0.83689   0.00000  Uiso   1.00
C113   C     0.43249   0.21524   0.38710   0.00000  Uiso   1.00
C114   C     0.32043   0.23155   0.21266   0.00000  Uiso   1.00
C115   C     0.27967   0.20657   0.06336   0.00000  Uiso   1.00
H116   H     0.67486   0.13279   0.63334   0.00000  Uiso   1.00
H117   H     0.70167   0.04143   0.81314   0.00000  Uiso   1.00
H118   H     0.82803   0.22630   0.81222   0.00000  Uiso   1.00
H119   H     0.51420   0.11953   0.28154   0.00000  Uiso   1.00
H120   H     0.70102   0.95772   0.00173   0.00000  Uiso   1.00
H121   H     0.96746   0.34755   0.99975   0.00000  Uiso   1.00
H122   H     0.30567   0.12240   0.88069   0.00000  Uiso   1.00
H123   H     0.44062   0.26823   0.55012   0.00000  Uiso   1.00
H124   H     0.45457   0.18429   0.72535   0.00000  Uiso   1.00
H125   H     0.58094   0.36917   0.72444   0.00000  Uiso   1.00
H126   H     0.26711   0.26239   0.19376   0.00000  Uiso   1.00
H127   H     0.50048   0.07368   0.93049   0.00000  Uiso   1.00
H128   H     0.76691   0.46350   0.92850   0.00000  Uiso   1.00
H129   H     0.10513   0.23836   0.80945   0.00000  Uiso   1.00
O130   O     0.61418   0.95805   0.08294   0.00000  Uiso   1.00
O131   O     0.96372   0.46949   0.08030   0.00000  Uiso   1.00
O132   O     0.09548   0.17410   0.61214   0.00000  Uiso   1.00
N133   N     0.65189   0.99653   0.96089   0.00000  Uiso   1.00
N134   N     0.90100   0.36099   0.95905   0.00000  Uiso   1.00
N135   N     0.28230   0.15051   0.91284   0.00000  Uiso   1.00
N136   N     0.54398   0.05892   0.92255   0.00000  Uiso   1.00
N137   N     0.79309   0.42338   0.92072   0.00000  Uiso   1.00
N138   N     0.17439   0.21290   0.87450   0.00000  Uiso   1.00
C139   C     0.37881   0.66382   0.88573   0.00000  Uiso   1.00
C140   C     0.39673   0.63295   0.79960   0.00000  Uiso   1.00
C141   C     0.35168   0.57226   0.70580   0.00000  Uiso   1.00
C142   C     0.37803   0.55279   0.63726   0.00000  Uiso   1.00
C143   C     0.39533   0.49883   0.49972   0.00000  Uiso   1.00
C144   C     0.32807   0.73340   0.80007   0.00000  Uiso   1.00
C145   C     0.22529   0.75716   0.70670   0.00000  Uiso   1.00
C146   C     0.19384   0.82225   0.63858   0.00000  Uiso   1.00
C147   C     0.10457   0.92425   0.50189   0.00000  Uiso   1.00
C148   C     0.49858   0.67538   0.08840   0.00000  Uiso   1.00
C149   C     0.53917   0.65037   0.23747   0.00000  Uiso   1.00
C150   C     0.65127   0.66664   0.41211   0.00000  Uiso   1.00
C151   C     0.82676   0.67855   0.72310   0.00000  Uiso   1.00
C152   C     0.50571   0.73719   0.93082   0.00000  Uiso   1.00
C153   C     0.46566   0.67281   0.82409   0.00000  Uiso   1.00
C154   C     0.49209   0.65344   0.75568   0.00000  Uiso   1.00
C155   C     0.44708   0.59272   0.66180   0.00000  Uiso   1.00
C156   C     0.39699   0.77326   0.82456   0.00000  Uiso   1.00
C157   C     0.36569   0.83834   0.75658   0.00000  Uiso   1.00
C158   C     0.26289   0.86218   0.66311   0.00000  Uiso   1.00
C159   C     0.56751   0.71524   0.11290   0.00000  Uiso   1.00
C160   C     0.67957   0.73155   0.28734   0.00000  Uiso   1.00
C161   C     0.72033   0.70657   0.43664   0.00000  Uiso   1.00
H162   H     0.32514   0.63279   0.86666   0.00000  Uiso   1.00
H163   H     0.29833   0.54143   0.68686   0.00000  Uiso   1.00
H164   H     0.17197   0.72630   0.68778   0.00000  Uiso   1.00
H165   H     0.48580   0.61953   0.21846   0.00000  Uiso   1.00
H166   H     0.29898   0.45772   0.49827   0.00000  Uiso   1.00
H167   H     0.03254   0.84755   0.50025   0.00000  Uiso   1.00
H168   H     0.69433   0.62240   0.61931   0.00000  Uiso   1.00
H169   H     0.55938   0.76823   0.94988   0.00000  Uiso   1.00
H170   H     0.54543   0.68429   0.77465   0.00000  Uiso   1.00
H171   H     0.41906   0.86917   0.77556   0.00000  Uiso   1.00
H172   H     0.73289   0.76239   0.30624   0.00000  Uiso   1.00
H173   H     0.49952   0.57368   0.56951   0.00000  Uiso   1.00
H174   H     0.23309   0.96350   0.57150   0.00000  Uiso   1.00
H175   H     0.89487   0.73836   0.69055   0.00000  Uiso   1.00
O176   O     0.38582   0.45805   0.41706   0.00000  Uiso   1.00
O177   O     0.03628   0.96949   0.41970   0.00000  Uiso   1.00
O178   O     0.90452   0.67410   0.88786   0.00000  Uiso   1.00
N179   N     0.34811   0.49653   0.53911   0.00000  Uiso   1.00
N180   N     0.09900   0.86099   0.54095   0.00000  Uiso   1.00
N181   N     0.71770   0.65051   0.58716   0.00000  Uiso   1.00
N182   N     0.45602   0.55892   0.57745   0.00000  Uiso   1.00
N183   N     0.20691   0.92338   0.57928   0.00000  Uiso   1.00
N184   N     0.82561   0.71290   0.62550   0.00000  Uiso   1.00
