data_job_03211
_audit_creation_date              2018-12-19
_audit_creation_method            'Materials Studio'
_symmetry_space_group_name_H-M    'P1'
_symmetry_Int_Tables_number       1
_symmetry_cell_setting            triclinic
loop_
_symmetry_equiv_pos_as_xyz
  x,y,z
_cell_length_a                    13.8286
_cell_length_b                    17.5801
_cell_length_c                    10.0075
_cell_angle_alpha                 90.0000
_cell_angle_beta                  90.0000
_cell_angle_gamma                 90.0000
loop_
_atom_site_label
_atom_site_type_symbol
_atom_site_fract_x
_atom_site_fract_y
_atom_site_fract_z
_atom_site_U_iso_or_equiv
_atom_site_adp_type
_atom_site_occupancy
C1     C     0.78816   0.74090   0.50265   0.00000  Uiso   1.00
C2     C     0.74202   0.67051   0.56478   0.00000  Uiso   1.00
C3     C     0.76588   0.59566   0.53555   0.00000  Uiso   1.00
C4     C     0.71527   0.53933   0.60311   0.00000  Uiso   1.00
C5     C     0.65452   0.42729   0.68533   0.00000  Uiso   1.00
C6     C     0.70538   0.78667   0.44206   0.00000  Uiso   1.00
C7     C     0.69846   0.80950   0.30965   0.00000  Uiso   1.00
C8     C     0.61701   0.85097   0.27392   0.00000  Uiso   1.00
C9     C     0.49942   0.91932   0.16563   0.00000  Uiso   1.00
C10    C     0.82640   0.78819   0.61895   0.00000  Uiso   1.00
C11    C     0.92123   0.81231   0.63525   0.00000  Uiso   1.00
C12    C     0.94168   0.85507   0.74843   0.00000  Uiso   1.00
C13    C     0.01199   0.92578   0.91478   0.00000  Uiso   1.00
C14    C     0.65585   0.77396   0.67462   0.00000  Uiso   1.00
C15    C     0.67015   0.68847   0.65819   0.00000  Uiso   1.00
C16    C     0.61949   0.63223   0.72582   0.00000  Uiso   1.00
C17    C     0.64328   0.55732   0.69669   0.00000  Uiso   1.00
C18    C     0.63352   0.80463   0.53546   0.00000  Uiso   1.00
C19    C     0.55207   0.84608   0.49992   0.00000  Uiso   1.00
C20    C     0.54502   0.86896   0.36749   0.00000  Uiso   1.00
C21    C     0.75454   0.80614   0.71236   0.00000  Uiso   1.00
C22    C     0.77484   0.84888   0.82552   0.00000  Uiso   1.00
C23    C     0.86968   0.87306   0.84200   0.00000  Uiso   1.00
H24    H     0.84411   0.72693   0.42992   0.00000  Uiso   1.00
H25    H     0.82150   0.58179   0.46324   0.00000  Uiso   1.00
H26    H     0.75409   0.79560   0.23739   0.00000  Uiso   1.00
H27    H     0.97683   0.79841   0.56295   0.00000  Uiso   1.00
H28    H     0.76471   0.42879   0.54135   0.00000  Uiso   1.00
H29    H     0.62259   0.87965   0.06513   0.00000  Uiso   1.00
H30    H     0.09228   0.88557   0.75162   0.00000  Uiso   1.00
H31    H     0.59989   0.78794   0.74735   0.00000  Uiso   1.00
H32    H     0.56388   0.64615   0.79810   0.00000  Uiso   1.00
H33    H     0.49647   0.85996   0.57223   0.00000  Uiso   1.00
H34    H     0.71921   0.86277   0.89779   0.00000  Uiso   1.00
H35    H     0.55561   0.48103   0.81312   0.00000  Uiso   1.00
H36    H     0.41350   0.93189   0.33690   0.00000  Uiso   1.00
H37    H     0.88318   0.93781   0.02339   0.00000  Uiso   1.00
O38    O     0.64085   0.36053   0.70486   0.00000  Uiso   1.00
O39    O     0.45441   0.95206   0.08009   0.00000  Uiso   1.00
O40    O     0.07063   0.95982   0.98074   0.00000  Uiso   1.00
N41    N     0.72045   0.46054   0.59837   0.00000  Uiso   1.00
N42    N     0.58757   0.88206   0.15313   0.00000  Uiso   1.00
N43    N     0.02669   0.88761   0.79492   0.00000  Uiso   1.00
N44    N     0.60794   0.48865   0.74460   0.00000  Uiso   1.00
N45    N     0.47506   0.91017   0.29936   0.00000  Uiso   1.00
N46    N     0.91417   0.91572   0.94116   0.00000  Uiso   1.00
C47    C     0.71184   0.25910   0.00265   0.00000  Uiso   1.00
C48    C     0.75798   0.32949   0.06478   0.00000  Uiso   1.00
C49    C     0.73412   0.40434   0.03555   0.00000  Uiso   1.00
C50    C     0.78473   0.46067   0.10311   0.00000  Uiso   1.00
C51    C     0.84548   0.57271   0.18533   0.00000  Uiso   1.00
C52    C     0.79462   0.21333   0.94206   0.00000  Uiso   1.00
C53    C     0.80154   0.19050   0.80965   0.00000  Uiso   1.00
C54    C     0.88299   0.14903   0.77392   0.00000  Uiso   1.00
C55    C     0.00058   0.08068   0.66563   0.00000  Uiso   1.00
C56    C     0.67360   0.21181   0.11895   0.00000  Uiso   1.00
C57    C     0.57877   0.18769   0.13525   0.00000  Uiso   1.00
C58    C     0.55832   0.14493   0.24843   0.00000  Uiso   1.00
C59    C     0.48801   0.07422   0.41478   0.00000  Uiso   1.00
C60    C     0.84415   0.22604   0.17462   0.00000  Uiso   1.00
C61    C     0.82985   0.31153   0.15819   0.00000  Uiso   1.00
C62    C     0.88051   0.36777   0.22582   0.00000  Uiso   1.00
C63    C     0.85672   0.44268   0.19669   0.00000  Uiso   1.00
C64    C     0.86648   0.19537   0.03546   0.00000  Uiso   1.00
C65    C     0.94793   0.15392   0.99992   0.00000  Uiso   1.00
C66    C     0.95498   0.13104   0.86749   0.00000  Uiso   1.00
C67    C     0.74546   0.19386   0.21236   0.00000  Uiso   1.00
C68    C     0.72516   0.15112   0.32552   0.00000  Uiso   1.00
C69    C     0.63032   0.12694   0.34200   0.00000  Uiso   1.00
H70    H     0.65589   0.27307   0.92992   0.00000  Uiso   1.00
H71    H     0.67850   0.41821   0.96324   0.00000  Uiso   1.00
H72    H     0.74591   0.20440   0.73739   0.00000  Uiso   1.00
H73    H     0.52317   0.20159   0.06295   0.00000  Uiso   1.00
H74    H     0.73529   0.57121   0.04135   0.00000  Uiso   1.00
H75    H     0.87741   0.12035   0.56513   0.00000  Uiso   1.00
H76    H     0.40772   0.11443   0.25162   0.00000  Uiso   1.00
H77    H     0.90011   0.21206   0.24735   0.00000  Uiso   1.00
H78    H     0.93612   0.35385   0.29810   0.00000  Uiso   1.00
H79    H     0.00353   0.14004   0.07223   0.00000  Uiso   1.00
H80    H     0.78079   0.13723   0.39779   0.00000  Uiso   1.00
H81    H     0.94439   0.51897   0.31312   0.00000  Uiso   1.00
H82    H     0.08650   0.06811   0.83690   0.00000  Uiso   1.00
H83    H     0.61682   0.06219   0.52339   0.00000  Uiso   1.00
O84    O     0.85915   0.63947   0.20486   0.00000  Uiso   1.00
O85    O     0.04559   0.04794   0.58009   0.00000  Uiso   1.00
O86    O     0.42937   0.04018   0.48074   0.00000  Uiso   1.00
N87    N     0.77955   0.53946   0.09837   0.00000  Uiso   1.00
N88    N     0.91243   0.11794   0.65313   0.00000  Uiso   1.00
N89    N     0.47331   0.11239   0.29492   0.00000  Uiso   1.00
N90    N     0.89206   0.51135   0.24460   0.00000  Uiso   1.00
N91    N     0.02494   0.08983   0.79936   0.00000  Uiso   1.00
N92    N     0.58583   0.08428   0.44116   0.00000  Uiso   1.00
C93    C     0.21184   0.24090   0.99735   0.00000  Uiso   1.00
C94    C     0.25798   0.17051   0.93522   0.00000  Uiso   1.00
C95    C     0.23412   0.09566   0.96445   0.00000  Uiso   1.00
C96    C     0.28473   0.03933   0.89689   0.00000  Uiso   1.00
C97    C     0.34548   0.92729   0.81467   0.00000  Uiso   1.00
C98    C     0.29462   0.28667   0.05794   0.00000  Uiso   1.00
C99    C     0.30154   0.30950   0.19035   0.00000  Uiso   1.00
C100   C     0.38299   0.35097   0.22608   0.00000  Uiso   1.00
C101   C     0.50058   0.41932   0.33437   0.00000  Uiso   1.00
C102   C     0.17360   0.28819   0.88105   0.00000  Uiso   1.00
C103   C     0.07877   0.31231   0.86475   0.00000  Uiso   1.00
C104   C     0.05832   0.35507   0.75157   0.00000  Uiso   1.00
C105   C     0.98801   0.42578   0.58522   0.00000  Uiso   1.00
C106   C     0.34415   0.27396   0.82538   0.00000  Uiso   1.00
C107   C     0.32985   0.18847   0.84181   0.00000  Uiso   1.00
C108   C     0.38051   0.13223   0.77418   0.00000  Uiso   1.00
C109   C     0.35672   0.05732   0.80331   0.00000  Uiso   1.00
C110   C     0.36648   0.30463   0.96454   0.00000  Uiso   1.00
C111   C     0.44793   0.34608   0.00008   0.00000  Uiso   1.00
C112   C     0.45498   0.36896   0.13251   0.00000  Uiso   1.00
C113   C     0.24546   0.30614   0.78764   0.00000  Uiso   1.00
C114   C     0.22516   0.34888   0.67448   0.00000  Uiso   1.00
C115   C     0.13032   0.37306   0.65800   0.00000  Uiso   1.00
H116   H     0.15589   0.22693   0.07008   0.00000  Uiso   1.00
H117   H     0.17850   0.08179   0.03676   0.00000  Uiso   1.00
H118   H     0.24591   0.29560   0.26261   0.00000  Uiso   1.00
H119   H     0.02317   0.29841   0.93705   0.00000  Uiso   1.00
H120   H     0.23529   0.92879   0.95865   0.00000  Uiso   1.00
H121   H     0.37741   0.37965   0.43487   0.00000  Uiso   1.00
H122   H     0.90772   0.38557   0.74838   0.00000  Uiso   1.00
H123   H     0.40011   0.28794   0.75265   0.00000  Uiso   1.00
H124   H     0.43612   0.14615   0.70190   0.00000  Uiso   1.00
H125   H     0.50353   0.35996   0.92777   0.00000  Uiso   1.00
H126   H     0.28079   0.36277   0.60221   0.00000  Uiso   1.00
H127   H     0.44439   0.98103   0.68688   0.00000  Uiso   1.00
H128   H     0.58650   0.43189   0.16310   0.00000  Uiso   1.00
H129   H     0.11682   0.43781   0.47661   0.00000  Uiso   1.00
O130   O     0.35915   0.86053   0.79514   0.00000  Uiso   1.00
O131   O     0.54559   0.45206   0.41991   0.00000  Uiso   1.00
O132   O     0.92937   0.45982   0.51926   0.00000  Uiso   1.00
N133   N     0.27955   0.96054   0.90163   0.00000  Uiso   1.00
N134   N     0.41243   0.38206   0.34687   0.00000  Uiso   1.00
N135   N     0.97331   0.38761   0.70508   0.00000  Uiso   1.00
N136   N     0.39206   0.98865   0.75540   0.00000  Uiso   1.00
N137   N     0.52494   0.41017   0.20064   0.00000  Uiso   1.00
N138   N     0.08583   0.41572   0.55884   0.00000  Uiso   1.00
C139   C     0.28816   0.75910   0.49735   0.00000  Uiso   1.00
C140   C     0.24202   0.82949   0.43522   0.00000  Uiso   1.00
C141   C     0.26588   0.90434   0.46445   0.00000  Uiso   1.00
C142   C     0.21527   0.96067   0.39689   0.00000  Uiso   1.00
C143   C     0.15452   0.07271   0.31467   0.00000  Uiso   1.00
C144   C     0.20538   0.71333   0.55794   0.00000  Uiso   1.00
C145   C     0.19846   0.69050   0.69035   0.00000  Uiso   1.00
C146   C     0.11701   0.64903   0.72608   0.00000  Uiso   1.00
C147   C     0.99942   0.58068   0.83437   0.00000  Uiso   1.00
C148   C     0.32640   0.71181   0.38105   0.00000  Uiso   1.00
C149   C     0.42123   0.68769   0.36475   0.00000  Uiso   1.00
C150   C     0.44168   0.64493   0.25157   0.00000  Uiso   1.00
C151   C     0.51199   0.57422   0.08522   0.00000  Uiso   1.00
C152   C     0.15585   0.72604   0.32538   0.00000  Uiso   1.00
C153   C     0.17015   0.81153   0.34181   0.00000  Uiso   1.00
C154   C     0.11949   0.86777   0.27418   0.00000  Uiso   1.00
C155   C     0.14328   0.94268   0.30331   0.00000  Uiso   1.00
C156   C     0.13352   0.69537   0.46454   0.00000  Uiso   1.00
C157   C     0.05207   0.65392   0.50008   0.00000  Uiso   1.00
C158   C     0.04502   0.63104   0.63251   0.00000  Uiso   1.00
C159   C     0.25454   0.69386   0.28764   0.00000  Uiso   1.00
C160   C     0.27484   0.65112   0.17448   0.00000  Uiso   1.00
C161   C     0.36968   0.62694   0.15800   0.00000  Uiso   1.00
H162   H     0.34411   0.77307   0.57008   0.00000  Uiso   1.00
H163   H     0.32150   0.91821   0.53676   0.00000  Uiso   1.00
H164   H     0.25409   0.70440   0.76261   0.00000  Uiso   1.00
H165   H     0.47683   0.70159   0.43705   0.00000  Uiso   1.00
H166   H     0.26471   0.07121   0.45865   0.00000  Uiso   1.00
H167   H     0.12259   0.62035   0.93487   0.00000  Uiso   1.00
H168   H     0.59228   0.61443   0.24838   0.00000  Uiso   1.00
H169   H     0.09989   0.71206   0.25265   0.00000  Uiso   1.00
H170   H     0.06388   0.85385   0.20190   0.00000  Uiso   1.00
H171   H     0.99647   0.64004   0.42777   0.00000  Uiso   1.00
H172   H     0.21921   0.63723   0.10221   0.00000  Uiso   1.00
H173   H     0.05561   0.01897   0.18688   0.00000  Uiso   1.00
H174   H     0.91350   0.56811   0.66310   0.00000  Uiso   1.00
H175   H     0.38318   0.56219   0.97661   0.00000  Uiso   1.00
O176   O     0.14085   0.13947   0.29514   0.00000  Uiso   1.00
O177   O     0.95441   0.54794   0.91991   0.00000  Uiso   1.00
O178   O     0.57063   0.54018   0.01926   0.00000  Uiso   1.00
N179   N     0.22045   0.03946   0.40163   0.00000  Uiso   1.00
N180   N     0.08757   0.61794   0.84687   0.00000  Uiso   1.00
N181   N     0.52669   0.61239   0.20508   0.00000  Uiso   1.00
N182   N     0.10794   0.01135   0.25540   0.00000  Uiso   1.00
N183   N     0.97506   0.58983   0.70064   0.00000  Uiso   1.00
N184   N     0.41417   0.58428   0.05884   0.00000  Uiso   1.00
