data_job_03649
_audit_creation_date              2018-12-19
_audit_creation_method            'Materials Studio'
_symmetry_space_group_name_H-M    'P1'
_symmetry_Int_Tables_number       1
_symmetry_cell_setting            triclinic
loop_
_symmetry_equiv_pos_as_xyz
  x,y,z
_cell_length_a                    20.7242
_cell_length_b                    23.3185
_cell_length_c                    14.4268
_cell_angle_alpha                 90.0000
_cell_angle_beta                  84.5619
_cell_angle_gamma                 90.0000
loop_
_atom_site_label
_atom_site_type_symbol
_atom_site_fract_x
_atom_site_fract_y
_atom_site_fract_z
_atom_site_U_iso_or_equiv
_atom_site_adp_type
_atom_site_occupancy
C1     C     0.67389   0.52823   0.03670   0.00000  Uiso   1.00
C2     C     0.63207   0.47922   0.07873   0.00000  Uiso   1.00
C3     C     0.60179   0.43780   0.02904   0.00000  Uiso   1.00
C4     C     0.56566   0.39658   0.08036   0.00000  Uiso   1.00
C5     C     0.50155   0.32045   0.13078   0.00000  Uiso   1.00
C6     C     0.64335   0.58322   0.07783   0.00000  Uiso   1.00
C7     C     0.62257   0.62924   0.02738   0.00000  Uiso   1.00
C8     C     0.59594   0.67557   0.07795   0.00000  Uiso   1.00
C9     C     0.54940   0.76092   0.12698   0.00000  Uiso   1.00
C10    C     0.73916   0.52258   0.07656   0.00000  Uiso   1.00
C11    C     0.79894   0.51763   0.02504   0.00000  Uiso   1.00
C12    C     0.85298   0.51293   0.07455   0.00000  Uiso   1.00
C13    C     0.95519   0.50413   0.12160   0.00000  Uiso   1.00
C14    C     0.66355   0.52870   0.21621   0.00000  Uiso   1.00
C15    C     0.62645   0.47947   0.17623   0.00000  Uiso   1.00
C16    C     0.59036   0.43831   0.22764   0.00000  Uiso   1.00
C17    C     0.56004   0.39683   0.17804   0.00000  Uiso   1.00
C18    C     0.63774   0.58347   0.17533   0.00000  Uiso   1.00
C19    C     0.61114   0.62975   0.22599   0.00000  Uiso   1.00
C20    C     0.59032   0.67582   0.17563   0.00000  Uiso   1.00
C21    C     0.73355   0.52283   0.17406   0.00000  Uiso   1.00
C22    C     0.78750   0.51814   0.22365   0.00000  Uiso   1.00
C23    C     0.84736   0.51318   0.17222   0.00000  Uiso   1.00
H24    H     0.67825   0.52804   0.96079   0.00000  Uiso   1.00
H25    H     0.60614   0.43762   0.95358   0.00000  Uiso   1.00
H26    H     0.62692   0.62903   0.95193   0.00000  Uiso   1.00
H27    H     0.80326   0.51744   0.94959   0.00000  Uiso   1.00
H28    H     0.52369   0.33749   0.98858   0.00000  Uiso   1.00
H29    H     0.56754   0.74111   0.98510   0.00000  Uiso   1.00
H30    H     0.93938   0.50579   0.98017   0.00000  Uiso   1.00
H31    H     0.65919   0.52889   0.29212   0.00000  Uiso   1.00
H32    H     0.58602   0.43851   0.30310   0.00000  Uiso   1.00
H33    H     0.60681   0.62993   0.30144   0.00000  Uiso   1.00
H34    H     0.78314   0.51833   0.29911   0.00000  Uiso   1.00
H35    H     0.50736   0.33822   0.27226   0.00000  Uiso   1.00
H36    H     0.55121   0.74184   0.26878   0.00000  Uiso   1.00
H37    H     0.92305   0.50652   0.26385   0.00000  Uiso   1.00
O38    O     0.46773   0.27840   0.13166   0.00000  Uiso   1.00
O39    O     0.52527   0.80793   0.12709   0.00000  Uiso   1.00
O40    O     0.01311   0.49920   0.12063   0.00000  Uiso   1.00
N41    N     0.52990   0.35006   0.05384   0.00000  Uiso   1.00
N42    N     0.57089   0.72741   0.05058   0.00000  Uiso   1.00
N43    N     0.91853   0.50743   0.04598   0.00000  Uiso   1.00
N44    N     0.52112   0.35045   0.20649   0.00000  Uiso   1.00
N45    N     0.56210   0.72780   0.20323   0.00000  Uiso   1.00
N46    N     0.90974   0.50782   0.19862   0.00000  Uiso   1.00
C47    C     0.32611   0.02823   0.46330   0.00000  Uiso   1.00
C48    C     0.36793   0.97922   0.42127   0.00000  Uiso   1.00
C49    C     0.39821   0.93780   0.47096   0.00000  Uiso   1.00
C50    C     0.43434   0.89658   0.41964   0.00000  Uiso   1.00
C51    C     0.49845   0.82045   0.36922   0.00000  Uiso   1.00
C52    C     0.35665   0.08322   0.42217   0.00000  Uiso   1.00
C53    C     0.37743   0.12924   0.47262   0.00000  Uiso   1.00
C54    C     0.40406   0.17557   0.42205   0.00000  Uiso   1.00
C55    C     0.45060   0.26092   0.37302   0.00000  Uiso   1.00
C56    C     0.26084   0.02258   0.42344   0.00000  Uiso   1.00
C57    C     0.20106   0.01763   0.47496   0.00000  Uiso   1.00
C58    C     0.14702   0.01293   0.42545   0.00000  Uiso   1.00
C59    C     0.04481   0.00413   0.37840   0.00000  Uiso   1.00
C60    C     0.33645   0.02870   0.28379   0.00000  Uiso   1.00
C61    C     0.37355   0.97947   0.32377   0.00000  Uiso   1.00
C62    C     0.40964   0.93831   0.27236   0.00000  Uiso   1.00
C63    C     0.43996   0.89683   0.32196   0.00000  Uiso   1.00
C64    C     0.36226   0.08347   0.32467   0.00000  Uiso   1.00
C65    C     0.38886   0.12975   0.27401   0.00000  Uiso   1.00
C66    C     0.40968   0.17582   0.32437   0.00000  Uiso   1.00
C67    C     0.26645   0.02283   0.32594   0.00000  Uiso   1.00
C68    C     0.21250   0.01814   0.27635   0.00000  Uiso   1.00
C69    C     0.15264   0.01318   0.32778   0.00000  Uiso   1.00
H70    H     0.32175   0.02804   0.53921   0.00000  Uiso   1.00
H71    H     0.39386   0.93762   0.54642   0.00000  Uiso   1.00
H72    H     0.37308   0.12903   0.54807   0.00000  Uiso   1.00
H73    H     0.19674   0.01744   0.55041   0.00000  Uiso   1.00
H74    H     0.47631   0.83749   0.51142   0.00000  Uiso   1.00
H75    H     0.43246   0.24111   0.51490   0.00000  Uiso   1.00
H76    H     0.06062   0.00579   0.51983   0.00000  Uiso   1.00
H77    H     0.34081   0.02889   0.20788   0.00000  Uiso   1.00
H78    H     0.41398   0.93851   0.19690   0.00000  Uiso   1.00
H79    H     0.39319   0.12993   0.19856   0.00000  Uiso   1.00
H80    H     0.21686   0.01833   0.20089   0.00000  Uiso   1.00
H81    H     0.49264   0.83822   0.22774   0.00000  Uiso   1.00
H82    H     0.44879   0.24184   0.23122   0.00000  Uiso   1.00
H83    H     0.07695   0.00652   0.23615   0.00000  Uiso   1.00
O84    O     0.53227   0.77840   0.36834   0.00000  Uiso   1.00
O85    O     0.47473   0.30793   0.37291   0.00000  Uiso   1.00
O86    O     0.98689   0.99920   0.37937   0.00000  Uiso   1.00
N87    N     0.47010   0.85006   0.44616   0.00000  Uiso   1.00
N88    N     0.42911   0.22741   0.44942   0.00000  Uiso   1.00
N89    N     0.08147   0.00743   0.45402   0.00000  Uiso   1.00
N90    N     0.47888   0.85045   0.29351   0.00000  Uiso   1.00
N91    N     0.43790   0.22780   0.29677   0.00000  Uiso   1.00
N92    N     0.09026   0.00782   0.30138   0.00000  Uiso   1.00
C93    C     0.32611   0.47177   0.96330   0.00000  Uiso   1.00
C94    C     0.36793   0.52078   0.92127   0.00000  Uiso   1.00
C95    C     0.39821   0.56220   0.97096   0.00000  Uiso   1.00
C96    C     0.43434   0.60342   0.91964   0.00000  Uiso   1.00
C97    C     0.49845   0.67955   0.86922   0.00000  Uiso   1.00
C98    C     0.35665   0.41678   0.92217   0.00000  Uiso   1.00
C99    C     0.37743   0.37076   0.97262   0.00000  Uiso   1.00
C100   C     0.40406   0.32443   0.92205   0.00000  Uiso   1.00
C101   C     0.45060   0.23908   0.87302   0.00000  Uiso   1.00
C102   C     0.26084   0.47742   0.92344   0.00000  Uiso   1.00
C103   C     0.20106   0.48237   0.97496   0.00000  Uiso   1.00
C104   C     0.14702   0.48707   0.92545   0.00000  Uiso   1.00
C105   C     0.04481   0.49587   0.87840   0.00000  Uiso   1.00
C106   C     0.33645   0.47130   0.78379   0.00000  Uiso   1.00
C107   C     0.37355   0.52053   0.82377   0.00000  Uiso   1.00
C108   C     0.40964   0.56169   0.77236   0.00000  Uiso   1.00
C109   C     0.43996   0.60317   0.82196   0.00000  Uiso   1.00
C110   C     0.36226   0.41653   0.82467   0.00000  Uiso   1.00
C111   C     0.38886   0.37025   0.77401   0.00000  Uiso   1.00
C112   C     0.40968   0.32418   0.82437   0.00000  Uiso   1.00
C113   C     0.26645   0.47717   0.82594   0.00000  Uiso   1.00
C114   C     0.21250   0.48186   0.77635   0.00000  Uiso   1.00
C115   C     0.15264   0.48682   0.82778   0.00000  Uiso   1.00
H116   H     0.32175   0.47196   0.03921   0.00000  Uiso   1.00
H117   H     0.39386   0.56238   0.04642   0.00000  Uiso   1.00
H118   H     0.37308   0.37097   0.04807   0.00000  Uiso   1.00
H119   H     0.19674   0.48256   0.05041   0.00000  Uiso   1.00
H120   H     0.47631   0.66251   0.01142   0.00000  Uiso   1.00
H121   H     0.43246   0.25889   0.01490   0.00000  Uiso   1.00
H122   H     0.06062   0.49421   0.01983   0.00000  Uiso   1.00
H123   H     0.34081   0.47111   0.70788   0.00000  Uiso   1.00
H124   H     0.41398   0.56149   0.69690   0.00000  Uiso   1.00
H125   H     0.39319   0.37007   0.69856   0.00000  Uiso   1.00
H126   H     0.21686   0.48167   0.70089   0.00000  Uiso   1.00
H127   H     0.49264   0.66178   0.72774   0.00000  Uiso   1.00
H128   H     0.44879   0.25816   0.73122   0.00000  Uiso   1.00
H129   H     0.07695   0.49348   0.73615   0.00000  Uiso   1.00
O130   O     0.53227   0.72160   0.86834   0.00000  Uiso   1.00
O131   O     0.47473   0.19207   0.87291   0.00000  Uiso   1.00
O132   O     0.98689   0.50080   0.87937   0.00000  Uiso   1.00
N133   N     0.47010   0.64994   0.94616   0.00000  Uiso   1.00
N134   N     0.42911   0.27259   0.94942   0.00000  Uiso   1.00
N135   N     0.08147   0.49257   0.95402   0.00000  Uiso   1.00
N136   N     0.47888   0.64955   0.79351   0.00000  Uiso   1.00
N137   N     0.43790   0.27220   0.79677   0.00000  Uiso   1.00
N138   N     0.09026   0.49218   0.80138   0.00000  Uiso   1.00
C139   C     0.67389   0.97177   0.53670   0.00000  Uiso   1.00
C140   C     0.63207   0.02078   0.57873   0.00000  Uiso   1.00
C141   C     0.60179   0.06220   0.52904   0.00000  Uiso   1.00
C142   C     0.56566   0.10342   0.58036   0.00000  Uiso   1.00
C143   C     0.50155   0.17955   0.63078   0.00000  Uiso   1.00
C144   C     0.64335   0.91678   0.57783   0.00000  Uiso   1.00
C145   C     0.62257   0.87076   0.52738   0.00000  Uiso   1.00
C146   C     0.59594   0.82443   0.57795   0.00000  Uiso   1.00
C147   C     0.54940   0.73908   0.62698   0.00000  Uiso   1.00
C148   C     0.73916   0.97742   0.57656   0.00000  Uiso   1.00
C149   C     0.79894   0.98237   0.52504   0.00000  Uiso   1.00
C150   C     0.85298   0.98707   0.57455   0.00000  Uiso   1.00
C151   C     0.95519   0.99587   0.62160   0.00000  Uiso   1.00
C152   C     0.66355   0.97130   0.71621   0.00000  Uiso   1.00
C153   C     0.62645   0.02053   0.67623   0.00000  Uiso   1.00
C154   C     0.59036   0.06169   0.72764   0.00000  Uiso   1.00
C155   C     0.56004   0.10317   0.67804   0.00000  Uiso   1.00
C156   C     0.63774   0.91653   0.67533   0.00000  Uiso   1.00
C157   C     0.61114   0.87025   0.72599   0.00000  Uiso   1.00
C158   C     0.59032   0.82418   0.67563   0.00000  Uiso   1.00
C159   C     0.73355   0.97717   0.67406   0.00000  Uiso   1.00
C160   C     0.78750   0.98186   0.72365   0.00000  Uiso   1.00
C161   C     0.84736   0.98682   0.67222   0.00000  Uiso   1.00
H162   H     0.67825   0.97196   0.46079   0.00000  Uiso   1.00
H163   H     0.60614   0.06238   0.45358   0.00000  Uiso   1.00
H164   H     0.62692   0.87097   0.45193   0.00000  Uiso   1.00
H165   H     0.80326   0.98256   0.44959   0.00000  Uiso   1.00
H166   H     0.52369   0.16251   0.48858   0.00000  Uiso   1.00
H167   H     0.56754   0.75889   0.48510   0.00000  Uiso   1.00
H168   H     0.93938   0.99421   0.48017   0.00000  Uiso   1.00
H169   H     0.65919   0.97111   0.79212   0.00000  Uiso   1.00
H170   H     0.58602   0.06149   0.80310   0.00000  Uiso   1.00
H171   H     0.60681   0.87007   0.80144   0.00000  Uiso   1.00
H172   H     0.78314   0.98167   0.79911   0.00000  Uiso   1.00
H173   H     0.50736   0.16178   0.77226   0.00000  Uiso   1.00
H174   H     0.55121   0.75816   0.76878   0.00000  Uiso   1.00
H175   H     0.92305   0.99348   0.76385   0.00000  Uiso   1.00
O176   O     0.46773   0.22160   0.63166   0.00000  Uiso   1.00
O177   O     0.52527   0.69207   0.62709   0.00000  Uiso   1.00
O178   O     0.01311   0.00080   0.62063   0.00000  Uiso   1.00
N179   N     0.52990   0.14994   0.55384   0.00000  Uiso   1.00
N180   N     0.57089   0.77259   0.55058   0.00000  Uiso   1.00
N181   N     0.91853   0.99257   0.54598   0.00000  Uiso   1.00
N182   N     0.52112   0.14955   0.70649   0.00000  Uiso   1.00
N183   N     0.56210   0.77220   0.70323   0.00000  Uiso   1.00
N184   N     0.90974   0.99218   0.69862   0.00000  Uiso   1.00
