data_job_06093
_audit_creation_date              2018-12-19
_audit_creation_method            'Materials Studio'
_symmetry_space_group_name_H-M    'P1'
_symmetry_Int_Tables_number       1
_symmetry_cell_setting            triclinic
loop_
_symmetry_equiv_pos_as_xyz
  x,y,z
_cell_length_a                    12.3970
_cell_length_b                    19.0418
_cell_length_c                    19.0703
_cell_angle_alpha                 64.7160
_cell_angle_beta                  77.4979
_cell_angle_gamma                 102.5005
loop_
_atom_site_label
_atom_site_type_symbol
_atom_site_fract_x
_atom_site_fract_y
_atom_site_fract_z
_atom_site_U_iso_or_equiv
_atom_site_adp_type
_atom_site_occupancy
C1     C     0.60598   0.61613   0.14680   0.00000  Uiso   1.00
C2     C     0.73616   0.64387   0.13639   0.00000  Uiso   1.00
C3     C     0.82495   0.71281   0.06802   0.00000  Uiso   1.00
C4     C     0.93842   0.72760   0.07043   0.00000  Uiso   1.00
C5     C     0.13695   0.77860   0.04386   0.00000  Uiso   1.00
C6     C     0.57261   0.52710   0.16347   0.00000  Uiso   1.00
C7     C     0.52389   0.49786   0.11788   0.00000  Uiso   1.00
C8     C     0.49967   0.41435   0.14310   0.00000  Uiso   1.00
C9     C     0.44423   0.28405   0.15861   0.00000  Uiso   1.00
C10    C     0.53906   0.61142   0.22677   0.00000  Uiso   1.00
C11    C     0.46210   0.65305   0.23441   0.00000  Uiso   1.00
C12    C     0.40961   0.64052   0.31292   0.00000  Uiso   1.00
C13    C     0.30207   0.64114   0.42671   0.00000  Uiso   1.00
C14    C     0.64960   0.51981   0.27265   0.00000  Uiso   1.00
C15    C     0.75984   0.59155   0.20475   0.00000  Uiso   1.00
C16    C     0.87320   0.60624   0.20727   0.00000  Uiso   1.00
C17    C     0.96215   0.67519   0.13891   0.00000  Uiso   1.00
C18    C     0.59630   0.47478   0.23183   0.00000  Uiso   1.00
C19    C     0.57214   0.39129   0.25713   0.00000  Uiso   1.00
C20    C     0.52340   0.36193   0.21158   0.00000  Uiso   1.00
C21    C     0.56275   0.55910   0.29513   0.00000  Uiso   1.00
C22    C     0.51036   0.54649   0.37365   0.00000  Uiso   1.00
C23    C     0.43334   0.58810   0.38140   0.00000  Uiso   1.00
H24    H     0.58753   0.65686   0.09358   0.00000  Uiso   1.00
H25    H     0.80658   0.75328   0.01513   0.00000  Uiso   1.00
H26    H     0.50555   0.53836   0.06499   0.00000  Uiso   1.00
H27    H     0.44379   0.69353   0.18149   0.00000  Uiso   1.00
H28    H     0.05989   0.83708   0.95829   0.00000  Uiso   1.00
H29    H     0.42513   0.38391   0.06344   0.00000  Uiso   1.00
H30    H     0.29486   0.71113   0.30911   0.00000  Uiso   1.00
H31    H     0.66804   0.47908   0.32588   0.00000  Uiso   1.00
H32    H     0.89151   0.56574   0.26018   0.00000  Uiso   1.00
H33    H     0.59048   0.35082   0.31003   0.00000  Uiso   1.00
H34    H     0.52871   0.50600   0.42654   0.00000  Uiso   1.00
H35    H     0.12882   0.68487   0.15718   0.00000  Uiso   1.00
H36    H     0.49405   0.23170   0.26233   0.00000  Uiso   1.00
H37    H     0.36380   0.55892   0.50800   0.00000  Uiso   1.00
O38    O     0.23992   0.82118   0.01031   0.00000  Uiso   1.00
O39    O     0.40711   0.22663   0.14827   0.00000  Uiso   1.00
O40    O     0.23622   0.65594   0.47058   0.00000  Uiso   1.00
N41    N     0.04544   0.78938   0.01412   0.00000  Uiso   1.00
N42    N     0.45199   0.36569   0.11242   0.00000  Uiso   1.00
N43    N     0.33019   0.67159   0.34211   0.00000  Uiso   1.00
N44    N     0.08253   0.70747   0.12114   0.00000  Uiso   1.00
N45    N     0.48908   0.28379   0.21944   0.00000  Uiso   1.00
N46    N     0.36728   0.58969   0.44913   0.00000  Uiso   1.00
C47    C     0.99015   0.23710   0.61629   0.00000  Uiso   1.00
C48    C     0.09263   0.21982   0.64404   0.00000  Uiso   1.00
C49    C     0.11260   0.21947   0.71302   0.00000  Uiso   1.00
C50    C     0.21129   0.20228   0.72781   0.00000  Uiso   1.00
C51    C     0.35890   0.17796   0.77883   0.00000  Uiso   1.00
C52    C     0.04555   0.30914   0.52749   0.00000  Uiso   1.00
C53    C     0.02591   0.38387   0.49848   0.00000  Uiso   1.00
C54    C     0.08496   0.44187   0.41516   0.00000  Uiso   1.00
C55    C     0.15940   0.55619   0.28523   0.00000  Uiso   1.00
C56    C     0.92807   0.16187   0.61128   0.00000  Uiso   1.00
C57    C     0.80965   0.11279   0.65270   0.00000  Uiso   1.00
C58    C     0.76979   0.04680   0.63991   0.00000  Uiso   1.00
C59    C     0.66184   0.93246   0.64007   0.00000  Uiso   1.00
C60    C     0.12993   0.20721   0.51989   0.00000  Uiso   1.00
C61    C     0.16855   0.20359   0.59167   0.00000  Uiso   1.00
C62    C     0.26724   0.18640   0.60637   0.00000  Uiso   1.00
C63    C     0.28735   0.18601   0.67536   0.00000  Uiso   1.00
C64    C     0.12147   0.29291   0.47513   0.00000  Uiso   1.00
C65    C     0.18055   0.35080   0.39183   0.00000  Uiso   1.00
C66    C     0.16102   0.42560   0.36271   0.00000  Uiso   1.00
C67    C     0.00399   0.14563   0.55892   0.00000  Uiso   1.00
C68    C     0.96431   0.07971   0.54605   0.00000  Uiso   1.00
C69    C     0.84585   0.03053   0.58745   0.00000  Uiso   1.00
H70    H     0.93105   0.24975   0.65705   0.00000  Uiso   1.00
H71    H     0.05383   0.23204   0.75352   0.00000  Uiso   1.00
H72    H     0.96714   0.39642   0.53902   0.00000  Uiso   1.00
H73    H     0.75093   0.12537   0.69321   0.00000  Uiso   1.00
H74    H     0.22346   0.20528   0.83737   0.00000  Uiso   1.00
H75    H     0.04065   0.55186   0.38507   0.00000  Uiso   1.00
H76    H     0.58471   0.98031   0.71023   0.00000  Uiso   1.00
H77    H     0.18904   0.19457   0.47912   0.00000  Uiso   1.00
H78    H     0.32598   0.17383   0.56584   0.00000  Uiso   1.00
H79    H     0.23930   0.33821   0.35133   0.00000  Uiso   1.00
H80    H     0.02308   0.06717   0.50553   0.00000  Uiso   1.00
H81    H     0.44435   0.15804   0.68503   0.00000  Uiso   1.00
H82    H     0.26154   0.50463   0.23273   0.00000  Uiso   1.00
H83    H     0.80560   0.93307   0.55789   0.00000  Uiso   1.00
O84    O     0.41935   0.16904   0.82144   0.00000  Uiso   1.00
O85    O     0.17949   0.62374   0.22803   0.00000  Uiso   1.00
O86    O     0.58132   0.87387   0.65464   0.00000  Uiso   1.00
N87    N     0.25664   0.19699   0.78962   0.00000  Uiso   1.00
N88    N     0.08574   0.52103   0.36675   0.00000  Uiso   1.00
N89    N     0.65947   0.98669   0.67073   0.00000  Uiso   1.00
N90    N     0.37550   0.17157   0.70766   0.00000  Uiso   1.00
N91    N     0.20460   0.49561   0.28479   0.00000  Uiso   1.00
N92    N     0.77833   0.96127   0.58876   0.00000  Uiso   1.00
C93    C     0.75175   0.14591   0.23772   0.00000  Uiso   1.00
C94    C     0.87146   0.13535   0.22046   0.00000  Uiso   1.00
C95    C     0.89188   0.06673   0.21987   0.00000  Uiso   1.00
C96    C     0.00770   0.06902   0.20275   0.00000  Uiso   1.00
C97    C     0.17957   0.04218   0.17841   0.00000  Uiso   1.00
C98    C     0.73521   0.16291   0.30984   0.00000  Uiso   1.00
C99    C     0.64106   0.11747   0.38440   0.00000  Uiso   1.00
C100   C     0.64218   0.14298   0.44252   0.00000  Uiso   1.00
C101   C     0.60247   0.15896   0.55693   0.00000  Uiso   1.00
C102   C     0.76466   0.22590   0.16273   0.00000  Uiso   1.00
C103   C     0.69525   0.23343   0.11361   0.00000  Uiso   1.00
C104   C     0.72114   0.31198   0.04787   0.00000  Uiso   1.00
C105   C     0.72716   0.42576   0.93388   0.00000  Uiso   1.00
C106   C     0.92113   0.27202   0.20834   0.00000  Uiso   1.00
C107   C     0.96346   0.20384   0.20450   0.00000  Uiso   1.00
C108   C     0.07928   0.20625   0.18737   0.00000  Uiso   1.00
C109   C     0.09986   0.13764   0.18676   0.00000  Uiso   1.00
C110   C     0.82720   0.23140   0.29389   0.00000  Uiso   1.00
C111   C     0.82846   0.25699   0.35190   0.00000  Uiso   1.00
C112   C     0.73434   0.21159   0.42653   0.00000  Uiso   1.00
C113   C     0.85666   0.29440   0.14677   0.00000  Uiso   1.00
C114   C     0.88265   0.37295   0.08110   0.00000  Uiso   1.00
C115   C     0.81330   0.38059   0.03189   0.00000  Uiso   1.00
H116   H     0.68012   0.09259   0.25015   0.00000  Uiso   1.00
H117   H     0.82065   0.01373   0.23223   0.00000  Uiso   1.00
H118   H     0.56987   0.06447   0.39673   0.00000  Uiso   1.00
H119   H     0.62406   0.18041   0.12598   0.00000  Uiso   1.00
H120   H     0.01703   0.95649   0.20537   0.00000  Uiso   1.00
H121   H     0.48822   0.06350   0.55221   0.00000  Uiso   1.00
H122   H     0.60248   0.30798   0.98127   0.00000  Uiso   1.00
H123   H     0.99276   0.32535   0.19592   0.00000  Uiso   1.00
H124   H     0.15045   0.25926   0.17502   0.00000  Uiso   1.00
H125   H     0.89966   0.31000   0.33953   0.00000  Uiso   1.00
H126   H     0.95385   0.42594   0.06877   0.00000  Uiso   1.00
H127   H     0.28470   0.15577   0.15894   0.00000  Uiso   1.00
H128   H     0.75588   0.26278   0.50578   0.00000  Uiso   1.00
H129   H     0.87015   0.50726   0.93485   0.00000  Uiso   1.00
O130   O     0.24895   0.00845   0.16941   0.00000  Uiso   1.00
O131   O     0.55516   0.14884   0.62445   0.00000  Uiso   1.00
O132   O     0.70508   0.46960   0.87540   0.00000  Uiso   1.00
N133   N     0.05839   0.01247   0.19729   0.00000  Uiso   1.00
N134   N     0.56399   0.11251   0.52157   0.00000  Uiso   1.00
N135   N     0.67079   0.34108   0.98781   0.00000  Uiso   1.00
N136   N     0.20242   0.11970   0.17231   0.00000  Uiso   1.00
N137   N     0.70802   0.21974   0.49659   0.00000  Uiso   1.00
N138   N     0.81483   0.44831   0.96283   0.00000  Uiso   1.00
C139   C     0.39402   0.38387   0.85320   0.00000  Uiso   1.00
C140   C     0.26384   0.35613   0.86361   0.00000  Uiso   1.00
C141   C     0.17505   0.28719   0.93198   0.00000  Uiso   1.00
C142   C     0.06158   0.27240   0.92957   0.00000  Uiso   1.00
C143   C     0.86305   0.22140   0.95614   0.00000  Uiso   1.00
C144   C     0.42739   0.47290   0.83653   0.00000  Uiso   1.00
C145   C     0.47611   0.50214   0.88212   0.00000  Uiso   1.00
C146   C     0.50033   0.58565   0.85690   0.00000  Uiso   1.00
C147   C     0.55578   0.71595   0.84139   0.00000  Uiso   1.00
C148   C     0.46094   0.38858   0.77323   0.00000  Uiso   1.00
C149   C     0.53790   0.34695   0.76559   0.00000  Uiso   1.00
C150   C     0.59039   0.35948   0.68708   0.00000  Uiso   1.00
C151   C     0.69793   0.35886   0.57330   0.00000  Uiso   1.00
C152   C     0.35040   0.48019   0.72735   0.00000  Uiso   1.00
C153   C     0.24016   0.40845   0.79525   0.00000  Uiso   1.00
C154   C     0.12680   0.39376   0.79273   0.00000  Uiso   1.00
C155   C     0.03785   0.32481   0.86109   0.00000  Uiso   1.00
C156   C     0.40370   0.52522   0.76817   0.00000  Uiso   1.00
C157   C     0.42786   0.60871   0.74287   0.00000  Uiso   1.00
C158   C     0.47660   0.63807   0.78842   0.00000  Uiso   1.00
C159   C     0.43725   0.44090   0.70487   0.00000  Uiso   1.00
C160   C     0.48964   0.45351   0.62635   0.00000  Uiso   1.00
C161   C     0.56666   0.41190   0.61860   0.00000  Uiso   1.00
H162   H     0.41247   0.34314   0.90642   0.00000  Uiso   1.00
H163   H     0.19342   0.24673   0.98487   0.00000  Uiso   1.00
H164   H     0.49445   0.46164   0.93501   0.00000  Uiso   1.00
H165   H     0.55621   0.30647   0.81851   0.00000  Uiso   1.00
H166   H     0.94011   0.16292   0.04171   0.00000  Uiso   1.00
H167   H     0.57487   0.61609   0.93656   0.00000  Uiso   1.00
H168   H     0.70514   0.28887   0.69089   0.00000  Uiso   1.00
H169   H     0.33196   0.52092   0.67412   0.00000  Uiso   1.00
H170   H     0.10849   0.43426   0.73982   0.00000  Uiso   1.00
H171   H     0.40952   0.64918   0.68997   0.00000  Uiso   1.00
H172   H     0.47129   0.49400   0.57346   0.00000  Uiso   1.00
H173   H     0.87118   0.31513   0.84282   0.00000  Uiso   1.00
H174   H     0.50595   0.76830   0.73767   0.00000  Uiso   1.00
H175   H     0.63620   0.44108   0.49200   0.00000  Uiso   1.00
O176   O     0.76008   0.17882   0.98969   0.00000  Uiso   1.00
O177   O     0.59289   0.77337   0.85173   0.00000  Uiso   1.00
O178   O     0.76378   0.34406   0.52942   0.00000  Uiso   1.00
N179   N     0.95456   0.21063   0.98588   0.00000  Uiso   1.00
N180   N     0.54801   0.63431   0.88758   0.00000  Uiso   1.00
N181   N     0.66981   0.32841   0.65789   0.00000  Uiso   1.00
N182   N     0.91747   0.29253   0.87886   0.00000  Uiso   1.00
N183   N     0.51092   0.71622   0.78056   0.00000  Uiso   1.00
N184   N     0.63272   0.41031   0.55087   0.00000  Uiso   1.00
C185   C     0.00985   0.76290   0.38371   0.00000  Uiso   1.00
C186   C     0.90737   0.78018   0.35596   0.00000  Uiso   1.00
C187   C     0.88740   0.78053   0.28698   0.00000  Uiso   1.00
C188   C     0.78871   0.79772   0.27219   0.00000  Uiso   1.00
C189   C     0.64110   0.82204   0.22117   0.00000  Uiso   1.00
C190   C     0.95445   0.69086   0.47251   0.00000  Uiso   1.00
C191   C     0.97409   0.61613   0.50152   0.00000  Uiso   1.00
C192   C     0.91504   0.55813   0.58484   0.00000  Uiso   1.00
C193   C     0.84060   0.44381   0.71477   0.00000  Uiso   1.00
C194   C     0.07193   0.83813   0.38872   0.00000  Uiso   1.00
C195   C     0.19035   0.88721   0.34730   0.00000  Uiso   1.00
C196   C     0.23021   0.95320   0.36009   0.00000  Uiso   1.00
C197   C     0.33816   0.06754   0.35993   0.00000  Uiso   1.00
C198   C     0.87007   0.79279   0.48011   0.00000  Uiso   1.00
C199   C     0.83145   0.79641   0.40833   0.00000  Uiso   1.00
C200   C     0.73276   0.81361   0.39363   0.00000  Uiso   1.00
C201   C     0.71265   0.81399   0.32464   0.00000  Uiso   1.00
C202   C     0.87853   0.70709   0.52487   0.00000  Uiso   1.00
C203   C     0.81945   0.64920   0.60817   0.00000  Uiso   1.00
C204   C     0.83898   0.57440   0.63729   0.00000  Uiso   1.00
C205   C     0.99601   0.85437   0.44108   0.00000  Uiso   1.00
C206   C     0.03569   0.92029   0.45395   0.00000  Uiso   1.00
C207   C     0.15415   0.96947   0.41255   0.00000  Uiso   1.00
H208   H     0.06895   0.75025   0.34295   0.00000  Uiso   1.00
H209   H     0.94617   0.76796   0.24648   0.00000  Uiso   1.00
H210   H     0.03286   0.60359   0.46098   0.00000  Uiso   1.00
H211   H     0.24907   0.87463   0.30679   0.00000  Uiso   1.00
H212   H     0.77654   0.79472   0.16263   0.00000  Uiso   1.00
H213   H     0.95935   0.44814   0.61493   0.00000  Uiso   1.00
H214   H     0.41529   0.01969   0.28978   0.00000  Uiso   1.00
H215   H     0.81096   0.80543   0.52088   0.00000  Uiso   1.00
H216   H     0.67402   0.82617   0.43416   0.00000  Uiso   1.00
H217   H     0.76070   0.66179   0.64867   0.00000  Uiso   1.00
H218   H     0.97692   0.93283   0.49447   0.00000  Uiso   1.00
H219   H     0.55565   0.84196   0.31497   0.00000  Uiso   1.00
H220   H     0.73846   0.49537   0.76727   0.00000  Uiso   1.00
H221   H     0.19440   0.06693   0.44211   0.00000  Uiso   1.00
O222   O     0.58064   0.83096   0.17857   0.00000  Uiso   1.00
O223   O     0.82051   0.37626   0.77197   0.00000  Uiso   1.00
O224   O     0.41868   0.12613   0.34536   0.00000  Uiso   1.00
N225   N     0.74336   0.80301   0.21038   0.00000  Uiso   1.00
N226   N     0.91426   0.47897   0.63325   0.00000  Uiso   1.00
N227   N     0.34053   0.01331   0.32927   0.00000  Uiso   1.00
N228   N     0.62450   0.82843   0.29234   0.00000  Uiso   1.00
N229   N     0.79540   0.50439   0.71521   0.00000  Uiso   1.00
N230   N     0.22167   0.03873   0.41124   0.00000  Uiso   1.00
C231   C     0.24825   0.85409   0.76228   0.00000  Uiso   1.00
C232   C     0.12854   0.86465   0.77954   0.00000  Uiso   1.00
C233   C     0.10812   0.93327   0.78013   0.00000  Uiso   1.00
C234   C     0.99230   0.93098   0.79725   0.00000  Uiso   1.00
C235   C     0.82043   0.95782   0.82159   0.00000  Uiso   1.00
C236   C     0.26479   0.83709   0.69016   0.00000  Uiso   1.00
C237   C     0.35894   0.88253   0.61560   0.00000  Uiso   1.00
C238   C     0.35782   0.85702   0.55749   0.00000  Uiso   1.00
C239   C     0.39753   0.84104   0.44307   0.00000  Uiso   1.00
C240   C     0.23534   0.77410   0.83727   0.00000  Uiso   1.00
C241   C     0.30475   0.76657   0.88639   0.00000  Uiso   1.00
C242   C     0.27886   0.68802   0.95213   0.00000  Uiso   1.00
C243   C     0.27284   0.57424   0.06612   0.00000  Uiso   1.00
C244   C     0.07887   0.72798   0.79166   0.00000  Uiso   1.00
C245   C     0.03654   0.79616   0.79550   0.00000  Uiso   1.00
C246   C     0.92072   0.79375   0.81263   0.00000  Uiso   1.00
C247   C     0.90014   0.86236   0.81324   0.00000  Uiso   1.00
C248   C     0.17280   0.76860   0.70611   0.00000  Uiso   1.00
C249   C     0.17154   0.74301   0.64810   0.00000  Uiso   1.00
C250   C     0.26566   0.78841   0.57347   0.00000  Uiso   1.00
C251   C     0.14334   0.70560   0.85323   0.00000  Uiso   1.00
C252   C     0.11735   0.62705   0.91890   0.00000  Uiso   1.00
C253   C     0.18670   0.61941   0.96811   0.00000  Uiso   1.00
H254   H     0.31988   0.90741   0.74985   0.00000  Uiso   1.00
H255   H     0.17935   0.98627   0.76777   0.00000  Uiso   1.00
H256   H     0.43013   0.93553   0.60327   0.00000  Uiso   1.00
H257   H     0.37594   0.81959   0.87402   0.00000  Uiso   1.00
H258   H     0.98297   0.04351   0.79464   0.00000  Uiso   1.00
H259   H     0.51178   0.93650   0.44779   0.00000  Uiso   1.00
H260   H     0.39752   0.69202   0.01873   0.00000  Uiso   1.00
H261   H     0.00724   0.67465   0.80408   0.00000  Uiso   1.00
H262   H     0.84955   0.74074   0.82498   0.00000  Uiso   1.00
H263   H     0.10034   0.69000   0.66047   0.00000  Uiso   1.00
H264   H     0.04615   0.57406   0.93123   0.00000  Uiso   1.00
H265   H     0.71530   0.84423   0.84106   0.00000  Uiso   1.00
H266   H     0.24412   0.73722   0.49422   0.00000  Uiso   1.00
H267   H     0.12985   0.49274   0.06515   0.00000  Uiso   1.00
O268   O     0.75105   0.99155   0.83059   0.00000  Uiso   1.00
O269   O     0.44484   0.85116   0.37555   0.00000  Uiso   1.00
O270   O     0.29492   0.53040   0.12460   0.00000  Uiso   1.00
N271   N     0.94161   0.98753   0.80271   0.00000  Uiso   1.00
N272   N     0.43601   0.88749   0.47843   0.00000  Uiso   1.00
N273   N     0.32921   0.65892   0.01219   0.00000  Uiso   1.00
N274   N     0.79758   0.88030   0.82769   0.00000  Uiso   1.00
N275   N     0.29198   0.78026   0.50341   0.00000  Uiso   1.00
N276   N     0.18517   0.55169   0.03717   0.00000  Uiso   1.00
