data_job_01352
_audit_creation_date              2018-12-19
_audit_creation_method            'Materials Studio'
_symmetry_space_group_name_H-M    'P1'
_symmetry_Int_Tables_number       1
_symmetry_cell_setting            triclinic
loop_
_symmetry_equiv_pos_as_xyz
  x,y,z
_cell_length_a                    18.6372
_cell_length_b                    21.7516
_cell_length_c                    14.0452
_cell_angle_alpha                 90.0000
_cell_angle_beta                  148.2452
_cell_angle_gamma                 90.0000
loop_
_atom_site_label
_atom_site_type_symbol
_atom_site_fract_x
_atom_site_fract_y
_atom_site_fract_z
_atom_site_U_iso_or_equiv
_atom_site_adp_type
_atom_site_occupancy
C1     C     0.92997   0.13043   0.07588   0.00000  Uiso   1.00
C2     C     0.04967   0.10534   0.26830   0.00000  Uiso   1.00
C3     C     0.18640   0.11134   0.39895   0.00000  Uiso   1.00
C4     C     0.28040   0.08513   0.56677   0.00000  Uiso   1.00
C5     C     0.47255   0.05087   0.86010   0.00000  Uiso   1.00
C6     C     0.83853   0.07544   0.95132   0.00000  Uiso   1.00
C7     C     0.79774   0.05630   0.81544   0.00000  Uiso   1.00
C8     C     0.71399   0.00492   0.71641   0.00000  Uiso   1.00
C9     C     0.57826   0.92426   0.51753   0.00000  Uiso   1.00
C10    C     0.84949   0.17130   0.05305   0.00000  Uiso   1.00
C11    C     0.81787   0.23276   0.00265   0.00000  Uiso   1.00
C12    C     0.74332   0.26209   0.98923   0.00000  Uiso   1.00
C13    C     0.62461   0.33029   0.94830   0.00000  Uiso   1.00
C14    C     0.85376   0.07323   0.14161   0.00000  Uiso   1.00
C15    C     0.00827   0.07427   0.30400   0.00000  Uiso   1.00
C16    C     0.10208   0.04805   0.47167   0.00000  Uiso   1.00
C17    C     0.23893   0.05401   0.60255   0.00000  Uiso   1.00
C18    C     0.79714   0.04437   0.98702   0.00000  Uiso   1.00
C19    C     0.71342   0.99301   0.88816   0.00000  Uiso   1.00
C20    C     0.67252   0.97379   0.75217   0.00000  Uiso   1.00
C21    C     0.80810   0.14024   0.08875   0.00000  Uiso   1.00
C22    C     0.73356   0.16948   0.07539   0.00000  Uiso   1.00
C23    C     0.70184   0.23097   0.02499   0.00000  Uiso   1.00
H24    H     0.96219   0.15462   0.04807   0.00000  Uiso   1.00
H25    H     0.21839   0.13538   0.37126   0.00000  Uiso   1.00
H26    H     0.82978   0.08035   0.78783   0.00000  Uiso   1.00
H27    H     0.84992   0.25679   0.97503   0.00000  Uiso   1.00
H28    H     0.48418   0.10033   0.74530   0.00000  Uiso   1.00
H29    H     0.66473   0.98431   0.51506   0.00000  Uiso   1.00
H30    H     0.70720   0.35637   0.90980   0.00000  Uiso   1.00
H31    H     0.82153   0.04904   0.16940   0.00000  Uiso   1.00
H32    H     0.07002   0.02401   0.49926   0.00000  Uiso   1.00
H33    H     0.68140   0.96898   0.91582   0.00000  Uiso   1.00
H34    H     0.70155   0.14542   0.10302   0.00000  Uiso   1.00
H35    H     0.36376   0.00994   0.84918   0.00000  Uiso   1.00
H36    H     0.54429   0.89392   0.61894   0.00000  Uiso   1.00
H37    H     0.58677   0.26598   0.01369   0.00000  Uiso   1.00
O38    O     0.58997   0.04056   0.01202   0.00000  Uiso   1.00
O39    O     0.51485   0.88836   0.39798   0.00000  Uiso   1.00
O40    O     0.57058   0.37648   0.91588   0.00000  Uiso   1.00
N41    N     0.42174   0.08250   0.72449   0.00000  Uiso   1.00
N42    N     0.65561   0.97403   0.57431   0.00000  Uiso   1.00
N43    N     0.69529   0.32187   0.94331   0.00000  Uiso   1.00
N44    N     0.35694   0.03386   0.78039   0.00000  Uiso   1.00
N45    N     0.59081   0.92539   0.63021   0.00000  Uiso   1.00
N46    N     0.63049   0.27323   0.99921   0.00000  Uiso   1.00
C47    C     0.07003   0.63043   0.42412   0.00000  Uiso   1.00
C48    C     0.95033   0.60534   0.23170   0.00000  Uiso   1.00
C49    C     0.81360   0.61134   0.10105   0.00000  Uiso   1.00
C50    C     0.71960   0.58513   0.93323   0.00000  Uiso   1.00
C51    C     0.52745   0.55087   0.63990   0.00000  Uiso   1.00
C52    C     0.16147   0.57544   0.54868   0.00000  Uiso   1.00
C53    C     0.20226   0.55630   0.68456   0.00000  Uiso   1.00
C54    C     0.28601   0.50492   0.78359   0.00000  Uiso   1.00
C55    C     0.42174   0.42426   0.98247   0.00000  Uiso   1.00
C56    C     0.15051   0.67130   0.44695   0.00000  Uiso   1.00
C57    C     0.18213   0.73276   0.49735   0.00000  Uiso   1.00
C58    C     0.25668   0.76209   0.51077   0.00000  Uiso   1.00
C59    C     0.37539   0.83029   0.55170   0.00000  Uiso   1.00
C60    C     0.14624   0.57323   0.35839   0.00000  Uiso   1.00
C61    C     0.99173   0.57427   0.19600   0.00000  Uiso   1.00
C62    C     0.89792   0.54805   0.02833   0.00000  Uiso   1.00
C63    C     0.76107   0.55401   0.89745   0.00000  Uiso   1.00
C64    C     0.20286   0.54437   0.51298   0.00000  Uiso   1.00
C65    C     0.28658   0.49301   0.61184   0.00000  Uiso   1.00
C66    C     0.32748   0.47379   0.74783   0.00000  Uiso   1.00
C67    C     0.19190   0.64024   0.41125   0.00000  Uiso   1.00
C68    C     0.26644   0.66948   0.42461   0.00000  Uiso   1.00
C69    C     0.29816   0.73097   0.47501   0.00000  Uiso   1.00
H70    H     0.03781   0.65462   0.45193   0.00000  Uiso   1.00
H71    H     0.78161   0.63538   0.12874   0.00000  Uiso   1.00
H72    H     0.17022   0.58035   0.71217   0.00000  Uiso   1.00
H73    H     0.15008   0.75679   0.52497   0.00000  Uiso   1.00
H74    H     0.51582   0.60033   0.75470   0.00000  Uiso   1.00
H75    H     0.33527   0.48431   0.98494   0.00000  Uiso   1.00
H76    H     0.29280   0.85637   0.59020   0.00000  Uiso   1.00
H77    H     0.17847   0.54904   0.33060   0.00000  Uiso   1.00
H78    H     0.92998   0.52401   0.00074   0.00000  Uiso   1.00
H79    H     0.31860   0.46898   0.58418   0.00000  Uiso   1.00
H80    H     0.29845   0.64542   0.39698   0.00000  Uiso   1.00
H81    H     0.63624   0.50994   0.65082   0.00000  Uiso   1.00
H82    H     0.45571   0.39392   0.88106   0.00000  Uiso   1.00
H83    H     0.41323   0.76598   0.48631   0.00000  Uiso   1.00
O84    O     0.41003   0.54056   0.48798   0.00000  Uiso   1.00
O85    O     0.48515   0.38836   0.10202   0.00000  Uiso   1.00
O86    O     0.42942   0.87648   0.58412   0.00000  Uiso   1.00
N87    N     0.57826   0.58250   0.77551   0.00000  Uiso   1.00
N88    N     0.34439   0.47403   0.92569   0.00000  Uiso   1.00
N89    N     0.30471   0.82187   0.55669   0.00000  Uiso   1.00
N90    N     0.64306   0.53386   0.71961   0.00000  Uiso   1.00
N91    N     0.40919   0.42539   0.86979   0.00000  Uiso   1.00
N92    N     0.36951   0.77323   0.50079   0.00000  Uiso   1.00
C93    C     0.07003   0.86957   0.92412   0.00000  Uiso   1.00
C94    C     0.95033   0.89466   0.73170   0.00000  Uiso   1.00
C95    C     0.81360   0.88866   0.60105   0.00000  Uiso   1.00
C96    C     0.71960   0.91487   0.43323   0.00000  Uiso   1.00
C97    C     0.52745   0.94913   0.13990   0.00000  Uiso   1.00
C98    C     0.16147   0.92456   0.04868   0.00000  Uiso   1.00
C99    C     0.20226   0.94370   0.18456   0.00000  Uiso   1.00
C100   C     0.28601   0.99508   0.28359   0.00000  Uiso   1.00
C101   C     0.42174   0.07574   0.48247   0.00000  Uiso   1.00
C102   C     0.15051   0.82870   0.94695   0.00000  Uiso   1.00
C103   C     0.18213   0.76724   0.99735   0.00000  Uiso   1.00
C104   C     0.25668   0.73791   0.01077   0.00000  Uiso   1.00
C105   C     0.37539   0.66971   0.05170   0.00000  Uiso   1.00
C106   C     0.14624   0.92677   0.85839   0.00000  Uiso   1.00
C107   C     0.99173   0.92573   0.69600   0.00000  Uiso   1.00
C108   C     0.89792   0.95195   0.52833   0.00000  Uiso   1.00
C109   C     0.76107   0.94599   0.39745   0.00000  Uiso   1.00
C110   C     0.20286   0.95563   0.01298   0.00000  Uiso   1.00
C111   C     0.28658   0.00699   0.11184   0.00000  Uiso   1.00
C112   C     0.32748   0.02621   0.24783   0.00000  Uiso   1.00
C113   C     0.19190   0.85976   0.91125   0.00000  Uiso   1.00
C114   C     0.26644   0.83052   0.92461   0.00000  Uiso   1.00
C115   C     0.29816   0.76903   0.97501   0.00000  Uiso   1.00
H116   H     0.03781   0.84538   0.95193   0.00000  Uiso   1.00
H117   H     0.78161   0.86462   0.62874   0.00000  Uiso   1.00
H118   H     0.17022   0.91965   0.21217   0.00000  Uiso   1.00
H119   H     0.15008   0.74321   0.02497   0.00000  Uiso   1.00
H120   H     0.51582   0.89967   0.25470   0.00000  Uiso   1.00
H121   H     0.33527   0.01569   0.48494   0.00000  Uiso   1.00
H122   H     0.29280   0.64363   0.09020   0.00000  Uiso   1.00
H123   H     0.17847   0.95096   0.83060   0.00000  Uiso   1.00
H124   H     0.92998   0.97599   0.50074   0.00000  Uiso   1.00
H125   H     0.31860   0.03102   0.08418   0.00000  Uiso   1.00
H126   H     0.29845   0.85458   0.89698   0.00000  Uiso   1.00
H127   H     0.63624   0.99006   0.15082   0.00000  Uiso   1.00
H128   H     0.45571   0.10608   0.38106   0.00000  Uiso   1.00
H129   H     0.41323   0.73402   0.98631   0.00000  Uiso   1.00
O130   O     0.41003   0.95944   0.98798   0.00000  Uiso   1.00
O131   O     0.48515   0.11164   0.60202   0.00000  Uiso   1.00
O132   O     0.42942   0.62352   0.08412   0.00000  Uiso   1.00
N133   N     0.57826   0.91750   0.27551   0.00000  Uiso   1.00
N134   N     0.34439   0.02597   0.42569   0.00000  Uiso   1.00
N135   N     0.30471   0.67813   0.05669   0.00000  Uiso   1.00
N136   N     0.64306   0.96614   0.21961   0.00000  Uiso   1.00
N137   N     0.40919   0.07461   0.36979   0.00000  Uiso   1.00
N138   N     0.36951   0.72677   0.00079   0.00000  Uiso   1.00
C139   C     0.92997   0.36957   0.57588   0.00000  Uiso   1.00
C140   C     0.04967   0.39466   0.76830   0.00000  Uiso   1.00
C141   C     0.18640   0.38866   0.89895   0.00000  Uiso   1.00
C142   C     0.28040   0.41487   0.06677   0.00000  Uiso   1.00
C143   C     0.47255   0.44913   0.36010   0.00000  Uiso   1.00
C144   C     0.83853   0.42456   0.45132   0.00000  Uiso   1.00
C145   C     0.79774   0.44370   0.31544   0.00000  Uiso   1.00
C146   C     0.71399   0.49508   0.21641   0.00000  Uiso   1.00
C147   C     0.57826   0.57574   0.01753   0.00000  Uiso   1.00
C148   C     0.84949   0.32870   0.55305   0.00000  Uiso   1.00
C149   C     0.81787   0.26724   0.50265   0.00000  Uiso   1.00
C150   C     0.74332   0.23791   0.48923   0.00000  Uiso   1.00
C151   C     0.62461   0.16971   0.44830   0.00000  Uiso   1.00
C152   C     0.85376   0.42677   0.64161   0.00000  Uiso   1.00
C153   C     0.00827   0.42573   0.80400   0.00000  Uiso   1.00
C154   C     0.10208   0.45195   0.97167   0.00000  Uiso   1.00
C155   C     0.23893   0.44599   0.10255   0.00000  Uiso   1.00
C156   C     0.79714   0.45563   0.48702   0.00000  Uiso   1.00
C157   C     0.71342   0.50699   0.38816   0.00000  Uiso   1.00
C158   C     0.67252   0.52621   0.25217   0.00000  Uiso   1.00
C159   C     0.80810   0.35976   0.58875   0.00000  Uiso   1.00
C160   C     0.73356   0.33052   0.57539   0.00000  Uiso   1.00
C161   C     0.70184   0.26903   0.52499   0.00000  Uiso   1.00
H162   H     0.96219   0.34538   0.54807   0.00000  Uiso   1.00
H163   H     0.21839   0.36462   0.87126   0.00000  Uiso   1.00
H164   H     0.82978   0.41965   0.28783   0.00000  Uiso   1.00
H165   H     0.84992   0.24321   0.47503   0.00000  Uiso   1.00
H166   H     0.48418   0.39967   0.24530   0.00000  Uiso   1.00
H167   H     0.66473   0.51569   0.01506   0.00000  Uiso   1.00
H168   H     0.70720   0.14363   0.40980   0.00000  Uiso   1.00
H169   H     0.82153   0.45096   0.66940   0.00000  Uiso   1.00
H170   H     0.07002   0.47599   0.99926   0.00000  Uiso   1.00
H171   H     0.68140   0.53102   0.41582   0.00000  Uiso   1.00
H172   H     0.70155   0.35458   0.60302   0.00000  Uiso   1.00
H173   H     0.36376   0.49006   0.34918   0.00000  Uiso   1.00
H174   H     0.54429   0.60608   0.11894   0.00000  Uiso   1.00
H175   H     0.58677   0.23402   0.51369   0.00000  Uiso   1.00
O176   O     0.58997   0.45944   0.51202   0.00000  Uiso   1.00
O177   O     0.51485   0.61164   0.89798   0.00000  Uiso   1.00
O178   O     0.57058   0.12352   0.41588   0.00000  Uiso   1.00
N179   N     0.42174   0.41750   0.22449   0.00000  Uiso   1.00
N180   N     0.65561   0.52597   0.07431   0.00000  Uiso   1.00
N181   N     0.69529   0.17813   0.44331   0.00000  Uiso   1.00
N182   N     0.35694   0.46614   0.28039   0.00000  Uiso   1.00
N183   N     0.59081   0.57461   0.13021   0.00000  Uiso   1.00
N184   N     0.63049   0.22677   0.49921   0.00000  Uiso   1.00
