data_job_04399
_audit_creation_date              2018-12-19
_audit_creation_method            'Materials Studio'
_symmetry_space_group_name_H-M    'P1'
_symmetry_Int_Tables_number       1
_symmetry_cell_setting            triclinic
loop_
_symmetry_equiv_pos_as_xyz
  x,y,z
_cell_length_a                    7.1474
_cell_length_b                    13.7437
_cell_length_c                    15.4562
_cell_angle_alpha                 90.0000
_cell_angle_beta                  130.3184
_cell_angle_gamma                 90.0000
loop_
_atom_site_label
_atom_site_type_symbol
_atom_site_fract_x
_atom_site_fract_y
_atom_site_fract_z
_atom_site_U_iso_or_equiv
_atom_site_adp_type
_atom_site_occupancy
C1     C     0.66227   0.79920   0.11991   0.00000  Uiso   1.00
C2     C     0.56397   0.89075   0.13414   0.00000  Uiso   1.00
C3     C     0.63813   0.98532   0.13878   0.00000  Uiso   1.00
C4     C     0.52601   0.05910   0.15216   0.00000  Uiso   1.00
C5     C     0.40081   0.20433   0.17304   0.00000  Uiso   1.00
C6     C     0.75651   0.73414   0.22080   0.00000  Uiso   1.00
C7     C     0.99255   0.69702   0.29829   0.00000  Uiso   1.00
C8     C     0.04249   0.63895   0.38460   0.00000  Uiso   1.00
C9     C     0.21617   0.54098   0.53996   0.00000  Uiso   1.00
C10    C     0.43953   0.74725   0.01542   0.00000  Uiso   1.00
C11    C     0.40905   0.72112   0.92024   0.00000  Uiso   1.00
C12    C     0.19213   0.67408   0.83365   0.00000  Uiso   1.00
C13    C     0.87364   0.59646   0.67013   0.00000  Uiso   1.00
C14    C     0.33128   0.76207   0.13540   0.00000  Uiso   1.00
C15    C     0.38419   0.87059   0.14256   0.00000  Uiso   1.00
C16    C     0.27192   0.94424   0.15593   0.00000  Uiso   1.00
C17    C     0.34589   0.03890   0.16059   0.00000  Uiso   1.00
C18    C     0.57674   0.71398   0.22921   0.00000  Uiso   1.00
C19    C     0.62634   0.65595   0.31543   0.00000  Uiso   1.00
C20    C     0.86239   0.61875   0.39303   0.00000  Uiso   1.00
C21    C     0.25974   0.72709   0.02383   0.00000  Uiso   1.00
C22    C     0.04284   0.68006   0.93738   0.00000  Uiso   1.00
C23    C     0.01203   0.65387   0.84208   0.00000  Uiso   1.00
H24    H     0.80225   0.81489   0.11336   0.00000  Uiso   1.00
H25    H     0.77728   0.00089   0.13228   0.00000  Uiso   1.00
H26    H     0.13163   0.71263   0.29174   0.00000  Uiso   1.00
H27    H     0.54822   0.73674   0.91376   0.00000  Uiso   1.00
H28    H     0.67038   0.19821   0.15700   0.00000  Uiso   1.00
H29    H     0.41752   0.59037   0.49323   0.00000  Uiso   1.00
H30    H     0.18729   0.64121   0.69616   0.00000  Uiso   1.00
H31    H     0.19131   0.74637   0.14196   0.00000  Uiso   1.00
H32    H     0.13280   0.92862   0.16244   0.00000  Uiso   1.00
H33    H     0.48717   0.64035   0.32191   0.00000  Uiso   1.00
H34    H     0.90376   0.66447   0.94392   0.00000  Uiso   1.00
H35    H     0.14731   0.13955   0.18149   0.00000  Uiso   1.00
H36    H     0.89446   0.53170   0.51771   0.00000  Uiso   1.00
H37    H     0.66422   0.58255   0.72065   0.00000  Uiso   1.00
O38    O     0.38144   0.29000   0.18224   0.00000  Uiso   1.00
O39    O     0.36165   0.49252   0.62334   0.00000  Uiso   1.00
O40    O     0.74761   0.55923   0.57761   0.00000  Uiso   1.00
N41    N     0.55526   0.15940   0.15993   0.00000  Uiso   1.00
N42    N     0.25381   0.59111   0.47429   0.00000  Uiso   1.00
N43    N     0.10368   0.63862   0.72912   0.00000  Uiso   1.00
N44    N     0.27380   0.12783   0.17310   0.00000  Uiso   1.00
N45    N     0.97235   0.55955   0.48746   0.00000  Uiso   1.00
N46    N     0.82221   0.60706   0.74229   0.00000  Uiso   1.00
C47    C     0.66227   0.20080   0.61991   0.00000  Uiso   1.00
C48    C     0.56397   0.10925   0.63414   0.00000  Uiso   1.00
C49    C     0.63813   0.01468   0.63878   0.00000  Uiso   1.00
C50    C     0.52601   0.94090   0.65216   0.00000  Uiso   1.00
C51    C     0.40081   0.79567   0.67304   0.00000  Uiso   1.00
C52    C     0.75651   0.26586   0.72080   0.00000  Uiso   1.00
C53    C     0.99255   0.30298   0.79829   0.00000  Uiso   1.00
C54    C     0.04249   0.36105   0.88460   0.00000  Uiso   1.00
C55    C     0.21617   0.45902   0.03996   0.00000  Uiso   1.00
C56    C     0.43953   0.25275   0.51542   0.00000  Uiso   1.00
C57    C     0.40905   0.27888   0.42024   0.00000  Uiso   1.00
C58    C     0.19213   0.32592   0.33365   0.00000  Uiso   1.00
C59    C     0.87364   0.40354   0.17013   0.00000  Uiso   1.00
C60    C     0.33128   0.23793   0.63540   0.00000  Uiso   1.00
C61    C     0.38419   0.12941   0.64256   0.00000  Uiso   1.00
C62    C     0.27192   0.05576   0.65593   0.00000  Uiso   1.00
C63    C     0.34589   0.96110   0.66059   0.00000  Uiso   1.00
C64    C     0.57674   0.28602   0.72921   0.00000  Uiso   1.00
C65    C     0.62634   0.34405   0.81543   0.00000  Uiso   1.00
C66    C     0.86239   0.38125   0.89303   0.00000  Uiso   1.00
C67    C     0.25974   0.27291   0.52383   0.00000  Uiso   1.00
C68    C     0.04284   0.31994   0.43738   0.00000  Uiso   1.00
C69    C     0.01203   0.34613   0.34208   0.00000  Uiso   1.00
H70    H     0.80225   0.18511   0.61336   0.00000  Uiso   1.00
H71    H     0.77728   0.99911   0.63228   0.00000  Uiso   1.00
H72    H     0.13163   0.28737   0.79174   0.00000  Uiso   1.00
H73    H     0.54822   0.26326   0.41376   0.00000  Uiso   1.00
H74    H     0.67038   0.80179   0.65700   0.00000  Uiso   1.00
H75    H     0.41752   0.40963   0.99323   0.00000  Uiso   1.00
H76    H     0.18729   0.35879   0.19616   0.00000  Uiso   1.00
H77    H     0.19131   0.25363   0.64196   0.00000  Uiso   1.00
H78    H     0.13280   0.07138   0.66244   0.00000  Uiso   1.00
H79    H     0.48717   0.35965   0.82191   0.00000  Uiso   1.00
H80    H     0.90376   0.33553   0.44392   0.00000  Uiso   1.00
H81    H     0.14731   0.86045   0.68149   0.00000  Uiso   1.00
H82    H     0.89446   0.46830   0.01771   0.00000  Uiso   1.00
H83    H     0.66422   0.41745   0.22065   0.00000  Uiso   1.00
O84    O     0.38144   0.71000   0.68224   0.00000  Uiso   1.00
O85    O     0.36165   0.50748   0.12334   0.00000  Uiso   1.00
O86    O     0.74761   0.44077   0.07761   0.00000  Uiso   1.00
N87    N     0.55526   0.84060   0.65993   0.00000  Uiso   1.00
N88    N     0.25381   0.40889   0.97429   0.00000  Uiso   1.00
N89    N     0.10368   0.36138   0.22912   0.00000  Uiso   1.00
N90    N     0.27380   0.87217   0.67310   0.00000  Uiso   1.00
N91    N     0.97235   0.44045   0.98746   0.00000  Uiso   1.00
N92    N     0.82221   0.39294   0.24229   0.00000  Uiso   1.00
