data_job_03871
_audit_creation_date              2018-12-19
_audit_creation_method            'Materials Studio'
_symmetry_space_group_name_H-M    'P1'
_symmetry_Int_Tables_number       1
_symmetry_cell_setting            triclinic
loop_
_symmetry_equiv_pos_as_xyz
  x,y,z
_cell_length_a                    15.3732
_cell_length_b                    17.4095
_cell_length_c                    18.9543
_cell_angle_alpha                 90.0000
_cell_angle_beta                  90.0000
_cell_angle_gamma                 90.0000
loop_
_atom_site_label
_atom_site_type_symbol
_atom_site_fract_x
_atom_site_fract_y
_atom_site_fract_z
_atom_site_U_iso_or_equiv
_atom_site_adp_type
_atom_site_occupancy
C1     C     0.74259   0.81135   0.26268   0.00000  Uiso   1.00
C2     C     0.71167   0.75066   0.31498   0.00000  Uiso   1.00
C3     C     0.71895   0.75501   0.38785   0.00000  Uiso   1.00
C4     C     0.68671   0.69352   0.42647   0.00000  Uiso   1.00
C5     C     0.64455   0.60892   0.51272   0.00000  Uiso   1.00
C6     C     0.80478   0.77038   0.21256   0.00000  Uiso   1.00
C7     C     0.89034   0.79132   0.19930   0.00000  Uiso   1.00
C8     C     0.93646   0.74644   0.15169   0.00000  Uiso   1.00
C9     C     0.03883   0.69249   0.07890   0.00000  Uiso   1.00
C10    C     0.66319   0.83288   0.21869   0.00000  Uiso   1.00
C11    C     0.62972   0.90639   0.21057   0.00000  Uiso   1.00
C12    C     0.55665   0.91413   0.16811   0.00000  Uiso   1.00
C13    C     0.43919   0.95722   0.10483   0.00000  Uiso   1.00
C14    C     0.67236   0.69440   0.20168   0.00000  Uiso   1.00
C15    C     0.67353   0.68713   0.28185   0.00000  Uiso   1.00
C16    C     0.64126   0.62562   0.32037   0.00000  Uiso   1.00
C17    C     0.64849   0.62988   0.39328   0.00000  Uiso   1.00
C18    C     0.76664   0.70686   0.17943   0.00000  Uiso   1.00
C19    C     0.81264   0.66193   0.13182   0.00000  Uiso   1.00
C20    C     0.89825   0.68280   0.11850   0.00000  Uiso   1.00
C21    C     0.62505   0.76936   0.18556   0.00000  Uiso   1.00
C22    C     0.55202   0.77699   0.14309   0.00000  Uiso   1.00
C23    C     0.51844   0.85049   0.13492   0.00000  Uiso   1.00
H24    H     0.77229   0.86081   0.28847   0.00000  Uiso   1.00
H25    H     0.74849   0.80418   0.41347   0.00000  Uiso   1.00
H26    H     0.91983   0.84049   0.22495   0.00000  Uiso   1.00
H27    H     0.65925   0.95553   0.23622   0.00000  Uiso   1.00
H28    H     0.70530   0.71337   0.53744   0.00000  Uiso   1.00
H29    H     0.06659   0.78994   0.13992   0.00000  Uiso   1.00
H30    H     0.51711   0.03253   0.16368   0.00000  Uiso   1.00
H31    H     0.64267   0.64495   0.17589   0.00000  Uiso   1.00
H32    H     0.61175   0.57647   0.29471   0.00000  Uiso   1.00
H33    H     0.78310   0.61278   0.10619   0.00000  Uiso   1.00
H34    H     0.52252   0.72782   0.11746   0.00000  Uiso   1.00
H35    H     0.59433   0.52855   0.44106   0.00000  Uiso   1.00
H36    H     0.95562   0.60513   0.04353   0.00000  Uiso   1.00
H37    H     0.40613   0.84771   0.06730   0.00000  Uiso   1.00
O38    O     0.63184   0.57979   0.56945   0.00000  Uiso   1.00
O39    O     0.10583   0.68027   0.04790   0.00000  Uiso   1.00
O40    O     0.38493   0.99854   0.07909   0.00000  Uiso   1.00
N41    N     0.68341   0.67927   0.49845   0.00000  Uiso   1.00
N42    N     0.02120   0.75086   0.12680   0.00000  Uiso   1.00
N43    N     0.50750   0.97766   0.14900   0.00000  Uiso   1.00
N44    N     0.62369   0.57982   0.44659   0.00000  Uiso   1.00
N45    N     0.96148   0.65141   0.07493   0.00000  Uiso   1.00
N46    N     0.44778   0.87821   0.09714   0.00000  Uiso   1.00
C47    C     0.24259   0.31135   0.26268   0.00000  Uiso   1.00
C48    C     0.21167   0.25066   0.31498   0.00000  Uiso   1.00
C49    C     0.21895   0.25501   0.38785   0.00000  Uiso   1.00
C50    C     0.18671   0.19352   0.42647   0.00000  Uiso   1.00
C51    C     0.14455   0.10892   0.51272   0.00000  Uiso   1.00
C52    C     0.30478   0.27038   0.21256   0.00000  Uiso   1.00
C53    C     0.39034   0.29132   0.19930   0.00000  Uiso   1.00
C54    C     0.43646   0.24644   0.15169   0.00000  Uiso   1.00
C55    C     0.53883   0.19249   0.07890   0.00000  Uiso   1.00
C56    C     0.16319   0.33288   0.21869   0.00000  Uiso   1.00
C57    C     0.12972   0.40639   0.21057   0.00000  Uiso   1.00
C58    C     0.05665   0.41413   0.16811   0.00000  Uiso   1.00
C59    C     0.93919   0.45722   0.10483   0.00000  Uiso   1.00
C60    C     0.17236   0.19440   0.20168   0.00000  Uiso   1.00
C61    C     0.17353   0.18713   0.28185   0.00000  Uiso   1.00
C62    C     0.14126   0.12562   0.32037   0.00000  Uiso   1.00
C63    C     0.14849   0.12988   0.39328   0.00000  Uiso   1.00
C64    C     0.26664   0.20686   0.17943   0.00000  Uiso   1.00
C65    C     0.31264   0.16193   0.13182   0.00000  Uiso   1.00
C66    C     0.39825   0.18280   0.11850   0.00000  Uiso   1.00
C67    C     0.12505   0.26936   0.18556   0.00000  Uiso   1.00
C68    C     0.05202   0.27699   0.14309   0.00000  Uiso   1.00
C69    C     0.01844   0.35049   0.13492   0.00000  Uiso   1.00
H70    H     0.27229   0.36081   0.28847   0.00000  Uiso   1.00
H71    H     0.24849   0.30418   0.41347   0.00000  Uiso   1.00
H72    H     0.41983   0.34049   0.22495   0.00000  Uiso   1.00
H73    H     0.15925   0.45553   0.23622   0.00000  Uiso   1.00
H74    H     0.20530   0.21337   0.53744   0.00000  Uiso   1.00
H75    H     0.56659   0.28994   0.13992   0.00000  Uiso   1.00
H76    H     0.01711   0.53253   0.16368   0.00000  Uiso   1.00
H77    H     0.14267   0.14495   0.17589   0.00000  Uiso   1.00
H78    H     0.11175   0.07647   0.29471   0.00000  Uiso   1.00
H79    H     0.28310   0.11278   0.10619   0.00000  Uiso   1.00
H80    H     0.02252   0.22782   0.11746   0.00000  Uiso   1.00
H81    H     0.09433   0.02855   0.44106   0.00000  Uiso   1.00
H82    H     0.45562   0.10513   0.04353   0.00000  Uiso   1.00
H83    H     0.90613   0.34771   0.06730   0.00000  Uiso   1.00
O84    O     0.13184   0.07979   0.56945   0.00000  Uiso   1.00
O85    O     0.60583   0.18027   0.04790   0.00000  Uiso   1.00
O86    O     0.88493   0.49854   0.07909   0.00000  Uiso   1.00
N87    N     0.18341   0.17927   0.49845   0.00000  Uiso   1.00
N88    N     0.52120   0.25086   0.12680   0.00000  Uiso   1.00
N89    N     0.00750   0.47766   0.14900   0.00000  Uiso   1.00
N90    N     0.12369   0.07982   0.44659   0.00000  Uiso   1.00
N91    N     0.46148   0.15141   0.07493   0.00000  Uiso   1.00
N92    N     0.94778   0.37821   0.09714   0.00000  Uiso   1.00
C93    C     0.25741   0.18865   0.76268   0.00000  Uiso   1.00
C94    C     0.28833   0.24934   0.81498   0.00000  Uiso   1.00
C95    C     0.28105   0.24499   0.88785   0.00000  Uiso   1.00
C96    C     0.31329   0.30648   0.92647   0.00000  Uiso   1.00
C97    C     0.35545   0.39108   0.01272   0.00000  Uiso   1.00
C98    C     0.19522   0.22962   0.71256   0.00000  Uiso   1.00
C99    C     0.10966   0.20868   0.69930   0.00000  Uiso   1.00
C100   C     0.06354   0.25356   0.65169   0.00000  Uiso   1.00
C101   C     0.96117   0.30751   0.57890   0.00000  Uiso   1.00
C102   C     0.33681   0.16712   0.71869   0.00000  Uiso   1.00
C103   C     0.37028   0.09361   0.71057   0.00000  Uiso   1.00
C104   C     0.44335   0.08587   0.66811   0.00000  Uiso   1.00
C105   C     0.56081   0.04278   0.60483   0.00000  Uiso   1.00
C106   C     0.32764   0.30560   0.70168   0.00000  Uiso   1.00
C107   C     0.32647   0.31287   0.78185   0.00000  Uiso   1.00
C108   C     0.35874   0.37438   0.82037   0.00000  Uiso   1.00
C109   C     0.35151   0.37012   0.89328   0.00000  Uiso   1.00
C110   C     0.23336   0.29314   0.67943   0.00000  Uiso   1.00
C111   C     0.18736   0.33807   0.63182   0.00000  Uiso   1.00
C112   C     0.10175   0.31720   0.61850   0.00000  Uiso   1.00
C113   C     0.37495   0.23064   0.68556   0.00000  Uiso   1.00
C114   C     0.44798   0.22301   0.64309   0.00000  Uiso   1.00
C115   C     0.48156   0.14951   0.63492   0.00000  Uiso   1.00
H116   H     0.22771   0.13919   0.78847   0.00000  Uiso   1.00
H117   H     0.25151   0.19582   0.91347   0.00000  Uiso   1.00
H118   H     0.08017   0.15951   0.72495   0.00000  Uiso   1.00
H119   H     0.34075   0.04447   0.73622   0.00000  Uiso   1.00
H120   H     0.29470   0.28663   0.03744   0.00000  Uiso   1.00
H121   H     0.93341   0.21006   0.63992   0.00000  Uiso   1.00
H122   H     0.48289   0.96747   0.66368   0.00000  Uiso   1.00
H123   H     0.35733   0.35505   0.67589   0.00000  Uiso   1.00
H124   H     0.38825   0.42353   0.79471   0.00000  Uiso   1.00
H125   H     0.21690   0.38722   0.60619   0.00000  Uiso   1.00
H126   H     0.47748   0.27218   0.61746   0.00000  Uiso   1.00
H127   H     0.40567   0.47145   0.94106   0.00000  Uiso   1.00
H128   H     0.04438   0.39487   0.54353   0.00000  Uiso   1.00
H129   H     0.59387   0.15229   0.56730   0.00000  Uiso   1.00
O130   O     0.36816   0.42021   0.06945   0.00000  Uiso   1.00
O131   O     0.89417   0.31973   0.54790   0.00000  Uiso   1.00
O132   O     0.61507   0.00146   0.57909   0.00000  Uiso   1.00
N133   N     0.31659   0.32073   0.99845   0.00000  Uiso   1.00
N134   N     0.97880   0.24914   0.62680   0.00000  Uiso   1.00
N135   N     0.49250   0.02234   0.64900   0.00000  Uiso   1.00
N136   N     0.37631   0.42018   0.94659   0.00000  Uiso   1.00
N137   N     0.03852   0.34859   0.57493   0.00000  Uiso   1.00
N138   N     0.55222   0.12179   0.59714   0.00000  Uiso   1.00
C139   C     0.75741   0.68865   0.76268   0.00000  Uiso   1.00
C140   C     0.78833   0.74934   0.81498   0.00000  Uiso   1.00
C141   C     0.78105   0.74499   0.88785   0.00000  Uiso   1.00
C142   C     0.81329   0.80648   0.92647   0.00000  Uiso   1.00
C143   C     0.85545   0.89108   0.01272   0.00000  Uiso   1.00
C144   C     0.69522   0.72962   0.71256   0.00000  Uiso   1.00
C145   C     0.60966   0.70868   0.69930   0.00000  Uiso   1.00
C146   C     0.56354   0.75356   0.65169   0.00000  Uiso   1.00
C147   C     0.46117   0.80751   0.57890   0.00000  Uiso   1.00
C148   C     0.83681   0.66712   0.71869   0.00000  Uiso   1.00
C149   C     0.87028   0.59361   0.71057   0.00000  Uiso   1.00
C150   C     0.94335   0.58587   0.66811   0.00000  Uiso   1.00
C151   C     0.06081   0.54278   0.60483   0.00000  Uiso   1.00
C152   C     0.82764   0.80560   0.70168   0.00000  Uiso   1.00
C153   C     0.82647   0.81287   0.78185   0.00000  Uiso   1.00
C154   C     0.85874   0.87438   0.82037   0.00000  Uiso   1.00
C155   C     0.85151   0.87012   0.89328   0.00000  Uiso   1.00
C156   C     0.73336   0.79314   0.67943   0.00000  Uiso   1.00
C157   C     0.68736   0.83807   0.63182   0.00000  Uiso   1.00
C158   C     0.60175   0.81720   0.61850   0.00000  Uiso   1.00
C159   C     0.87495   0.73064   0.68556   0.00000  Uiso   1.00
C160   C     0.94798   0.72301   0.64309   0.00000  Uiso   1.00
C161   C     0.98156   0.64951   0.63492   0.00000  Uiso   1.00
H162   H     0.72771   0.63919   0.78847   0.00000  Uiso   1.00
H163   H     0.75151   0.69582   0.91347   0.00000  Uiso   1.00
H164   H     0.58017   0.65951   0.72495   0.00000  Uiso   1.00
H165   H     0.84075   0.54447   0.73622   0.00000  Uiso   1.00
H166   H     0.79470   0.78663   0.03744   0.00000  Uiso   1.00
H167   H     0.43341   0.71006   0.63992   0.00000  Uiso   1.00
H168   H     0.98289   0.46747   0.66368   0.00000  Uiso   1.00
H169   H     0.85733   0.85505   0.67589   0.00000  Uiso   1.00
H170   H     0.88825   0.92353   0.79471   0.00000  Uiso   1.00
H171   H     0.71690   0.88722   0.60619   0.00000  Uiso   1.00
H172   H     0.97748   0.77218   0.61746   0.00000  Uiso   1.00
H173   H     0.90567   0.97145   0.94106   0.00000  Uiso   1.00
H174   H     0.54438   0.89487   0.54353   0.00000  Uiso   1.00
H175   H     0.09387   0.65229   0.56730   0.00000  Uiso   1.00
O176   O     0.86816   0.92021   0.06945   0.00000  Uiso   1.00
O177   O     0.39417   0.81973   0.54790   0.00000  Uiso   1.00
O178   O     0.11507   0.50146   0.57909   0.00000  Uiso   1.00
N179   N     0.81659   0.82073   0.99845   0.00000  Uiso   1.00
N180   N     0.47880   0.74914   0.62680   0.00000  Uiso   1.00
N181   N     0.99250   0.52234   0.64900   0.00000  Uiso   1.00
N182   N     0.87631   0.92018   0.94659   0.00000  Uiso   1.00
N183   N     0.53852   0.84859   0.57493   0.00000  Uiso   1.00
N184   N     0.05222   0.62179   0.59714   0.00000  Uiso   1.00
C185   C     0.25741   0.81135   0.23732   0.00000  Uiso   1.00
C186   C     0.28833   0.75066   0.18502   0.00000  Uiso   1.00
C187   C     0.28105   0.75501   0.11215   0.00000  Uiso   1.00
C188   C     0.31329   0.69352   0.07353   0.00000  Uiso   1.00
C189   C     0.35545   0.60892   0.98728   0.00000  Uiso   1.00
C190   C     0.19522   0.77038   0.28744   0.00000  Uiso   1.00
C191   C     0.10966   0.79132   0.30070   0.00000  Uiso   1.00
C192   C     0.06354   0.74644   0.34831   0.00000  Uiso   1.00
C193   C     0.96117   0.69249   0.42110   0.00000  Uiso   1.00
C194   C     0.33681   0.83288   0.28131   0.00000  Uiso   1.00
C195   C     0.37028   0.90639   0.28943   0.00000  Uiso   1.00
C196   C     0.44335   0.91413   0.33189   0.00000  Uiso   1.00
C197   C     0.56081   0.95722   0.39517   0.00000  Uiso   1.00
C198   C     0.32764   0.69440   0.29832   0.00000  Uiso   1.00
C199   C     0.32647   0.68713   0.21815   0.00000  Uiso   1.00
C200   C     0.35874   0.62562   0.17963   0.00000  Uiso   1.00
C201   C     0.35151   0.62988   0.10672   0.00000  Uiso   1.00
C202   C     0.23336   0.70686   0.32057   0.00000  Uiso   1.00
C203   C     0.18736   0.66193   0.36818   0.00000  Uiso   1.00
C204   C     0.10175   0.68280   0.38150   0.00000  Uiso   1.00
C205   C     0.37495   0.76936   0.31444   0.00000  Uiso   1.00
C206   C     0.44798   0.77699   0.35691   0.00000  Uiso   1.00
C207   C     0.48156   0.85049   0.36508   0.00000  Uiso   1.00
H208   H     0.22771   0.86081   0.21153   0.00000  Uiso   1.00
H209   H     0.25151   0.80418   0.08653   0.00000  Uiso   1.00
H210   H     0.08017   0.84049   0.27505   0.00000  Uiso   1.00
H211   H     0.34075   0.95553   0.26378   0.00000  Uiso   1.00
H212   H     0.29470   0.71337   0.96256   0.00000  Uiso   1.00
H213   H     0.93341   0.78994   0.36008   0.00000  Uiso   1.00
H214   H     0.48289   0.03253   0.33632   0.00000  Uiso   1.00
H215   H     0.35733   0.64495   0.32411   0.00000  Uiso   1.00
H216   H     0.38825   0.57647   0.20529   0.00000  Uiso   1.00
H217   H     0.21690   0.61278   0.39381   0.00000  Uiso   1.00
H218   H     0.47748   0.72782   0.38254   0.00000  Uiso   1.00
H219   H     0.40567   0.52855   0.05894   0.00000  Uiso   1.00
H220   H     0.04438   0.60513   0.45647   0.00000  Uiso   1.00
H221   H     0.59387   0.84771   0.43270   0.00000  Uiso   1.00
O222   O     0.36816   0.57979   0.93055   0.00000  Uiso   1.00
O223   O     0.89417   0.68027   0.45210   0.00000  Uiso   1.00
O224   O     0.61507   0.99854   0.42091   0.00000  Uiso   1.00
N225   N     0.31659   0.67927   0.00155   0.00000  Uiso   1.00
N226   N     0.97880   0.75086   0.37320   0.00000  Uiso   1.00
N227   N     0.49250   0.97766   0.35100   0.00000  Uiso   1.00
N228   N     0.37631   0.57982   0.05341   0.00000  Uiso   1.00
N229   N     0.03852   0.65141   0.42507   0.00000  Uiso   1.00
N230   N     0.55222   0.87821   0.40286   0.00000  Uiso   1.00
C231   C     0.75741   0.31135   0.23732   0.00000  Uiso   1.00
C232   C     0.78833   0.25066   0.18502   0.00000  Uiso   1.00
C233   C     0.78105   0.25501   0.11215   0.00000  Uiso   1.00
C234   C     0.81329   0.19352   0.07353   0.00000  Uiso   1.00
C235   C     0.85545   0.10892   0.98728   0.00000  Uiso   1.00
C236   C     0.69522   0.27038   0.28744   0.00000  Uiso   1.00
C237   C     0.60966   0.29132   0.30070   0.00000  Uiso   1.00
C238   C     0.56354   0.24644   0.34831   0.00000  Uiso   1.00
C239   C     0.46117   0.19249   0.42110   0.00000  Uiso   1.00
C240   C     0.83681   0.33288   0.28131   0.00000  Uiso   1.00
C241   C     0.87028   0.40639   0.28943   0.00000  Uiso   1.00
C242   C     0.94335   0.41413   0.33189   0.00000  Uiso   1.00
C243   C     0.06081   0.45722   0.39517   0.00000  Uiso   1.00
C244   C     0.82764   0.19440   0.29832   0.00000  Uiso   1.00
C245   C     0.82647   0.18713   0.21815   0.00000  Uiso   1.00
C246   C     0.85874   0.12562   0.17963   0.00000  Uiso   1.00
C247   C     0.85151   0.12988   0.10672   0.00000  Uiso   1.00
C248   C     0.73336   0.20686   0.32057   0.00000  Uiso   1.00
C249   C     0.68736   0.16193   0.36818   0.00000  Uiso   1.00
C250   C     0.60175   0.18280   0.38150   0.00000  Uiso   1.00
C251   C     0.87495   0.26936   0.31444   0.00000  Uiso   1.00
C252   C     0.94798   0.27699   0.35691   0.00000  Uiso   1.00
C253   C     0.98156   0.35049   0.36508   0.00000  Uiso   1.00
H254   H     0.72771   0.36081   0.21153   0.00000  Uiso   1.00
H255   H     0.75151   0.30418   0.08653   0.00000  Uiso   1.00
H256   H     0.58017   0.34049   0.27505   0.00000  Uiso   1.00
H257   H     0.84075   0.45553   0.26378   0.00000  Uiso   1.00
H258   H     0.79470   0.21337   0.96256   0.00000  Uiso   1.00
H259   H     0.43341   0.28994   0.36008   0.00000  Uiso   1.00
H260   H     0.98289   0.53253   0.33632   0.00000  Uiso   1.00
H261   H     0.85733   0.14495   0.32411   0.00000  Uiso   1.00
H262   H     0.88825   0.07647   0.20529   0.00000  Uiso   1.00
H263   H     0.71690   0.11278   0.39381   0.00000  Uiso   1.00
H264   H     0.97748   0.22782   0.38254   0.00000  Uiso   1.00
H265   H     0.90567   0.02855   0.05894   0.00000  Uiso   1.00
H266   H     0.54438   0.10513   0.45647   0.00000  Uiso   1.00
H267   H     0.09387   0.34771   0.43270   0.00000  Uiso   1.00
O268   O     0.86816   0.07979   0.93055   0.00000  Uiso   1.00
O269   O     0.39417   0.18027   0.45210   0.00000  Uiso   1.00
O270   O     0.11507   0.49854   0.42091   0.00000  Uiso   1.00
N271   N     0.81659   0.17927   0.00155   0.00000  Uiso   1.00
N272   N     0.47880   0.25086   0.37320   0.00000  Uiso   1.00
N273   N     0.99250   0.47766   0.35100   0.00000  Uiso   1.00
N274   N     0.87631   0.07982   0.05341   0.00000  Uiso   1.00
N275   N     0.53852   0.15141   0.42507   0.00000  Uiso   1.00
N276   N     0.05222   0.37821   0.40286   0.00000  Uiso   1.00
C277   C     0.74259   0.18865   0.73732   0.00000  Uiso   1.00
C278   C     0.71167   0.24934   0.68502   0.00000  Uiso   1.00
C279   C     0.71895   0.24499   0.61215   0.00000  Uiso   1.00
C280   C     0.68671   0.30648   0.57353   0.00000  Uiso   1.00
C281   C     0.64455   0.39108   0.48728   0.00000  Uiso   1.00
C282   C     0.80478   0.22962   0.78744   0.00000  Uiso   1.00
C283   C     0.89034   0.20868   0.80070   0.00000  Uiso   1.00
C284   C     0.93646   0.25356   0.84831   0.00000  Uiso   1.00
C285   C     0.03883   0.30751   0.92110   0.00000  Uiso   1.00
C286   C     0.66319   0.16712   0.78131   0.00000  Uiso   1.00
C287   C     0.62972   0.09361   0.78943   0.00000  Uiso   1.00
C288   C     0.55665   0.08587   0.83189   0.00000  Uiso   1.00
C289   C     0.43919   0.04278   0.89517   0.00000  Uiso   1.00
C290   C     0.67236   0.30560   0.79832   0.00000  Uiso   1.00
C291   C     0.67353   0.31287   0.71815   0.00000  Uiso   1.00
C292   C     0.64126   0.37438   0.67963   0.00000  Uiso   1.00
C293   C     0.64849   0.37012   0.60672   0.00000  Uiso   1.00
C294   C     0.76664   0.29314   0.82057   0.00000  Uiso   1.00
C295   C     0.81264   0.33807   0.86818   0.00000  Uiso   1.00
C296   C     0.89825   0.31720   0.88150   0.00000  Uiso   1.00
C297   C     0.62505   0.23064   0.81444   0.00000  Uiso   1.00
C298   C     0.55202   0.22301   0.85691   0.00000  Uiso   1.00
C299   C     0.51844   0.14951   0.86508   0.00000  Uiso   1.00
H300   H     0.77229   0.13919   0.71153   0.00000  Uiso   1.00
H301   H     0.74849   0.19582   0.58653   0.00000  Uiso   1.00
H302   H     0.91983   0.15951   0.77505   0.00000  Uiso   1.00
H303   H     0.65925   0.04447   0.76378   0.00000  Uiso   1.00
H304   H     0.70530   0.28663   0.46256   0.00000  Uiso   1.00
H305   H     0.06659   0.21006   0.86008   0.00000  Uiso   1.00
H306   H     0.51711   0.96747   0.83632   0.00000  Uiso   1.00
H307   H     0.64267   0.35505   0.82411   0.00000  Uiso   1.00
H308   H     0.61175   0.42353   0.70529   0.00000  Uiso   1.00
H309   H     0.78310   0.38722   0.89381   0.00000  Uiso   1.00
H310   H     0.52252   0.27218   0.88254   0.00000  Uiso   1.00
H311   H     0.59433   0.47145   0.55894   0.00000  Uiso   1.00
H312   H     0.95562   0.39487   0.95647   0.00000  Uiso   1.00
H313   H     0.40613   0.15229   0.93270   0.00000  Uiso   1.00
O314   O     0.63184   0.42021   0.43055   0.00000  Uiso   1.00
O315   O     0.10583   0.31973   0.95210   0.00000  Uiso   1.00
O316   O     0.38493   0.00146   0.92091   0.00000  Uiso   1.00
N317   N     0.68341   0.32073   0.50155   0.00000  Uiso   1.00
N318   N     0.02120   0.24914   0.87320   0.00000  Uiso   1.00
N319   N     0.50750   0.02234   0.85100   0.00000  Uiso   1.00
N320   N     0.62369   0.42018   0.55341   0.00000  Uiso   1.00
N321   N     0.96148   0.34859   0.92507   0.00000  Uiso   1.00
N322   N     0.44778   0.12179   0.90286   0.00000  Uiso   1.00
C323   C     0.24259   0.68865   0.73732   0.00000  Uiso   1.00
C324   C     0.21167   0.74934   0.68502   0.00000  Uiso   1.00
C325   C     0.21895   0.74499   0.61215   0.00000  Uiso   1.00
C326   C     0.18671   0.80648   0.57353   0.00000  Uiso   1.00
C327   C     0.14455   0.89108   0.48728   0.00000  Uiso   1.00
C328   C     0.30478   0.72962   0.78744   0.00000  Uiso   1.00
C329   C     0.39034   0.70868   0.80070   0.00000  Uiso   1.00
C330   C     0.43646   0.75356   0.84831   0.00000  Uiso   1.00
C331   C     0.53883   0.80751   0.92110   0.00000  Uiso   1.00
C332   C     0.16319   0.66712   0.78131   0.00000  Uiso   1.00
C333   C     0.12972   0.59361   0.78943   0.00000  Uiso   1.00
C334   C     0.05665   0.58587   0.83189   0.00000  Uiso   1.00
C335   C     0.93919   0.54278   0.89517   0.00000  Uiso   1.00
C336   C     0.17236   0.80560   0.79832   0.00000  Uiso   1.00
C337   C     0.17353   0.81287   0.71815   0.00000  Uiso   1.00
C338   C     0.14126   0.87438   0.67963   0.00000  Uiso   1.00
C339   C     0.14849   0.87012   0.60672   0.00000  Uiso   1.00
C340   C     0.26664   0.79314   0.82057   0.00000  Uiso   1.00
C341   C     0.31264   0.83807   0.86818   0.00000  Uiso   1.00
C342   C     0.39825   0.81720   0.88150   0.00000  Uiso   1.00
C343   C     0.12505   0.73064   0.81444   0.00000  Uiso   1.00
C344   C     0.05202   0.72301   0.85691   0.00000  Uiso   1.00
C345   C     0.01844   0.64951   0.86508   0.00000  Uiso   1.00
H346   H     0.27229   0.63919   0.71153   0.00000  Uiso   1.00
H347   H     0.24849   0.69582   0.58653   0.00000  Uiso   1.00
H348   H     0.41983   0.65951   0.77505   0.00000  Uiso   1.00
H349   H     0.15925   0.54447   0.76378   0.00000  Uiso   1.00
H350   H     0.20530   0.78663   0.46256   0.00000  Uiso   1.00
H351   H     0.56659   0.71006   0.86008   0.00000  Uiso   1.00
H352   H     0.01711   0.46747   0.83632   0.00000  Uiso   1.00
H353   H     0.14267   0.85505   0.82411   0.00000  Uiso   1.00
H354   H     0.11175   0.92353   0.70529   0.00000  Uiso   1.00
H355   H     0.28310   0.88722   0.89381   0.00000  Uiso   1.00
H356   H     0.02252   0.77218   0.88254   0.00000  Uiso   1.00
H357   H     0.09433   0.97145   0.55894   0.00000  Uiso   1.00
H358   H     0.45562   0.89487   0.95647   0.00000  Uiso   1.00
H359   H     0.90613   0.65229   0.93270   0.00000  Uiso   1.00
O360   O     0.13184   0.92021   0.43055   0.00000  Uiso   1.00
O361   O     0.60583   0.81973   0.95210   0.00000  Uiso   1.00
O362   O     0.88493   0.50146   0.92091   0.00000  Uiso   1.00
N363   N     0.18341   0.82073   0.50155   0.00000  Uiso   1.00
N364   N     0.52120   0.74914   0.87320   0.00000  Uiso   1.00
N365   N     0.00750   0.52234   0.85100   0.00000  Uiso   1.00
N366   N     0.12369   0.92018   0.55341   0.00000  Uiso   1.00
N367   N     0.46148   0.84859   0.92507   0.00000  Uiso   1.00
N368   N     0.94778   0.62179   0.90286   0.00000  Uiso   1.00
