data_job_07064
_audit_creation_date              2018-12-19
_audit_creation_method            'Materials Studio'
_symmetry_space_group_name_H-M    'P1'
_symmetry_Int_Tables_number       1
_symmetry_cell_setting            triclinic
loop_
_symmetry_equiv_pos_as_xyz
  x,y,z
_cell_length_a                    20.4036
_cell_length_b                    23.1070
_cell_length_c                    22.7045
_cell_angle_alpha                 76.1029
_cell_angle_beta                  86.2632
_cell_angle_gamma                 76.0918
loop_
_atom_site_label
_atom_site_type_symbol
_atom_site_fract_x
_atom_site_fract_y
_atom_site_fract_z
_atom_site_U_iso_or_equiv
_atom_site_adp_type
_atom_site_occupancy
C1     C     0.57660   0.22946   0.25883   0.00000  Uiso   1.00
C2     C     0.52246   0.25329   0.21002   0.00000  Uiso   1.00
C3     C     0.45389   0.25673   0.21955   0.00000  Uiso   1.00
C4     C     0.41264   0.27989   0.16898   0.00000  Uiso   1.00
C5     C     0.32456   0.31396   0.10201   0.00000  Uiso   1.00
C6     C     0.62815   0.17801   0.23871   0.00000  Uiso   1.00
C7     C     0.64845   0.11817   0.27237   0.00000  Uiso   1.00
C8     C     0.69617   0.07796   0.24594   0.00000  Uiso   1.00
C9     C     0.77221   0.99518   0.22353   0.00000  Uiso   1.00
C10    C     0.61254   0.28107   0.25459   0.00000  Uiso   1.00
C11    C     0.61973   0.30787   0.30160   0.00000  Uiso   1.00
C12    C     0.65433   0.35442   0.28856   0.00000  Uiso   1.00
C13    C     0.70613   0.43165   0.29080   0.00000  Uiso   1.00
C14    C     0.62527   0.26447   0.15206   0.00000  Uiso   1.00
C15    C     0.54890   0.27230   0.15203   0.00000  Uiso   1.00
C16    C     0.50774   0.29546   0.10142   0.00000  Uiso   1.00
C17    C     0.43912   0.29894   0.11088   0.00000  Uiso   1.00
C18    C     0.65459   0.19703   0.18072   0.00000  Uiso   1.00
C19    C     0.70229   0.15690   0.15424   0.00000  Uiso   1.00
C20    C     0.72265   0.09701   0.18785   0.00000  Uiso   1.00
C21    C     0.63898   0.30009   0.19659   0.00000  Uiso   1.00
C22    C     0.67357   0.34661   0.18347   0.00000  Uiso   1.00
C23    C     0.68081   0.37347   0.23046   0.00000  Uiso   1.00
H24    H     0.55602   0.21465   0.30398   0.00000  Uiso   1.00
H25    H     0.43346   0.24200   0.26444   0.00000  Uiso   1.00
H26    H     0.62798   0.10347   0.31725   0.00000  Uiso   1.00
H27    H     0.59927   0.29314   0.34648   0.00000  Uiso   1.00
H28    H     0.30923   0.28069   0.19503   0.00000  Uiso   1.00
H29    H     0.71942   0.98858   0.30638   0.00000  Uiso   1.00
H30    H     0.65887   0.38854   0.36802   0.00000  Uiso   1.00
H31    H     0.64585   0.27928   0.10690   0.00000  Uiso   1.00
H32    H     0.52821   0.31018   0.05655   0.00000  Uiso   1.00
H33    H     0.72274   0.17164   0.10936   0.00000  Uiso   1.00
H34    H     0.69402   0.36131   0.13859   0.00000  Uiso   1.00
H35    H     0.38614   0.33602   0.02630   0.00000  Uiso   1.00
H36    H     0.79633   0.04391   0.13765   0.00000  Uiso   1.00
H37    H     0.73578   0.44387   0.19929   0.00000  Uiso   1.00
O38    O     0.26868   0.32749   0.08109   0.00000  Uiso   1.00
O39    O     0.80684   0.94427   0.22719   0.00000  Uiso   1.00
O40    O     0.72739   0.46901   0.30806   0.00000  Uiso   1.00
N41    N     0.34347   0.28948   0.16223   0.00000  Uiso   1.00
N42    N     0.72697   0.01638   0.26633   0.00000  Uiso   1.00
N43    N     0.67037   0.39030   0.32397   0.00000  Uiso   1.00
N44    N     0.38485   0.31925   0.07144   0.00000  Uiso   1.00
N45    N     0.76835   0.04615   0.17554   0.00000  Uiso   1.00
N46    N     0.71176   0.42007   0.23317   0.00000  Uiso   1.00
C47    C     0.44997   0.58212   0.23691   0.00000  Uiso   1.00
C48    C     0.40051   0.54072   0.24454   0.00000  Uiso   1.00
C49    C     0.41682   0.47951   0.24191   0.00000  Uiso   1.00
C50    C     0.36433   0.44961   0.25002   0.00000  Uiso   1.00
C51    C     0.29762   0.38072   0.26025   0.00000  Uiso   1.00
C52    C     0.42279   0.63696   0.18517   0.00000  Uiso   1.00
C53    C     0.45783   0.65668   0.13263   0.00000  Uiso   1.00
C54    C     0.42409   0.70780   0.09077   0.00000  Uiso   1.00
C55    C     0.39199   0.78836   0.00885   0.00000  Uiso   1.00
C56    C     0.44285   0.60687   0.29408   0.00000  Uiso   1.00
C57    C     0.49477   0.60131   0.33312   0.00000  Uiso   1.00
C58    C     0.47792   0.62710   0.38294   0.00000  Uiso   1.00
C59    C     0.47697   0.66094   0.47013   0.00000  Uiso   1.00
C60    C     0.32775   0.63784   0.25598   0.00000  Uiso   1.00
C61    C     0.33412   0.57098   0.25489   0.00000  Uiso   1.00
C62    C     0.28159   0.54116   0.26301   0.00000  Uiso   1.00
C63    C     0.29782   0.47992   0.26039   0.00000  Uiso   1.00
C64    C     0.35640   0.66722   0.19553   0.00000  Uiso   1.00
C65    C     0.32260   0.71833   0.15373   0.00000  Uiso   1.00
C66    C     0.35758   0.73812   0.10114   0.00000  Uiso   1.00
C67    C     0.37646   0.63713   0.30444   0.00000  Uiso   1.00
C68    C     0.35954   0.66295   0.35421   0.00000  Uiso   1.00
C69    C     0.41142   0.65742   0.39331   0.00000  Uiso   1.00
H70    H     0.50166   0.55856   0.22885   0.00000  Uiso   1.00
H71    H     0.46820   0.45611   0.23389   0.00000  Uiso   1.00
H72    H     0.50921   0.63326   0.12463   0.00000  Uiso   1.00
H73    H     0.54613   0.57788   0.32509   0.00000  Uiso   1.00
H74    H     0.40183   0.35588   0.24403   0.00000  Uiso   1.00
H75    H     0.48830   0.72941   0.01366   0.00000  Uiso   1.00
H76    H     0.56617   0.61265   0.43636   0.00000  Uiso   1.00
H77    H     0.27606   0.66140   0.26404   0.00000  Uiso   1.00
H78    H     0.23022   0.56459   0.27102   0.00000  Uiso   1.00
H79    H     0.27123   0.74174   0.16176   0.00000  Uiso   1.00
H80    H     0.30816   0.68637   0.36221   0.00000  Uiso   1.00
H81    H     0.20868   0.44393   0.27416   0.00000  Uiso   1.00
H82    H     0.29515   0.81746   0.04380   0.00000  Uiso   1.00
H83    H     0.37302   0.70070   0.46649   0.00000  Uiso   1.00
O84    O     0.27917   0.33437   0.26303   0.00000  Uiso   1.00
O85    O     0.39262   0.82444   0.96081   0.00000  Uiso   1.00
O86    O     0.49479   0.67124   0.51537   0.00000  Uiso   1.00
N87    N     0.36266   0.38988   0.25018   0.00000  Uiso   1.00
N88    N     0.44351   0.73911   0.03479   0.00000  Uiso   1.00
N89    N     0.51631   0.62996   0.42997   0.00000  Uiso   1.00
N90    N     0.25873   0.43726   0.26639   0.00000  Uiso   1.00
N91    N     0.33957   0.78649   0.05101   0.00000  Uiso   1.00
N92    N     0.41238   0.67734   0.44618   0.00000  Uiso   1.00
C93    C     0.25242   0.31486   0.56224   0.00000  Uiso   1.00
C94    C     0.28203   0.27207   0.52057   0.00000  Uiso   1.00
C95    C     0.27949   0.28753   0.45767   0.00000  Uiso   1.00
C96    C     0.30955   0.24186   0.42781   0.00000  Uiso   1.00
C97    C     0.35070   0.18437   0.35825   0.00000  Uiso   1.00
C98    C     0.20422   0.28350   0.60530   0.00000  Uiso   1.00
C99    C     0.13627   0.30857   0.61364   0.00000  Uiso   1.00
C100   C     0.10083   0.27252   0.65512   0.00000  Uiso   1.00
C101   C     0.02120   0.23279   0.71714   0.00000  Uiso   1.00
C102   C     0.31068   0.31460   0.60117   0.00000  Uiso   1.00
C103   C     0.33223   0.36582   0.60605   0.00000  Uiso   1.00
C104   C     0.38642   0.35596   0.64407   0.00000  Uiso   1.00
C105   C     0.47208   0.36452   0.69967   0.00000  Uiso   1.00
C106   C     0.31031   0.20626   0.62109   0.00000  Uiso   1.00
C107   C     0.31347   0.21308   0.55254   0.00000  Uiso   1.00
C108   C     0.34354   0.16738   0.52277   0.00000  Uiso   1.00
C109   C     0.34105   0.18276   0.45983   0.00000  Uiso   1.00
C110   C     0.23566   0.22451   0.63727   0.00000  Uiso   1.00
C111   C     0.20032   0.18842   0.67875   0.00000  Uiso   1.00
C112   C     0.13233   0.21342   0.68714   0.00000  Uiso   1.00
C113   C     0.34213   0.25561   0.63313   0.00000  Uiso   1.00
C114   C     0.39628   0.24567   0.67115   0.00000  Uiso   1.00
C115   C     0.41792   0.29686   0.67609   0.00000  Uiso   1.00
H116   H     0.22794   0.36079   0.53736   0.00000  Uiso   1.00
H117   H     0.25515   0.33318   0.43295   0.00000  Uiso   1.00
H118   H     0.11195   0.35422   0.58891   0.00000  Uiso   1.00
H119   H     0.30789   0.41146   0.58131   0.00000  Uiso   1.00
H120   H     0.29916   0.27656   0.33128   0.00000  Uiso   1.00
H121   H     0.99722   0.32092   0.66015   0.00000  Uiso   1.00
H122   H     0.41039   0.44163   0.64413   0.00000  Uiso   1.00
H123   H     0.33479   0.16034   0.64597   0.00000  Uiso   1.00
H124   H     0.36787   0.12173   0.54752   0.00000  Uiso   1.00
H125   H     0.22467   0.14277   0.70348   0.00000  Uiso   1.00
H126   H     0.42060   0.20001   0.69588   0.00000  Uiso   1.00
H127   H     0.39064   0.10493   0.42427   0.00000  Uiso   1.00
H128   H     0.08871   0.14931   0.75314   0.00000  Uiso   1.00
H129   H     0.50188   0.27001   0.73712   0.00000  Uiso   1.00
O130   O     0.36471   0.16896   0.31105   0.00000  Uiso   1.00
O131   O     0.96859   0.22718   0.74252   0.00000  Uiso   1.00
O132   O     0.51066   0.38554   0.72150   0.00000  Uiso   1.00
N133   N     0.31616   0.24147   0.36668   0.00000  Uiso   1.00
N134   N     0.03387   0.28295   0.67414   0.00000  Uiso   1.00
N135   N     0.42014   0.39580   0.65918   0.00000  Uiso   1.00
N136   N     0.36539   0.14912   0.41672   0.00000  Uiso   1.00
N137   N     0.08310   0.19060   0.72418   0.00000  Uiso   1.00
N138   N     0.46936   0.30345   0.70922   0.00000  Uiso   1.00
C139   C     0.12031   0.78638   0.77074   0.00000  Uiso   1.00
C140   C     0.10730   0.72830   0.81348   0.00000  Uiso   1.00
C141   C     0.04445   0.71548   0.82852   0.00000  Uiso   1.00
C142   C     0.04322   0.65983   0.86841   0.00000  Uiso   1.00
C143   C     0.01396   0.57591   0.93110   0.00000  Uiso   1.00
C144   C     0.16844   0.76521   0.72182   0.00000  Uiso   1.00
C145   C     0.15699   0.78344   0.65978   0.00000  Uiso   1.00
C146   C     0.20724   0.75886   0.62251   0.00000  Uiso   1.00
C147   C     0.27292   0.73228   0.54289   0.00000  Uiso   1.00
C148   C     0.16030   0.81353   0.80715   0.00000  Uiso   1.00
C149   C     0.14203   0.87237   0.81685   0.00000  Uiso   1.00
C150   C     0.18544   0.88848   0.85141   0.00000  Uiso   1.00
C151   C     0.23849   0.93691   0.90427   0.00000  Uiso   1.00
C152   C     0.22990   0.71035   0.81484   0.00000  Uiso   1.00
C153   C     0.16682   0.68700   0.83743   0.00000  Uiso   1.00
C154   C     0.16570   0.63135   0.87731   0.00000  Uiso   1.00
C155   C     0.10285   0.61845   0.89241   0.00000  Uiso   1.00
C156   C     0.22796   0.72392   0.74577   0.00000  Uiso   1.00
C157   C     0.27824   0.69931   0.70857   0.00000  Uiso   1.00
C158   C     0.26687   0.71748   0.64650   0.00000  Uiso   1.00
C159   C     0.21983   0.77223   0.83110   0.00000  Uiso   1.00
C160   C     0.26328   0.78824   0.86564   0.00000  Uiso   1.00
C161   C     0.24508   0.84710   0.87540   0.00000  Uiso   1.00
H162   H     0.07397   0.81854   0.75209   0.00000  Uiso   1.00
H163   H     0.99839   0.74745   0.80997   0.00000  Uiso   1.00
H164   H     0.11092   0.81540   0.64126   0.00000  Uiso   1.00
H165   H     0.09596   0.90432   0.79831   0.00000  Uiso   1.00
H166   H     0.94085   0.65042   0.88468   0.00000  Uiso   1.00
H167   H     0.17814   0.79371   0.52895   0.00000  Uiso   1.00
H168   H     0.14659   0.98121   0.86011   0.00000  Uiso   1.00
H169   H     0.27625   0.67819   0.83349   0.00000  Uiso   1.00
H170   H     0.21177   0.59940   0.89584   0.00000  Uiso   1.00
H171   H     0.32430   0.66735   0.72713   0.00000  Uiso   1.00
H172   H     0.30934   0.75627   0.88417   0.00000  Uiso   1.00
H173   H     0.11404   0.53025   0.95437   0.00000  Uiso   1.00
H174   H     0.35133   0.67355   0.59864   0.00000  Uiso   1.00
H175   H     0.31978   0.86105   0.92980   0.00000  Uiso   1.00
O176   O     0.98138   0.54103   0.95906   0.00000  Uiso   1.00
O177   O     0.29270   0.72903   0.49235   0.00000  Uiso   1.00
O178   O     0.25131   0.97503   0.92683   0.00000  Uiso   1.00
N179   N     0.99046   0.63295   0.89254   0.00000  Uiso   1.00
N180   N     0.21231   0.76691   0.55995   0.00000  Uiso   1.00
N181   N     0.18282   0.94222   0.86954   0.00000  Uiso   1.00
N182   N     0.08365   0.56830   0.93004   0.00000  Uiso   1.00
N183   N     0.30550   0.70226   0.59745   0.00000  Uiso   1.00
N184   N     0.27601   0.87757   0.90704   0.00000  Uiso   1.00
C185   C     0.81239   0.76604   0.98453   0.00000  Uiso   1.00
C186   C     0.74632   0.80564   0.95535   0.00000  Uiso   1.00
C187   C     0.73459   0.82671   0.89350   0.00000  Uiso   1.00
C188   C     0.67075   0.86233   0.87593   0.00000  Uiso   1.00
C189   C     0.57581   0.92167   0.82410   0.00000  Uiso   1.00
C190   C     0.79477   0.70908   0.02560   0.00000  Uiso   1.00
C191   C     0.82376   0.64896   0.02282   0.00000  Uiso   1.00
C192   C     0.80071   0.60329   0.06440   0.00000  Uiso   1.00
C193   C     0.78101   0.51271   0.12167   0.00000  Uiso   1.00
C194   C     0.83269   0.80108   0.02663   0.00000  Uiso   1.00
C195   C     0.89358   0.81829   0.02473   0.00000  Uiso   1.00
C196   C     0.90246   0.85008   0.06718   0.00000  Uiso   1.00
C197   C     0.94164   0.90233   0.12606   0.00000  Uiso   1.00
C198   C     0.71990   0.79185   0.06332   0.00000  Uiso   1.00
C199   C     0.69609   0.81966   0.99815   0.00000  Uiso   1.00
C200   C     0.63226   0.85526   0.98066   0.00000  Uiso   1.00
C201   C     0.62043   0.87638   0.91879   0.00000  Uiso   1.00
C202   C     0.74453   0.72309   0.06839   0.00000  Uiso   1.00
C203   C     0.72144   0.67751   0.10999   0.00000  Uiso   1.00
C204   C     0.75039   0.61733   0.10727   0.00000  Uiso   1.00
C205   C     0.78245   0.81509   0.06943   0.00000  Uiso   1.00
C206   C     0.79125   0.84685   0.11189   0.00000  Uiso   1.00
C207   C     0.85214   0.86411   0.11005   0.00000  Uiso   1.00
H208   H     0.85150   0.75512   0.95122   0.00000  Uiso   1.00
H209   H     0.77347   0.81585   0.86040   0.00000  Uiso   1.00
H210   H     0.86264   0.63813   0.98971   0.00000  Uiso   1.00
H211   H     0.93244   0.80744   0.99161   0.00000  Uiso   1.00
H212   H     0.66481   0.88933   0.77857   0.00000  Uiso   1.00
H213   H     0.85284   0.51460   0.05124   0.00000  Uiso   1.00
H214   H     0.00003   0.87163   0.05526   0.00000  Uiso   1.00
H215   H     0.68079   0.80276   0.09663   0.00000  Uiso   1.00
H216   H     0.59339   0.86610   0.01379   0.00000  Uiso   1.00
H217   H     0.68256   0.68837   0.14310   0.00000  Uiso   1.00
H218   H     0.75236   0.85769   0.14500   0.00000  Uiso   1.00
H219   H     0.51865   0.93012   0.90307   0.00000  Uiso   1.00
H220   H     0.70668   0.55537   0.17574   0.00000  Uiso   1.00
H221   H     0.85387   0.91241   0.17976   0.00000  Uiso   1.00
O222   O     0.53731   0.95052   0.78370   0.00000  Uiso   1.00
O223   O     0.78401   0.45887   0.14143   0.00000  Uiso   1.00
O224   O     0.97712   0.92729   0.14670   0.00000  Uiso   1.00
N225   N     0.64241   0.89025   0.81924   0.00000  Uiso   1.00
N226   N     0.81820   0.53989   0.07416   0.00000  Uiso   1.00
N227   N     0.95581   0.87367   0.07793   0.00000  Uiso   1.00
N228   N     0.56376   0.91220   0.88623   0.00000  Uiso   1.00
N229   N     0.73955   0.56184   0.14116   0.00000  Uiso   1.00
N230   N     0.87717   0.89562   0.14492   0.00000  Uiso   1.00
C231   C     0.84129   0.96535   0.71841   0.00000  Uiso   1.00
C232   C     0.88740   0.95426   0.66465   0.00000  Uiso   1.00
C233   C     0.92117   0.89742   0.65525   0.00000  Uiso   1.00
C234   C     0.96091   0.89699   0.60327   0.00000  Uiso   1.00
C235   C     0.03161   0.87148   0.52602   0.00000  Uiso   1.00
C236   C     0.77362   0.00357   0.69145   0.00000  Uiso   1.00
C237   C     0.71172   0.98819   0.70460   0.00000  Uiso   1.00
C238   C     0.65569   0.02928   0.67519   0.00000  Uiso   1.00
C239   C     0.54973   0.08034   0.63959   0.00000  Uiso   1.00
C240   C     0.87007   0.00697   0.74731   0.00000  Uiso   1.00
C241   C     0.88926   0.99445   0.80744   0.00000  Uiso   1.00
C242   C     0.91441   0.03841   0.82506   0.00000  Uiso   1.00
C243   C     0.95821   0.09475   0.87620   0.00000  Uiso   1.00
C244   C     0.85183   0.06568   0.64280   0.00000  Uiso   1.00
C245   C     0.89312   0.00876   0.62358   0.00000  Uiso   1.00
C246   C     0.93283   0.00842   0.57160   0.00000  Uiso   1.00
C247   C     0.96665   0.95158   0.56213   0.00000  Uiso   1.00
C248   C     0.77934   0.05806   0.65038   0.00000  Uiso   1.00
C249   C     0.72338   0.09919   0.62095   0.00000  Uiso   1.00
C250   C     0.66142   0.08387   0.63405   0.00000  Uiso   1.00
C251   C     0.87580   0.06146   0.70625   0.00000  Uiso   1.00
C252   C     0.90092   0.10545   0.72378   0.00000  Uiso   1.00
C253   C     0.92014   0.09300   0.78392   0.00000  Uiso   1.00
H254   H     0.83683   0.92292   0.75038   0.00000  Uiso   1.00
H255   H     0.91672   0.85525   0.68704   0.00000  Uiso   1.00
H256   H     0.70731   0.94601   0.73639   0.00000  Uiso   1.00
H257   H     0.88482   0.95228   0.83921   0.00000  Uiso   1.00
H258   H     0.00780   0.80426   0.59869   0.00000  Uiso   1.00
H259   H     0.56624   0.99564   0.70276   0.00000  Uiso   1.00
H260   H     0.94055   0.00885   0.91958   0.00000  Uiso   1.00
H261   H     0.85628   0.10811   0.61082   0.00000  Uiso   1.00
H262   H     0.93725   0.05060   0.53982   0.00000  Uiso   1.00
H263   H     0.72783   0.14136   0.58917   0.00000  Uiso   1.00
H264   H     0.90534   0.14762   0.69199   0.00000  Uiso   1.00
H265   H     0.02445   0.96281   0.47920   0.00000  Uiso   1.00
H266   H     0.58289   0.15419   0.58327   0.00000  Uiso   1.00
H267   H     0.95720   0.16740   0.80009   0.00000  Uiso   1.00
O268   O     0.06902   0.84236   0.49475   0.00000  Uiso   1.00
O269   O     0.48971   0.09345   0.63129   0.00000  Uiso   1.00
O270   O     0.98079   0.11077   0.91575   0.00000  Uiso   1.00
N271   N     0.00062   0.84947   0.58032   0.00000  Uiso   1.00
N272   N     0.58779   0.02839   0.67761   0.00000  Uiso   1.00
N273   N     0.93772   0.04075   0.88032   0.00000  Uiso   1.00
N274   N     0.00958   0.93478   0.51603   0.00000  Uiso   1.00
N275   N     0.59675   0.11371   0.61332   0.00000  Uiso   1.00
N276   N     0.94668   0.12606   0.81602   0.00000  Uiso   1.00
C277   C     0.55252   0.77272   0.69948   0.00000  Uiso   1.00
C278   C     0.60801   0.74972   0.74705   0.00000  Uiso   1.00
C279   C     0.67572   0.74990   0.73637   0.00000  Uiso   1.00
C280   C     0.71849   0.72690   0.78593   0.00000  Uiso   1.00
C281   C     0.80831   0.69462   0.85096   0.00000  Uiso   1.00
C282   C     0.49903   0.82109   0.72225   0.00000  Uiso   1.00
C283   C     0.47510   0.88127   0.69071   0.00000  Uiso   1.00
C284   C     0.42612   0.91834   0.71939   0.00000  Uiso   1.00
C285   C     0.34671   0.99685   0.74590   0.00000  Uiso   1.00
C286   C     0.52006   0.71912   0.70246   0.00000  Uiso   1.00
C287   C     0.51380   0.69358   0.65428   0.00000  Uiso   1.00
C288   C     0.48251   0.64480   0.66629   0.00000  Uiso   1.00
C289   C     0.43577   0.56498   0.66207   0.00000  Uiso   1.00
C290   C     0.50808   0.73152   0.80648   0.00000  Uiso   1.00
C291   C     0.58387   0.72734   0.80517   0.00000  Uiso   1.00
C292   C     0.62655   0.70433   0.85476   0.00000  Uiso   1.00
C293   C     0.69430   0.70448   0.84415   0.00000  Uiso   1.00
C294   C     0.47489   0.79871   0.78037   0.00000  Uiso   1.00
C295   C     0.42593   0.83570   0.80910   0.00000  Uiso   1.00
C296   C     0.40193   0.89592   0.77761   0.00000  Uiso   1.00
C297   C     0.49592   0.69674   0.76058   0.00000  Uiso   1.00
C298   C     0.46463   0.64799   0.77267   0.00000  Uiso   1.00
C299   C     0.45833   0.62238   0.72451   0.00000  Uiso   1.00
H300   H     0.57131   0.79014   0.65423   0.00000  Uiso   1.00
H301   H     0.69438   0.76723   0.69139   0.00000  Uiso   1.00
H302   H     0.49379   0.89857   0.64573   0.00000  Uiso   1.00
H303   H     0.53249   0.71090   0.60931   0.00000  Uiso   1.00
H304   H     0.82017   0.73198   0.75822   0.00000  Uiso   1.00
H305   H     0.39719   0.00893   0.66195   0.00000  Uiso   1.00
H306   H     0.47880   0.61319   0.58513   0.00000  Uiso   1.00
H307   H     0.48928   0.71410   0.85173   0.00000  Uiso   1.00
H308   H     0.60785   0.68701   0.89973   0.00000  Uiso   1.00
H309   H     0.40726   0.81836   0.85407   0.00000  Uiso   1.00
H310   H     0.44596   0.63069   0.81765   0.00000  Uiso   1.00
H311   H     0.74994   0.66688   0.92731   0.00000  Uiso   1.00
H312   H     0.32696   0.94382   0.83104   0.00000  Uiso   1.00
H313   H     0.40857   0.54808   0.75423   0.00000  Uiso   1.00
O314   O     0.86453   0.68301   0.87078   0.00000  Uiso   1.00
O315   O     0.30959   0.04634   0.74447   0.00000  Uiso   1.00
O316   O     0.41666   0.52714   0.64370   0.00000  Uiso   1.00
N317   N     0.78737   0.72037   0.79143   0.00000  Uiso   1.00
N318   N     0.39192   0.97930   0.70142   0.00000  Uiso   1.00
N319   N     0.46820   0.60932   0.62960   0.00000  Uiso   1.00
N320   N     0.74958   0.68534   0.88242   0.00000  Uiso   1.00
N321   N     0.35413   0.94426   0.79241   0.00000  Uiso   1.00
N322   N     0.43041   0.57429   0.72059   0.00000  Uiso   1.00
C323   C     0.68216   0.41323   0.71747   0.00000  Uiso   1.00
C324   C     0.72916   0.45690   0.70948   0.00000  Uiso   1.00
C325   C     0.71000   0.51825   0.71141   0.00000  Uiso   1.00
C326   C     0.76056   0.55040   0.70308   0.00000  Uiso   1.00
C327   C     0.82331   0.62251   0.69221   0.00000  Uiso   1.00
C328   C     0.71087   0.35948   0.76971   0.00000  Uiso   1.00
C329   C     0.67631   0.33892   0.82228   0.00000  Uiso   1.00
C330   C     0.71148   0.28906   0.86464   0.00000  Uiso   1.00
C331   C     0.74581   0.20989   0.94726   0.00000  Uiso   1.00
C332   C     0.69136   0.38765   0.66073   0.00000  Uiso   1.00
C333   C     0.64041   0.39076   0.62167   0.00000  Uiso   1.00
C334   C     0.65916   0.36460   0.57228   0.00000  Uiso   1.00
C335   C     0.66320   0.32917   0.48568   0.00000  Uiso   1.00
C336   C     0.80605   0.36121   0.69923   0.00000  Uiso   1.00
C337   C     0.79645   0.42865   0.69957   0.00000  Uiso   1.00
C338   C     0.84706   0.46071   0.69123   0.00000  Uiso   1.00
C339   C     0.82797   0.52210   0.69315   0.00000  Uiso   1.00
C340   C     0.77815   0.33123   0.75981   0.00000  Uiso   1.00
C341   C     0.81338   0.28138   0.80210   0.00000  Uiso   1.00
C342   C     0.77889   0.26075   0.85472   0.00000  Uiso   1.00
C343   C     0.75865   0.35940   0.65082   0.00000  Uiso   1.00
C344   C     0.77748   0.33322   0.60148   0.00000  Uiso   1.00
C345   C     0.72657   0.33630   0.56235   0.00000  Uiso   1.00
H346   H     0.62978   0.43522   0.72519   0.00000  Uiso   1.00
H347   H     0.65792   0.54010   0.71909   0.00000  Uiso   1.00
H348   H     0.62424   0.36079   0.82994   0.00000  Uiso   1.00
H349   H     0.58834   0.41263   0.62935   0.00000  Uiso   1.00
H350   H     0.71879   0.64392   0.70798   0.00000  Uiso   1.00
H351   H     0.64778   0.26582   0.94169   0.00000  Uiso   1.00
H352   H     0.57208   0.37513   0.51872   0.00000  Uiso   1.00
H353   H     0.85844   0.33922   0.69151   0.00000  Uiso   1.00
H354   H     0.89913   0.43883   0.68356   0.00000  Uiso   1.00
H355   H     0.86545   0.25953   0.79441   0.00000  Uiso   1.00
H356   H     0.82955   0.31136   0.59383   0.00000  Uiso   1.00
H357   H     0.91457   0.56173   0.67914   0.00000  Uiso   1.00
H358   H     0.84355   0.18363   0.91286   0.00000  Uiso   1.00
H359   H     0.76786   0.29294   0.48989   0.00000  Uiso   1.00
O360   O     0.83933   0.67008   0.68896   0.00000  Uiso   1.00
O361   O     0.74615   0.17403   0.99558   0.00000  Uiso   1.00
O362   O     0.64684   0.31744   0.44065   0.00000  Uiso   1.00
N363   N     0.75928   0.61090   0.70227   0.00000  Uiso   1.00
N364   N     0.69289   0.25742   0.92078   0.00000  Uiso   1.00
N365   N     0.62212   0.35960   0.52535   0.00000  Uiso   1.00
N366   N     0.86463   0.56668   0.68675   0.00000  Uiso   1.00
N367   N     0.79824   0.21319   0.90527   0.00000  Uiso   1.00
N368   N     0.72747   0.31537   0.50983   0.00000  Uiso   1.00
C369   C     0.85671   0.71933   0.39878   0.00000  Uiso   1.00
C370   C     0.83919   0.75870   0.44527   0.00000  Uiso   1.00
C371   C     0.83794   0.73697   0.50778   0.00000  Uiso   1.00
C372   C     0.82068   0.78039   0.54253   0.00000  Uiso   1.00
C373   C     0.79586   0.83196   0.61881   0.00000  Uiso   1.00
C374   C     0.91498   0.74007   0.36091   0.00000  Uiso   1.00
C375   C     0.97745   0.70267   0.35248   0.00000  Uiso   1.00
C376   C     0.02399   0.73041   0.31622   0.00000  Uiso   1.00
C377   C     0.11683   0.75304   0.26149   0.00000  Uiso   1.00
C378   C     0.79647   0.73855   0.35628   0.00000  Uiso   1.00
C379   C     0.75930   0.69987   0.34394   0.00000  Uiso   1.00
C380   C     0.70607   0.72633   0.30376   0.00000  Uiso   1.00
C381   C     0.61490   0.74661   0.24183   0.00000  Uiso   1.00
C382   C     0.82827   0.83509   0.34935   0.00000  Uiso   1.00
C383   C     0.82375   0.82157   0.41842   0.00000  Uiso   1.00
C384   C     0.80648   0.86504   0.45309   0.00000  Uiso   1.00
C385   C     0.80520   0.84338   0.51564   0.00000  Uiso   1.00
C386   C     0.89954   0.80294   0.33407   0.00000  Uiso   1.00
C387   C     0.94600   0.83074   0.29780   0.00000  Uiso   1.00
C388   C     0.00852   0.79340   0.28932   0.00000  Uiso   1.00
C389   C     0.78102   0.80143   0.32943   0.00000  Uiso   1.00
C390   C     0.72784   0.82795   0.28925   0.00000  Uiso   1.00
C391   C     0.69060   0.78932   0.27686   0.00000  Uiso   1.00
H392   H     0.86873   0.67038   0.41968   0.00000  Uiso   1.00
H393   H     0.84990   0.68831   0.52854   0.00000  Uiso   1.00
H394   H     0.98938   0.65402   0.37326   0.00000  Uiso   1.00
H395   H     0.77127   0.65122   0.36473   0.00000  Uiso   1.00
H396   H     0.82223   0.73592   0.63739   0.00000  Uiso   1.00
H397   H     0.11634   0.66360   0.30997   0.00000  Uiso   1.00
H398   H     0.65640   0.65771   0.29196   0.00000  Uiso   1.00
H399   H     0.81625   0.88404   0.32844   0.00000  Uiso   1.00
H400   H     0.79453   0.91370   0.43230   0.00000  Uiso   1.00
H401   H     0.93403   0.87940   0.27702   0.00000  Uiso   1.00
H402   H     0.71591   0.87661   0.26848   0.00000  Uiso   1.00
H403   H     0.77730   0.91885   0.55928   0.00000  Uiso   1.00
H404   H     0.07141   0.84653   0.23185   0.00000  Uiso   1.00
H405   H     0.61147   0.84064   0.21384   0.00000  Uiso   1.00
O406   O     0.78645   0.84304   0.66830   0.00000  Uiso   1.00
O407   O     0.17230   0.74816   0.23872   0.00000  Uiso   1.00
O408   O     0.56887   0.74043   0.21510   0.00000  Uiso   1.00
N409   N     0.81462   0.77490   0.60475   0.00000  Uiso   1.00
N410   N     0.08960   0.70729   0.29864   0.00000  Uiso   1.00
N411   N     0.65960   0.70178   0.28179   0.00000  Uiso   1.00
N412   N     0.79044   0.87333   0.56272   0.00000  Uiso   1.00
N413   N     0.06542   0.80572   0.25661   0.00000  Uiso   1.00
N414   N     0.63543   0.80021   0.23976   0.00000  Uiso   1.00
C415   C     0.01595   0.20823   0.18165   0.00000  Uiso   1.00
C416   C     0.02696   0.26766   0.14008   0.00000  Uiso   1.00
C417   C     0.08889   0.28268   0.12567   0.00000  Uiso   1.00
C418   C     0.08829   0.33927   0.08684   0.00000  Uiso   1.00
C419   C     0.11458   0.42547   0.02590   0.00000  Uiso   1.00
C420   C     0.96686   0.22708   0.23097   0.00000  Uiso   1.00
C421   C     0.97825   0.20796   0.29299   0.00000  Uiso   1.00
C422   C     0.92705   0.23039   0.33067   0.00000  Uiso   1.00
C423   C     0.86001   0.25355   0.41085   0.00000  Uiso   1.00
C424   C     0.97783   0.18053   0.14418   0.00000  Uiso   1.00
C425   C     0.99842   0.12226   0.13324   0.00000  Uiso   1.00
C426   C     0.95645   0.10549   0.09785   0.00000  Uiso   1.00
C427   C     0.90643   0.05637   0.04328   0.00000  Uiso   1.00
C428   C     0.90477   0.28204   0.13829   0.00000  Uiso   1.00
C429   C     0.96658   0.30775   0.11653   0.00000  Uiso   1.00
C430   C     0.96589   0.36434   0.07771   0.00000  Uiso   1.00
C431   C     0.02780   0.37943   0.06324   0.00000  Uiso   1.00
C432   C     0.90648   0.26717   0.20743   0.00000  Uiso   1.00
C433   C     0.85525   0.28963   0.24502   0.00000  Uiso   1.00
C434   C     0.86656   0.27055   0.30708   0.00000  Uiso   1.00
C435   C     0.91744   0.22062   0.12063   0.00000  Uiso   1.00
C436   C     0.87542   0.20393   0.08527   0.00000  Uiso   1.00
C437   C     0.89595   0.14565   0.07427   0.00000  Uiso   1.00
H438   H     0.06295   0.17702   0.19998   0.00000  Uiso   1.00
H439   H     0.13560   0.25164   0.14391   0.00000  Uiso   1.00
H440   H     0.02498   0.17694   0.31120   0.00000  Uiso   1.00
H441   H     0.04515   0.09125   0.15147   0.00000  Uiso   1.00
H442   H     0.18952   0.35206   0.07137   0.00000  Uiso   1.00
H443   H     0.95625   0.19453   0.42411   0.00000  Uiso   1.00
H444   H     0.99879   0.01385   0.08729   0.00000  Uiso   1.00
H445   H     0.85776   0.31325   0.11996   0.00000  Uiso   1.00
H446   H     0.91915   0.39535   0.05949   0.00000  Uiso   1.00
H447   H     0.80853   0.32065   0.22678   0.00000  Uiso   1.00
H448   H     0.82870   0.23496   0.06705   0.00000  Uiso   1.00
H449   H     0.01384   0.46871   0.00286   0.00000  Uiso   1.00
H450   H     0.78057   0.31117   0.35560   0.00000  Uiso   1.00
H451   H     0.82311   0.13049   0.01878   0.00000  Uiso   1.00
O452   O     0.14576   0.46194   0.99880   0.00000  Uiso   1.00
O453   O     0.83972   0.25525   0.46158   0.00000  Uiso   1.00
O454   O     0.89553   0.01821   0.01967   0.00000  Uiso   1.00
N455   N     0.13975   0.36824   0.06354   0.00000  Uiso   1.00
N456   N     0.92166   0.22096   0.39333   0.00000  Uiso   1.00
N457   N     0.96142   0.05204   0.07844   0.00000  Uiso   1.00
N458   N     0.04521   0.43101   0.02667   0.00000  Uiso   1.00
N459   N     0.82713   0.28373   0.35646   0.00000  Uiso   1.00
N460   N     0.86689   0.11480   0.04157   0.00000  Uiso   1.00
C461   C     0.29499   0.23230   0.98684   0.00000  Uiso   1.00
C462   C     0.35511   0.18985   0.02361   0.00000  Uiso   1.00
C463   C     0.35912   0.17368   0.08644   0.00000  Uiso   1.00
C464   C     0.41847   0.13430   0.11141   0.00000  Uiso   1.00
C465   C     0.50371   0.07182   0.17408   0.00000  Uiso   1.00
C466   C     0.32234   0.28322   0.94440   0.00000  Uiso   1.00
C467   C     0.29879   0.34555   0.94063   0.00000  Uiso   1.00
C468   C     0.33055   0.38477   0.89892   0.00000  Uiso   1.00
C469   C     0.36488   0.46724   0.83857   0.00000  Uiso   1.00
C470   C     0.27485   0.19560   0.94633   0.00000  Uiso   1.00
C471   C     0.21137   0.18427   0.94417   0.00000  Uiso   1.00
C472   C     0.20313   0.14972   0.90408   0.00000  Uiso   1.00
C473   C     0.16374   0.09615   0.84673   0.00000  Uiso   1.00
C474   C     0.39324   0.19111   0.91946   0.00000  Uiso   1.00
C475   C     0.40847   0.16748   0.98701   0.00000  Uiso   1.00
C476   C     0.46783   0.12811   0.01189   0.00000  Uiso   1.00
C477   C     0.47193   0.11188   0.07475   0.00000  Uiso   1.00
C478   C     0.37570   0.26085   0.90780   0.00000  Uiso   1.00
C479   C     0.40750   0.29998   0.86608   0.00000  Uiso   1.00
C480   C     0.38401   0.36235   0.86225   0.00000  Uiso   1.00
C481   C     0.32821   0.17322   0.90973   0.00000  Uiso   1.00
C482   C     0.32007   0.13869   0.86963   0.00000  Uiso   1.00
C483   C     0.25659   0.12731   0.86741   0.00000  Uiso   1.00
H484   H     0.25344   0.24972   0.01533   0.00000  Uiso   1.00
H485   H     0.31781   0.19101   0.11475   0.00000  Uiso   1.00
H486   H     0.25749   0.36285   0.96896   0.00000  Uiso   1.00
H487   H     0.17008   0.20159   0.97250   0.00000  Uiso   1.00
H488   H     0.41273   0.11607   0.20883   0.00000  Uiso   1.00
H489   H     0.28552   0.47841   0.90140   0.00000  Uiso   1.00
H490   H     0.10120   0.13836   0.90888   0.00000  Uiso   1.00
H491   H     0.43479   0.17369   0.89096   0.00000  Uiso   1.00
H492   H     0.50912   0.11080   0.98356   0.00000  Uiso   1.00
H493   H     0.44879   0.28265   0.83776   0.00000  Uiso   1.00
H494   H     0.36138   0.12139   0.84131   0.00000  Uiso   1.00
H495   H     0.56800   0.05098   0.10235   0.00000  Uiso   1.00
H496   H     0.44078   0.41332   0.79492   0.00000  Uiso   1.00
H497   H     0.25647   0.07326   0.80240   0.00000  Uiso   1.00
O498   O     0.53600   0.04355   0.21875   0.00000  Uiso   1.00
O499   O     0.36909   0.51892   0.81541   0.00000  Uiso   1.00
O500   O     0.12727   0.07278   0.82522   0.00000  Uiso   1.00
N501   N     0.43907   0.10937   0.17107   0.00000  Uiso   1.00
N502   N     0.32014   0.44814   0.88364   0.00000  Uiso   1.00
N503   N     0.14781   0.13023   0.89062   0.00000  Uiso   1.00
N504   N     0.52261   0.07434   0.11377   0.00000  Uiso   1.00
N505   N     0.40368   0.41311   0.82635   0.00000  Uiso   1.00
N506   N     0.23136   0.09520   0.83333   0.00000  Uiso   1.00
C507   C     0.21255   0.99387   0.13761   0.00000  Uiso   1.00
C508   C     0.18223   0.98245   0.20136   0.00000  Uiso   1.00
C509   C     0.15080   0.02728   0.23172   0.00000  Uiso   1.00
C510   C     0.12639   0.00747   0.28974   0.00000  Uiso   1.00
C511   C     0.07830   0.99923   0.38468   0.00000  Uiso   1.00
C512   C     0.28607   0.95825   0.14371   0.00000  Uiso   1.00
C513   C     0.34194   0.98274   0.12559   0.00000  Uiso   1.00
C514   C     0.40495   0.94254   0.13508   0.00000  Uiso   1.00
C515   C     0.51807   0.89673   0.14047   0.00000  Uiso   1.00
C516   C     0.17797   0.96215   0.10139   0.00000  Uiso   1.00
C517   C     0.14296   0.98991   0.04768   0.00000  Uiso   1.00
C518   C     0.11497   0.95299   0.02154   0.00000  Uiso   1.00
C519   C     0.06025   0.91323   0.96124   0.00000  Uiso   1.00
C520   C     0.22511   0.87894   0.18667   0.00000  Uiso   1.00
C521   C     0.18905   0.92003   0.22800   0.00000  Uiso   1.00
C522   C     0.16469   0.90013   0.28600   0.00000  Uiso   1.00
C523   C     0.13322   0.94493   0.31644   0.00000  Uiso   1.00
C524   C     0.29289   0.89583   0.17035   0.00000  Uiso   1.00
C525   C     0.35583   0.85559   0.17987   0.00000  Uiso   1.00
C526   C     0.41178   0.88001   0.16177   0.00000  Uiso   1.00
C527   C     0.18478   0.89972   0.12804   0.00000  Uiso   1.00
C528   C     0.15685   0.86276   0.10197   0.00000  Uiso   1.00
C529   C     0.12180   0.89045   0.04823   0.00000  Uiso   1.00
H530   H     0.20725   0.04246   0.11686   0.00000  Uiso   1.00
H531   H     0.14553   0.07559   0.21108   0.00000  Uiso   1.00
H532   H     0.33665   0.03104   0.10496   0.00000  Uiso   1.00
H533   H     0.13769   0.03821   0.02708   0.00000  Uiso   1.00
H534   H     0.08014   0.08478   0.32730   0.00000  Uiso   1.00
H535   H     0.48311   0.99086   0.10352   0.00000  Uiso   1.00
H536   H     0.06359   0.00597   0.93928   0.00000  Uiso   1.00
H537   H     0.23042   0.83034   0.20741   0.00000  Uiso   1.00
H538   H     0.16997   0.85183   0.30661   0.00000  Uiso   1.00
H539   H     0.36109   0.80728   0.20048   0.00000  Uiso   1.00
H540   H     0.16213   0.81445   0.12260   0.00000  Uiso   1.00
H541   H     0.09998   0.90317   0.40483   0.00000  Uiso   1.00
H542   H     0.50295   0.80924   0.18105   0.00000  Uiso   1.00
H543   H     0.08342   0.82436   0.01681   0.00000  Uiso   1.00
O544   O     0.04990   0.01194   0.42969   0.00000  Uiso   1.00
O545   O     0.57858   0.88871   0.13609   0.00000  Uiso   1.00
O546   O     0.02817   0.90854   0.92062   0.00000  Uiso   1.00
N547   N     0.09310   0.03909   0.33193   0.00000  Uiso   1.00
N548   N     0.46985   0.95128   0.12272   0.00000  Uiso   1.00
N549   N     0.07764   0.96541   0.96916   0.00000  Uiso   1.00
N550   N     0.10377   0.94137   0.37365   0.00000  Uiso   1.00
N551   N     0.48052   0.85355   0.16444   0.00000  Uiso   1.00
N552   N     0.08831   0.86768   0.01088   0.00000  Uiso   1.00
