data_job_03888
_audit_creation_date              2018-12-19
_audit_creation_method            'Materials Studio'
_symmetry_space_group_name_H-M    'P1'
_symmetry_Int_Tables_number       1
_symmetry_cell_setting            triclinic
loop_
_symmetry_equiv_pos_as_xyz
  x,y,z
_cell_length_a                    9.9065
_cell_length_b                    12.5832
_cell_length_c                    15.5565
_cell_angle_alpha                 84.7094
_cell_angle_beta                  105.0370
_cell_angle_gamma                 93.3534
loop_
_atom_site_label
_atom_site_type_symbol
_atom_site_fract_x
_atom_site_fract_y
_atom_site_fract_z
_atom_site_U_iso_or_equiv
_atom_site_adp_type
_atom_site_occupancy
C1     C     0.84758   0.91599   0.15018   0.00000  Uiso   1.00
C2     C     0.76380   0.01523   0.14538   0.00000  Uiso   1.00
C3     C     0.71158   0.08186   0.06916   0.00000  Uiso   1.00
C4     C     0.63766   0.16857   0.07864   0.00000  Uiso   1.00
C5     C     0.51082   0.31976   0.05859   0.00000  Uiso   1.00
C6     C     0.98439   0.93289   0.22079   0.00000  Uiso   1.00
C7     C     0.11764   0.93029   0.20796   0.00000  Uiso   1.00
C8     C     0.22941   0.94768   0.28094   0.00000  Uiso   1.00
C9     C     0.44503   0.97096   0.37798   0.00000  Uiso   1.00
C10    C     0.76822   0.82417   0.18883   0.00000  Uiso   1.00
C11    C     0.71974   0.73014   0.14915   0.00000  Uiso   1.00
C12    C     0.64953   0.65597   0.19523   0.00000  Uiso   1.00
C13    C     0.52952   0.51045   0.24265   0.00000  Uiso   1.00
C14    C     0.80915   0.95147   0.30258   0.00000  Uiso   1.00
C15    C     0.74294   0.03449   0.22815   0.00000  Uiso   1.00
C16    C     0.66907   0.12112   0.23776   0.00000  Uiso   1.00
C17    C     0.61675   0.18787   0.16156   0.00000  Uiso   1.00
C18    C     0.96352   0.95216   0.30356   0.00000  Uiso   1.00
C19    C     0.07512   0.96955   0.37657   0.00000  Uiso   1.00
C20    C     0.20850   0.96698   0.36386   0.00000  Uiso   1.00
C21    C     0.74734   0.84344   0.27160   0.00000  Uiso   1.00
C22    C     0.67722   0.76940   0.31775   0.00000  Uiso   1.00
C23    C     0.62863   0.67527   0.27815   0.00000  Uiso   1.00
H24    H     0.86383   0.90099   0.08575   0.00000  Uiso   1.00
H25    H     0.72777   0.06693   0.00511   0.00000  Uiso   1.00
H26    H     0.13375   0.91537   0.14390   0.00000  Uiso   1.00
H27    H     0.73591   0.71525   0.08510   0.00000  Uiso   1.00
H28    H     0.56775   0.25943   0.95222   0.00000  Uiso   1.00
H29    H     0.42380   0.93982   0.24488   0.00000  Uiso   1.00
H30    H     0.58487   0.51783   0.12088   0.00000  Uiso   1.00
H31    H     0.79291   0.96647   0.36702   0.00000  Uiso   1.00
H32    H     0.65294   0.13601   0.30182   0.00000  Uiso   1.00
H33    H     0.05893   0.98445   0.44061   0.00000  Uiso   1.00
H34    H     0.66108   0.78433   0.38180   0.00000  Uiso   1.00
H35    H     0.50702   0.31550   0.19304   0.00000  Uiso   1.00
H36    H     0.36308   0.99588   0.48570   0.00000  Uiso   1.00
H37    H     0.52414   0.57390   0.36170   0.00000  Uiso   1.00
O38    O     0.44663   0.39783   0.02467   0.00000  Uiso   1.00
O39    O     0.56973   0.97849   0.40863   0.00000  Uiso   1.00
O40    O     0.46907   0.42486   0.24594   0.00000  Uiso   1.00
N41    N     0.57264   0.24935   0.01784   0.00000  Uiso   1.00
N42    N     0.37300   0.95055   0.29146   0.00000  Uiso   1.00
N43    N     0.58870   0.55601   0.17553   0.00000  Uiso   1.00
N44    N     0.53996   0.27952   0.14743   0.00000  Uiso   1.00
N45    N     0.34032   0.98072   0.42104   0.00000  Uiso   1.00
N46    N     0.55602   0.58618   0.30512   0.00000  Uiso   1.00
C47    C     0.15242   0.08401   0.84982   0.00000  Uiso   1.00
C48    C     0.23620   0.98477   0.85462   0.00000  Uiso   1.00
C49    C     0.28842   0.91814   0.93084   0.00000  Uiso   1.00
C50    C     0.36234   0.83143   0.92136   0.00000  Uiso   1.00
C51    C     0.48918   0.68024   0.94141   0.00000  Uiso   1.00
C52    C     0.01561   0.06711   0.77921   0.00000  Uiso   1.00
C53    C     0.88236   0.06971   0.79204   0.00000  Uiso   1.00
C54    C     0.77059   0.05232   0.71906   0.00000  Uiso   1.00
C55    C     0.55497   0.02904   0.62202   0.00000  Uiso   1.00
C56    C     0.23178   0.17583   0.81117   0.00000  Uiso   1.00
C57    C     0.28026   0.26986   0.85085   0.00000  Uiso   1.00
C58    C     0.35047   0.34403   0.80477   0.00000  Uiso   1.00
C59    C     0.47048   0.48955   0.75735   0.00000  Uiso   1.00
C60    C     0.19085   0.04853   0.69742   0.00000  Uiso   1.00
C61    C     0.25706   0.96551   0.77185   0.00000  Uiso   1.00
C62    C     0.33093   0.87888   0.76224   0.00000  Uiso   1.00
C63    C     0.38325   0.81213   0.83844   0.00000  Uiso   1.00
C64    C     0.03648   0.04784   0.69644   0.00000  Uiso   1.00
C65    C     0.92488   0.03045   0.62343   0.00000  Uiso   1.00
C66    C     0.79150   0.03302   0.63614   0.00000  Uiso   1.00
C67    C     0.25266   0.15656   0.72840   0.00000  Uiso   1.00
C68    C     0.32278   0.23060   0.68225   0.00000  Uiso   1.00
C69    C     0.37137   0.32473   0.72185   0.00000  Uiso   1.00
H70    H     0.13617   0.09901   0.91425   0.00000  Uiso   1.00
H71    H     0.27223   0.93307   0.99489   0.00000  Uiso   1.00
H72    H     0.86625   0.08463   0.85610   0.00000  Uiso   1.00
H73    H     0.26409   0.28475   0.91490   0.00000  Uiso   1.00
H74    H     0.43225   0.74057   0.04778   0.00000  Uiso   1.00
H75    H     0.57620   0.06018   0.75512   0.00000  Uiso   1.00
H76    H     0.41513   0.48217   0.87912   0.00000  Uiso   1.00
H77    H     0.20709   0.03353   0.63298   0.00000  Uiso   1.00
H78    H     0.34706   0.86399   0.69818   0.00000  Uiso   1.00
H79    H     0.94107   0.01555   0.55939   0.00000  Uiso   1.00
H80    H     0.33892   0.21567   0.61820   0.00000  Uiso   1.00
H81    H     0.49298   0.68450   0.80696   0.00000  Uiso   1.00
H82    H     0.63692   0.00412   0.51430   0.00000  Uiso   1.00
H83    H     0.47586   0.42610   0.63830   0.00000  Uiso   1.00
O84    O     0.55337   0.60217   0.97533   0.00000  Uiso   1.00
O85    O     0.43027   0.02151   0.59137   0.00000  Uiso   1.00
O86    O     0.53093   0.57514   0.75406   0.00000  Uiso   1.00
N87    N     0.42736   0.75065   0.98216   0.00000  Uiso   1.00
N88    N     0.62700   0.04945   0.70854   0.00000  Uiso   1.00
N89    N     0.41130   0.44399   0.82447   0.00000  Uiso   1.00
N90    N     0.46004   0.72048   0.85257   0.00000  Uiso   1.00
N91    N     0.65968   0.01928   0.57896   0.00000  Uiso   1.00
N92    N     0.44398   0.41382   0.69488   0.00000  Uiso   1.00
