data_job_05691
_audit_creation_date              2018-12-19
_audit_creation_method            'Materials Studio'
_symmetry_space_group_name_H-M    'P1'
_symmetry_Int_Tables_number       1
_symmetry_cell_setting            triclinic
loop_
_symmetry_equiv_pos_as_xyz
  x,y,z
_cell_length_a                    20.0261
_cell_length_b                    20.0261
_cell_length_c                    13.8419
_cell_angle_alpha                 90.0000
_cell_angle_beta                  90.0000
_cell_angle_gamma                 90.0000
loop_
_atom_site_label
_atom_site_type_symbol
_atom_site_fract_x
_atom_site_fract_y
_atom_site_fract_z
_atom_site_U_iso_or_equiv
_atom_site_adp_type
_atom_site_occupancy
C1     C     0.20662   0.59378   0.91489   0.00000  Uiso   1.00
C2     C     0.14156   0.59807   0.85800   0.00000  Uiso   1.00
C3     C     0.07876   0.58079   0.89223   0.00000  Uiso   1.00
C4     C     0.02549   0.58830   0.82895   0.00000  Uiso   1.00
C5     C     0.92305   0.59128   0.75492   0.00000  Uiso   1.00
C6     C     0.25321   0.54979   0.85535   0.00000  Uiso   1.00
C7     C     0.28429   0.49194   0.88737   0.00000  Uiso   1.00
C8     C     0.32503   0.45882   0.82186   0.00000  Uiso   1.00
C9     C     0.39597   0.38689   0.74374   0.00000  Uiso   1.00
C10    C     0.23682   0.66366   0.91257   0.00000  Uiso   1.00
C11    C     0.25414   0.70155   0.99270   0.00000  Uiso   1.00
C12    C     0.28109   0.76430   0.97536   0.00000  Uiso   1.00
C13    C     0.32658   0.86916   0.98608   0.00000  Uiso   1.00
C14    C     0.22371   0.63783   0.74162   0.00000  Uiso   1.00
C15    C     0.15084   0.62199   0.76389   0.00000  Uiso   1.00
C16    C     0.09766   0.62953   0.70053   0.00000  Uiso   1.00
C17    C     0.03479   0.61227   0.73467   0.00000  Uiso   1.00
C18    C     0.26249   0.57372   0.76124   0.00000  Uiso   1.00
C19    C     0.30320   0.54068   0.69567   0.00000  Uiso   1.00
C20    C     0.33433   0.48279   0.72757   0.00000  Uiso   1.00
C21    C     0.24610   0.68759   0.81846   0.00000  Uiso   1.00
C22    C     0.27303   0.75029   0.80099   0.00000  Uiso   1.00
C23    C     0.29039   0.78827   0.88108   0.00000  Uiso   1.00
H24    H     0.19940   0.57515   0.98816   0.00000  Uiso   1.00
H25    H     0.07159   0.56227   0.96507   0.00000  Uiso   1.00
H26    H     0.27711   0.47344   0.96021   0.00000  Uiso   1.00
H27    H     0.24695   0.68302   0.06552   0.00000  Uiso   1.00
H28    H     0.93399   0.55852   0.89796   0.00000  Uiso   1.00
H29    H     0.36734   0.37123   0.88771   0.00000  Uiso   1.00
H30    H     0.30375   0.81316   0.10978   0.00000  Uiso   1.00
H31    H     0.23094   0.65646   0.66835   0.00000  Uiso   1.00
H32    H     0.10486   0.64805   0.62771   0.00000  Uiso   1.00
H33    H     0.31037   0.55922   0.62285   0.00000  Uiso   1.00
H34    H     0.28021   0.76879   0.72816   0.00000  Uiso   1.00
H35    H     0.96099   0.62814   0.62414   0.00000  Uiso   1.00
H36    H     0.39434   0.44085   0.61390   0.00000  Uiso   1.00
H37    H     0.33075   0.88278   0.83597   0.00000  Uiso   1.00
O38    O     0.86399   0.58631   0.74007   0.00000  Uiso   1.00
O39    O     0.43253   0.34060   0.72665   0.00000  Uiso   1.00
O40    O     0.34910   0.92040   0.01799   0.00000  Uiso   1.00
N41    N     0.95765   0.57607   0.83910   0.00000  Uiso   1.00
N42    N     0.36279   0.40096   0.82952   0.00000  Uiso   1.00
N43    N     0.30336   0.81412   0.03713   0.00000  Uiso   1.00
N44    N     0.97217   0.61353   0.69176   0.00000  Uiso   1.00
N45    N     0.37732   0.43842   0.68218   0.00000  Uiso   1.00
N46    N     0.31788   0.85159   0.88979   0.00000  Uiso   1.00
C47    C     0.79338   0.40622   0.91489   0.00000  Uiso   1.00
C48    C     0.85844   0.40193   0.85800   0.00000  Uiso   1.00
C49    C     0.92124   0.41921   0.89223   0.00000  Uiso   1.00
C50    C     0.97451   0.41170   0.82895   0.00000  Uiso   1.00
C51    C     0.07695   0.40872   0.75492   0.00000  Uiso   1.00
C52    C     0.74679   0.45021   0.85535   0.00000  Uiso   1.00
C53    C     0.71571   0.50806   0.88737   0.00000  Uiso   1.00
C54    C     0.67497   0.54118   0.82186   0.00000  Uiso   1.00
C55    C     0.60403   0.61311   0.74374   0.00000  Uiso   1.00
C56    C     0.76318   0.33634   0.91257   0.00000  Uiso   1.00
C57    C     0.74586   0.29845   0.99270   0.00000  Uiso   1.00
C58    C     0.71891   0.23570   0.97536   0.00000  Uiso   1.00
C59    C     0.67342   0.13084   0.98608   0.00000  Uiso   1.00
C60    C     0.77629   0.36217   0.74162   0.00000  Uiso   1.00
C61    C     0.84916   0.37801   0.76389   0.00000  Uiso   1.00
C62    C     0.90234   0.37047   0.70053   0.00000  Uiso   1.00
C63    C     0.96521   0.38773   0.73467   0.00000  Uiso   1.00
C64    C     0.73751   0.42628   0.76124   0.00000  Uiso   1.00
C65    C     0.69680   0.45932   0.69567   0.00000  Uiso   1.00
C66    C     0.66567   0.51721   0.72757   0.00000  Uiso   1.00
C67    C     0.75390   0.31241   0.81846   0.00000  Uiso   1.00
C68    C     0.72697   0.24971   0.80099   0.00000  Uiso   1.00
C69    C     0.70961   0.21173   0.88108   0.00000  Uiso   1.00
H70    H     0.80060   0.42485   0.98816   0.00000  Uiso   1.00
H71    H     0.92841   0.43773   0.96507   0.00000  Uiso   1.00
H72    H     0.72289   0.52656   0.96021   0.00000  Uiso   1.00
H73    H     0.75305   0.31698   0.06552   0.00000  Uiso   1.00
H74    H     0.06601   0.44148   0.89796   0.00000  Uiso   1.00
H75    H     0.63266   0.62877   0.88771   0.00000  Uiso   1.00
H76    H     0.69625   0.18684   0.10978   0.00000  Uiso   1.00
H77    H     0.76906   0.34354   0.66835   0.00000  Uiso   1.00
H78    H     0.89514   0.35195   0.62771   0.00000  Uiso   1.00
H79    H     0.68963   0.44078   0.62285   0.00000  Uiso   1.00
H80    H     0.71979   0.23121   0.72816   0.00000  Uiso   1.00
H81    H     0.03901   0.37186   0.62414   0.00000  Uiso   1.00
H82    H     0.60566   0.55915   0.61390   0.00000  Uiso   1.00
H83    H     0.66925   0.11722   0.83597   0.00000  Uiso   1.00
O84    O     0.13601   0.41369   0.74007   0.00000  Uiso   1.00
O85    O     0.56747   0.65940   0.72665   0.00000  Uiso   1.00
O86    O     0.65090   0.07960   0.01799   0.00000  Uiso   1.00
N87    N     0.04235   0.42393   0.83910   0.00000  Uiso   1.00
N88    N     0.63721   0.59904   0.82952   0.00000  Uiso   1.00
N89    N     0.69664   0.18588   0.03713   0.00000  Uiso   1.00
N90    N     0.02783   0.38647   0.69176   0.00000  Uiso   1.00
N91    N     0.62268   0.56158   0.68218   0.00000  Uiso   1.00
N92    N     0.68212   0.14841   0.88979   0.00000  Uiso   1.00
C93    C     0.40622   0.20662   0.41489   0.00000  Uiso   1.00
C94    C     0.40193   0.14156   0.35800   0.00000  Uiso   1.00
C95    C     0.41921   0.07876   0.39223   0.00000  Uiso   1.00
C96    C     0.41170   0.02549   0.32895   0.00000  Uiso   1.00
C97    C     0.40872   0.92305   0.25492   0.00000  Uiso   1.00
C98    C     0.45021   0.25321   0.35535   0.00000  Uiso   1.00
C99    C     0.50806   0.28429   0.38737   0.00000  Uiso   1.00
C100   C     0.54118   0.32503   0.32186   0.00000  Uiso   1.00
C101   C     0.61311   0.39597   0.24374   0.00000  Uiso   1.00
C102   C     0.33634   0.23682   0.41257   0.00000  Uiso   1.00
C103   C     0.29845   0.25414   0.49270   0.00000  Uiso   1.00
C104   C     0.23570   0.28109   0.47536   0.00000  Uiso   1.00
C105   C     0.13084   0.32658   0.48608   0.00000  Uiso   1.00
C106   C     0.36217   0.22371   0.24162   0.00000  Uiso   1.00
C107   C     0.37801   0.15084   0.26389   0.00000  Uiso   1.00
C108   C     0.37047   0.09766   0.20053   0.00000  Uiso   1.00
C109   C     0.38773   0.03479   0.23467   0.00000  Uiso   1.00
C110   C     0.42628   0.26249   0.26124   0.00000  Uiso   1.00
C111   C     0.45932   0.30320   0.19567   0.00000  Uiso   1.00
C112   C     0.51721   0.33433   0.22757   0.00000  Uiso   1.00
C113   C     0.31241   0.24610   0.31846   0.00000  Uiso   1.00
C114   C     0.24971   0.27303   0.30099   0.00000  Uiso   1.00
C115   C     0.21173   0.29039   0.38108   0.00000  Uiso   1.00
H116   H     0.42485   0.19940   0.48816   0.00000  Uiso   1.00
H117   H     0.43773   0.07159   0.46507   0.00000  Uiso   1.00
H118   H     0.52656   0.27711   0.46021   0.00000  Uiso   1.00
H119   H     0.31698   0.24695   0.56552   0.00000  Uiso   1.00
H120   H     0.44148   0.93399   0.39796   0.00000  Uiso   1.00
H121   H     0.62877   0.36734   0.38771   0.00000  Uiso   1.00
H122   H     0.18684   0.30375   0.60978   0.00000  Uiso   1.00
H123   H     0.34354   0.23094   0.16835   0.00000  Uiso   1.00
H124   H     0.35195   0.10486   0.12771   0.00000  Uiso   1.00
H125   H     0.44078   0.31037   0.12285   0.00000  Uiso   1.00
H126   H     0.23121   0.28021   0.22816   0.00000  Uiso   1.00
H127   H     0.37186   0.96099   0.12414   0.00000  Uiso   1.00
H128   H     0.55915   0.39434   0.11390   0.00000  Uiso   1.00
H129   H     0.11722   0.33075   0.33597   0.00000  Uiso   1.00
O130   O     0.41369   0.86399   0.24007   0.00000  Uiso   1.00
O131   O     0.65940   0.43253   0.22665   0.00000  Uiso   1.00
O132   O     0.07960   0.34910   0.51799   0.00000  Uiso   1.00
N133   N     0.42393   0.95765   0.33910   0.00000  Uiso   1.00
N134   N     0.59904   0.36279   0.32952   0.00000  Uiso   1.00
N135   N     0.18588   0.30336   0.53713   0.00000  Uiso   1.00
N136   N     0.38647   0.97217   0.19176   0.00000  Uiso   1.00
N137   N     0.56158   0.37732   0.18218   0.00000  Uiso   1.00
N138   N     0.14841   0.31788   0.38979   0.00000  Uiso   1.00
C139   C     0.59378   0.79338   0.41489   0.00000  Uiso   1.00
C140   C     0.59807   0.85844   0.35800   0.00000  Uiso   1.00
C141   C     0.58079   0.92124   0.39223   0.00000  Uiso   1.00
C142   C     0.58830   0.97451   0.32895   0.00000  Uiso   1.00
C143   C     0.59128   0.07695   0.25492   0.00000  Uiso   1.00
C144   C     0.54979   0.74679   0.35535   0.00000  Uiso   1.00
C145   C     0.49194   0.71571   0.38737   0.00000  Uiso   1.00
C146   C     0.45882   0.67497   0.32186   0.00000  Uiso   1.00
C147   C     0.38689   0.60403   0.24374   0.00000  Uiso   1.00
C148   C     0.66366   0.76318   0.41257   0.00000  Uiso   1.00
C149   C     0.70155   0.74586   0.49270   0.00000  Uiso   1.00
C150   C     0.76430   0.71891   0.47536   0.00000  Uiso   1.00
C151   C     0.86916   0.67342   0.48608   0.00000  Uiso   1.00
C152   C     0.63783   0.77629   0.24162   0.00000  Uiso   1.00
C153   C     0.62199   0.84916   0.26389   0.00000  Uiso   1.00
C154   C     0.62953   0.90234   0.20053   0.00000  Uiso   1.00
C155   C     0.61227   0.96521   0.23467   0.00000  Uiso   1.00
C156   C     0.57372   0.73751   0.26124   0.00000  Uiso   1.00
C157   C     0.54068   0.69680   0.19567   0.00000  Uiso   1.00
C158   C     0.48279   0.66567   0.22757   0.00000  Uiso   1.00
C159   C     0.68759   0.75390   0.31846   0.00000  Uiso   1.00
C160   C     0.75029   0.72697   0.30099   0.00000  Uiso   1.00
C161   C     0.78827   0.70961   0.38108   0.00000  Uiso   1.00
H162   H     0.57515   0.80060   0.48816   0.00000  Uiso   1.00
H163   H     0.56227   0.92841   0.46507   0.00000  Uiso   1.00
H164   H     0.47344   0.72289   0.46021   0.00000  Uiso   1.00
H165   H     0.68302   0.75305   0.56552   0.00000  Uiso   1.00
H166   H     0.55852   0.06601   0.39796   0.00000  Uiso   1.00
H167   H     0.37123   0.63266   0.38771   0.00000  Uiso   1.00
H168   H     0.81316   0.69625   0.60978   0.00000  Uiso   1.00
H169   H     0.65646   0.76906   0.16835   0.00000  Uiso   1.00
H170   H     0.64805   0.89514   0.12771   0.00000  Uiso   1.00
H171   H     0.55922   0.68963   0.12285   0.00000  Uiso   1.00
H172   H     0.76879   0.71979   0.22816   0.00000  Uiso   1.00
H173   H     0.62814   0.03901   0.12414   0.00000  Uiso   1.00
H174   H     0.44085   0.60566   0.11390   0.00000  Uiso   1.00
H175   H     0.88278   0.66925   0.33597   0.00000  Uiso   1.00
O176   O     0.58631   0.13601   0.24007   0.00000  Uiso   1.00
O177   O     0.34060   0.56747   0.22665   0.00000  Uiso   1.00
O178   O     0.92040   0.65090   0.51799   0.00000  Uiso   1.00
N179   N     0.57607   0.04235   0.33910   0.00000  Uiso   1.00
N180   N     0.40096   0.63721   0.32952   0.00000  Uiso   1.00
N181   N     0.81412   0.69664   0.53713   0.00000  Uiso   1.00
N182   N     0.61353   0.02783   0.19176   0.00000  Uiso   1.00
N183   N     0.43842   0.62268   0.18218   0.00000  Uiso   1.00
N184   N     0.85159   0.68212   0.38979   0.00000  Uiso   1.00
C185   C     0.70662   0.90622   0.91489   0.00000  Uiso   1.00
C186   C     0.64156   0.90193   0.85800   0.00000  Uiso   1.00
C187   C     0.57876   0.91921   0.89223   0.00000  Uiso   1.00
C188   C     0.52549   0.91170   0.82895   0.00000  Uiso   1.00
C189   C     0.42305   0.90872   0.75492   0.00000  Uiso   1.00
C190   C     0.75321   0.95021   0.85535   0.00000  Uiso   1.00
C191   C     0.78429   0.00806   0.88737   0.00000  Uiso   1.00
C192   C     0.82503   0.04118   0.82186   0.00000  Uiso   1.00
C193   C     0.89597   0.11311   0.74374   0.00000  Uiso   1.00
C194   C     0.73682   0.83634   0.91257   0.00000  Uiso   1.00
C195   C     0.75414   0.79845   0.99270   0.00000  Uiso   1.00
C196   C     0.78109   0.73570   0.97536   0.00000  Uiso   1.00
C197   C     0.82658   0.63084   0.98608   0.00000  Uiso   1.00
C198   C     0.72371   0.86217   0.74162   0.00000  Uiso   1.00
C199   C     0.65084   0.87801   0.76389   0.00000  Uiso   1.00
C200   C     0.59766   0.87047   0.70053   0.00000  Uiso   1.00
C201   C     0.53479   0.88773   0.73467   0.00000  Uiso   1.00
C202   C     0.76249   0.92628   0.76124   0.00000  Uiso   1.00
C203   C     0.80320   0.95932   0.69567   0.00000  Uiso   1.00
C204   C     0.83433   0.01721   0.72757   0.00000  Uiso   1.00
C205   C     0.74610   0.81241   0.81846   0.00000  Uiso   1.00
C206   C     0.77303   0.74971   0.80099   0.00000  Uiso   1.00
C207   C     0.79039   0.71173   0.88108   0.00000  Uiso   1.00
H208   H     0.69940   0.92485   0.98816   0.00000  Uiso   1.00
H209   H     0.57159   0.93773   0.96507   0.00000  Uiso   1.00
H210   H     0.77711   0.02656   0.96021   0.00000  Uiso   1.00
H211   H     0.74695   0.81698   0.06552   0.00000  Uiso   1.00
H212   H     0.43399   0.94148   0.89796   0.00000  Uiso   1.00
H213   H     0.86734   0.12877   0.88771   0.00000  Uiso   1.00
H214   H     0.80375   0.68684   0.10978   0.00000  Uiso   1.00
H215   H     0.73094   0.84354   0.66835   0.00000  Uiso   1.00
H216   H     0.60486   0.85195   0.62771   0.00000  Uiso   1.00
H217   H     0.81037   0.94078   0.62285   0.00000  Uiso   1.00
H218   H     0.78021   0.73121   0.72816   0.00000  Uiso   1.00
H219   H     0.46099   0.87186   0.62414   0.00000  Uiso   1.00
H220   H     0.89434   0.05915   0.61390   0.00000  Uiso   1.00
H221   H     0.83075   0.61722   0.83597   0.00000  Uiso   1.00
O222   O     0.36399   0.91369   0.74007   0.00000  Uiso   1.00
O223   O     0.93253   0.15940   0.72665   0.00000  Uiso   1.00
O224   O     0.84910   0.57960   0.01799   0.00000  Uiso   1.00
N225   N     0.45765   0.92393   0.83910   0.00000  Uiso   1.00
N226   N     0.86279   0.09904   0.82952   0.00000  Uiso   1.00
N227   N     0.80336   0.68588   0.03713   0.00000  Uiso   1.00
N228   N     0.47217   0.88647   0.69176   0.00000  Uiso   1.00
N229   N     0.87732   0.06158   0.68218   0.00000  Uiso   1.00
N230   N     0.81788   0.64841   0.88979   0.00000  Uiso   1.00
C231   C     0.29338   0.09378   0.91489   0.00000  Uiso   1.00
C232   C     0.35844   0.09807   0.85800   0.00000  Uiso   1.00
C233   C     0.42124   0.08079   0.89223   0.00000  Uiso   1.00
C234   C     0.47451   0.08830   0.82895   0.00000  Uiso   1.00
C235   C     0.57695   0.09128   0.75492   0.00000  Uiso   1.00
C236   C     0.24679   0.04979   0.85535   0.00000  Uiso   1.00
C237   C     0.21571   0.99194   0.88737   0.00000  Uiso   1.00
C238   C     0.17497   0.95882   0.82186   0.00000  Uiso   1.00
C239   C     0.10403   0.88689   0.74374   0.00000  Uiso   1.00
C240   C     0.26318   0.16366   0.91257   0.00000  Uiso   1.00
C241   C     0.24586   0.20155   0.99270   0.00000  Uiso   1.00
C242   C     0.21891   0.26430   0.97536   0.00000  Uiso   1.00
C243   C     0.17342   0.36916   0.98608   0.00000  Uiso   1.00
C244   C     0.27629   0.13783   0.74162   0.00000  Uiso   1.00
C245   C     0.34916   0.12199   0.76389   0.00000  Uiso   1.00
C246   C     0.40234   0.12953   0.70053   0.00000  Uiso   1.00
C247   C     0.46521   0.11227   0.73467   0.00000  Uiso   1.00
C248   C     0.23751   0.07372   0.76124   0.00000  Uiso   1.00
C249   C     0.19680   0.04068   0.69567   0.00000  Uiso   1.00
C250   C     0.16567   0.98279   0.72757   0.00000  Uiso   1.00
C251   C     0.25390   0.18759   0.81846   0.00000  Uiso   1.00
C252   C     0.22697   0.25029   0.80099   0.00000  Uiso   1.00
C253   C     0.20961   0.28827   0.88108   0.00000  Uiso   1.00
H254   H     0.30060   0.07515   0.98816   0.00000  Uiso   1.00
H255   H     0.42841   0.06227   0.96507   0.00000  Uiso   1.00
H256   H     0.22289   0.97344   0.96021   0.00000  Uiso   1.00
H257   H     0.25305   0.18302   0.06552   0.00000  Uiso   1.00
H258   H     0.56601   0.05852   0.89796   0.00000  Uiso   1.00
H259   H     0.13266   0.87123   0.88771   0.00000  Uiso   1.00
H260   H     0.19625   0.31316   0.10978   0.00000  Uiso   1.00
H261   H     0.26906   0.15646   0.66835   0.00000  Uiso   1.00
H262   H     0.39514   0.14805   0.62771   0.00000  Uiso   1.00
H263   H     0.18963   0.05922   0.62285   0.00000  Uiso   1.00
H264   H     0.21979   0.26879   0.72816   0.00000  Uiso   1.00
H265   H     0.53901   0.12814   0.62414   0.00000  Uiso   1.00
H266   H     0.10566   0.94085   0.61390   0.00000  Uiso   1.00
H267   H     0.16925   0.38278   0.83597   0.00000  Uiso   1.00
O268   O     0.63601   0.08631   0.74007   0.00000  Uiso   1.00
O269   O     0.06747   0.84060   0.72665   0.00000  Uiso   1.00
O270   O     0.15090   0.42040   0.01799   0.00000  Uiso   1.00
N271   N     0.54235   0.07607   0.83910   0.00000  Uiso   1.00
N272   N     0.13721   0.90096   0.82952   0.00000  Uiso   1.00
N273   N     0.19664   0.31412   0.03713   0.00000  Uiso   1.00
N274   N     0.52783   0.11353   0.69176   0.00000  Uiso   1.00
N275   N     0.12268   0.93842   0.68218   0.00000  Uiso   1.00
N276   N     0.18212   0.35159   0.88979   0.00000  Uiso   1.00
C277   C     0.90622   0.29338   0.41489   0.00000  Uiso   1.00
C278   C     0.90193   0.35844   0.35800   0.00000  Uiso   1.00
C279   C     0.91921   0.42124   0.39223   0.00000  Uiso   1.00
C280   C     0.91170   0.47451   0.32895   0.00000  Uiso   1.00
C281   C     0.90872   0.57695   0.25492   0.00000  Uiso   1.00
C282   C     0.95021   0.24679   0.35535   0.00000  Uiso   1.00
C283   C     0.00806   0.21571   0.38737   0.00000  Uiso   1.00
C284   C     0.04118   0.17497   0.32186   0.00000  Uiso   1.00
C285   C     0.11311   0.10403   0.24374   0.00000  Uiso   1.00
C286   C     0.83634   0.26318   0.41257   0.00000  Uiso   1.00
C287   C     0.79845   0.24586   0.49270   0.00000  Uiso   1.00
C288   C     0.73570   0.21891   0.47536   0.00000  Uiso   1.00
C289   C     0.63084   0.17342   0.48608   0.00000  Uiso   1.00
C290   C     0.86217   0.27629   0.24162   0.00000  Uiso   1.00
C291   C     0.87801   0.34916   0.26389   0.00000  Uiso   1.00
C292   C     0.87047   0.40234   0.20053   0.00000  Uiso   1.00
C293   C     0.88773   0.46521   0.23467   0.00000  Uiso   1.00
C294   C     0.92628   0.23751   0.26124   0.00000  Uiso   1.00
C295   C     0.95932   0.19680   0.19567   0.00000  Uiso   1.00
C296   C     0.01721   0.16567   0.22757   0.00000  Uiso   1.00
C297   C     0.81241   0.25390   0.31846   0.00000  Uiso   1.00
C298   C     0.74971   0.22697   0.30099   0.00000  Uiso   1.00
C299   C     0.71173   0.20961   0.38108   0.00000  Uiso   1.00
H300   H     0.92485   0.30060   0.48816   0.00000  Uiso   1.00
H301   H     0.93773   0.42841   0.46507   0.00000  Uiso   1.00
H302   H     0.02656   0.22289   0.46021   0.00000  Uiso   1.00
H303   H     0.81698   0.25305   0.56552   0.00000  Uiso   1.00
H304   H     0.94148   0.56601   0.39796   0.00000  Uiso   1.00
H305   H     0.12877   0.13266   0.38771   0.00000  Uiso   1.00
H306   H     0.68684   0.19625   0.60978   0.00000  Uiso   1.00
H307   H     0.84354   0.26906   0.16835   0.00000  Uiso   1.00
H308   H     0.85195   0.39514   0.12771   0.00000  Uiso   1.00
H309   H     0.94078   0.18963   0.12285   0.00000  Uiso   1.00
H310   H     0.73121   0.21979   0.22816   0.00000  Uiso   1.00
H311   H     0.87186   0.53901   0.12414   0.00000  Uiso   1.00
H312   H     0.05915   0.10566   0.11390   0.00000  Uiso   1.00
H313   H     0.61722   0.16925   0.33597   0.00000  Uiso   1.00
O314   O     0.91369   0.63601   0.24007   0.00000  Uiso   1.00
O315   O     0.15940   0.06747   0.22665   0.00000  Uiso   1.00
O316   O     0.57960   0.15090   0.51799   0.00000  Uiso   1.00
N317   N     0.92393   0.54235   0.33910   0.00000  Uiso   1.00
N318   N     0.09904   0.13721   0.32952   0.00000  Uiso   1.00
N319   N     0.68588   0.19664   0.53713   0.00000  Uiso   1.00
N320   N     0.88647   0.52783   0.19176   0.00000  Uiso   1.00
N321   N     0.06158   0.12268   0.18218   0.00000  Uiso   1.00
N322   N     0.64841   0.18212   0.38979   0.00000  Uiso   1.00
C323   C     0.09378   0.70662   0.41489   0.00000  Uiso   1.00
C324   C     0.09807   0.64156   0.35800   0.00000  Uiso   1.00
C325   C     0.08079   0.57876   0.39223   0.00000  Uiso   1.00
C326   C     0.08830   0.52549   0.32895   0.00000  Uiso   1.00
C327   C     0.09128   0.42305   0.25492   0.00000  Uiso   1.00
C328   C     0.04979   0.75321   0.35535   0.00000  Uiso   1.00
C329   C     0.99194   0.78429   0.38737   0.00000  Uiso   1.00
C330   C     0.95882   0.82503   0.32186   0.00000  Uiso   1.00
C331   C     0.88689   0.89597   0.24374   0.00000  Uiso   1.00
C332   C     0.16366   0.73682   0.41257   0.00000  Uiso   1.00
C333   C     0.20155   0.75414   0.49270   0.00000  Uiso   1.00
C334   C     0.26430   0.78109   0.47536   0.00000  Uiso   1.00
C335   C     0.36916   0.82658   0.48608   0.00000  Uiso   1.00
C336   C     0.13783   0.72371   0.24162   0.00000  Uiso   1.00
C337   C     0.12199   0.65084   0.26389   0.00000  Uiso   1.00
C338   C     0.12953   0.59766   0.20053   0.00000  Uiso   1.00
C339   C     0.11227   0.53479   0.23467   0.00000  Uiso   1.00
C340   C     0.07372   0.76249   0.26124   0.00000  Uiso   1.00
C341   C     0.04068   0.80320   0.19567   0.00000  Uiso   1.00
C342   C     0.98279   0.83433   0.22757   0.00000  Uiso   1.00
C343   C     0.18759   0.74610   0.31846   0.00000  Uiso   1.00
C344   C     0.25029   0.77303   0.30099   0.00000  Uiso   1.00
C345   C     0.28827   0.79039   0.38108   0.00000  Uiso   1.00
H346   H     0.07515   0.69940   0.48816   0.00000  Uiso   1.00
H347   H     0.06227   0.57159   0.46507   0.00000  Uiso   1.00
H348   H     0.97344   0.77711   0.46021   0.00000  Uiso   1.00
H349   H     0.18302   0.74695   0.56552   0.00000  Uiso   1.00
H350   H     0.05852   0.43399   0.39796   0.00000  Uiso   1.00
H351   H     0.87123   0.86734   0.38771   0.00000  Uiso   1.00
H352   H     0.31316   0.80375   0.60978   0.00000  Uiso   1.00
H353   H     0.15646   0.73094   0.16835   0.00000  Uiso   1.00
H354   H     0.14805   0.60486   0.12771   0.00000  Uiso   1.00
H355   H     0.05922   0.81037   0.12285   0.00000  Uiso   1.00
H356   H     0.26879   0.78021   0.22816   0.00000  Uiso   1.00
H357   H     0.12814   0.46099   0.12414   0.00000  Uiso   1.00
H358   H     0.94085   0.89434   0.11390   0.00000  Uiso   1.00
H359   H     0.38278   0.83075   0.33597   0.00000  Uiso   1.00
O360   O     0.08631   0.36399   0.24007   0.00000  Uiso   1.00
O361   O     0.84060   0.93253   0.22665   0.00000  Uiso   1.00
O362   O     0.42040   0.84910   0.51799   0.00000  Uiso   1.00
N363   N     0.07607   0.45765   0.33910   0.00000  Uiso   1.00
N364   N     0.90096   0.86279   0.32952   0.00000  Uiso   1.00
N365   N     0.31412   0.80336   0.53713   0.00000  Uiso   1.00
N366   N     0.11353   0.47217   0.19176   0.00000  Uiso   1.00
N367   N     0.93842   0.87732   0.18218   0.00000  Uiso   1.00
N368   N     0.35159   0.81788   0.38979   0.00000  Uiso   1.00
