data_job_00599
_audit_creation_date              2018-12-19
_audit_creation_method            'Materials Studio'
_symmetry_space_group_name_H-M    'P1'
_symmetry_Int_Tables_number       1
_symmetry_cell_setting            triclinic
loop_
_symmetry_equiv_pos_as_xyz
  x,y,z
_cell_length_a                    14.5570
_cell_length_b                    12.3686
_cell_length_c                    29.7786
_cell_angle_alpha                 90.0000
_cell_angle_beta                  116.2636
_cell_angle_gamma                 90.0000
loop_
_atom_site_label
_atom_site_type_symbol
_atom_site_fract_x
_atom_site_fract_y
_atom_site_fract_z
_atom_site_U_iso_or_equiv
_atom_site_adp_type
_atom_site_occupancy
C1     C     0.29923   0.41718   0.07723   0.00000  Uiso   1.00
C2     C     0.24965   0.39771   0.11217   0.00000  Uiso   1.00
C3     C     0.14631   0.40931   0.09963   0.00000  Uiso   1.00
C4     C     0.11613   0.38769   0.13690   0.00000  Uiso   1.00
C5     C     0.02840   0.36238   0.18383   0.00000  Uiso   1.00
C6     C     0.38302   0.50101   0.10315   0.00000  Uiso   1.00
C7     C     0.39182   0.59946   0.08302   0.00000  Uiso   1.00
C8     C     0.47393   0.66479   0.11270   0.00000  Uiso   1.00
C9     C     0.59330   0.79983   0.14562   0.00000  Uiso   1.00
C10    C     0.35422   0.31239   0.07702   0.00000  Uiso   1.00
C11    C     0.33883   0.25225   0.03493   0.00000  Uiso   1.00
C12    C     0.39671   0.15879   0.04261   0.00000  Uiso   1.00
C13    C     0.47136   0.00096   0.03497   0.00000  Uiso   1.00
C14    C     0.42940   0.35816   0.16572   0.00000  Uiso   1.00
C15    C     0.32036   0.36565   0.16023   0.00000  Uiso   1.00
C16    C     0.29033   0.34401   0.19753   0.00000  Uiso   1.00
C17    C     0.18696   0.35557   0.18504   0.00000  Uiso   1.00
C18    C     0.45372   0.46896   0.15121   0.00000  Uiso   1.00
C19    C     0.53584   0.53416   0.18092   0.00000  Uiso   1.00
C20    C     0.54476   0.63268   0.16085   0.00000  Uiso   1.00
C21    C     0.42492   0.28033   0.12509   0.00000  Uiso   1.00
C22    C     0.48285   0.18695   0.13283   0.00000  Uiso   1.00
C23    C     0.46754   0.12668   0.09076   0.00000  Uiso   1.00
H24    H     0.24419   0.44214   0.03982   0.00000  Uiso   1.00
H25    H     0.09162   0.43413   0.06243   0.00000  Uiso   1.00
H26    H     0.33710   0.62424   0.04583   0.00000  Uiso   1.00
H27    H     0.28411   0.27708   0.99775   0.00000  Uiso   1.00
H28    H     0.95365   0.41114   0.10870   0.00000  Uiso   1.00
H29    H     0.47128   0.81198   0.07369   0.00000  Uiso   1.00
H30    H     0.35955   0.07994   0.97230   0.00000  Uiso   1.00
H31    H     0.48445   0.33321   0.20314   0.00000  Uiso   1.00
H32    H     0.34506   0.31920   0.23471   0.00000  Uiso   1.00
H33    H     0.59054   0.50932   0.21811   0.00000  Uiso   1.00
H34    H     0.53755   0.16217   0.17003   0.00000  Uiso   1.00
H35    H     0.15936   0.31787   0.24854   0.00000  Uiso   1.00
H36    H     0.67699   0.71872   0.21352   0.00000  Uiso   1.00
H37    H     0.56525   0.98667   0.11213   0.00000  Uiso   1.00
O38    O     0.96048   0.35730   0.19645   0.00000  Uiso   1.00
O39    O     0.63960   0.88318   0.15051   0.00000  Uiso   1.00
O40    O     0.49300   0.92276   0.01749   0.00000  Uiso   1.00
N41    N     0.02119   0.39109   0.13728   0.00000  Uiso   1.00
N42    N     0.50514   0.76586   0.10454   0.00000  Uiso   1.00
N43    N     0.40069   0.08148   0.00975   0.00000  Uiso   1.00
N44    N     0.13188   0.34090   0.21252   0.00000  Uiso   1.00
N45    N     0.61582   0.71567   0.17979   0.00000  Uiso   1.00
N46    N     0.51138   0.03129   0.08499   0.00000  Uiso   1.00
C47    C     0.62446   0.43119   0.41021   0.00000  Uiso   1.00
C48    C     0.72190   0.42385   0.40321   0.00000  Uiso   1.00
C49    C     0.82040   0.44535   0.43960   0.00000  Uiso   1.00
C50    C     0.89932   0.43401   0.42578   0.00000  Uiso   1.00
C51    C     0.05351   0.42749   0.42227   0.00000  Uiso   1.00
C52    C     0.55390   0.50927   0.37017   0.00000  Uiso   1.00
C53    C     0.51114   0.60256   0.37878   0.00000  Uiso   1.00
C54    C     0.44863   0.66311   0.33714   0.00000  Uiso   1.00
C55    C     0.34193   0.78916   0.28234   0.00000  Uiso   1.00
C56    C     0.57359   0.32046   0.39608   0.00000  Uiso   1.00
C57    C     0.54736   0.25502   0.42647   0.00000  Uiso   1.00
C58    C     0.50141   0.15662   0.40665   0.00000  Uiso   1.00
C59    C     0.42529   0.98952   0.39208   0.00000  Uiso   1.00
C60    C     0.58946   0.37282   0.32095   0.00000  Uiso   1.00
C61    C     0.70289   0.39216   0.35472   0.00000  Uiso   1.00
C62    C     0.78168   0.38077   0.34084   0.00000  Uiso   1.00
C63    C     0.88028   0.40224   0.37721   0.00000  Uiso   1.00
C64    C     0.53489   0.47757   0.32168   0.00000  Uiso   1.00
C65    C     0.47242   0.53799   0.28002   0.00000  Uiso   1.00
C66    C     0.42958   0.63136   0.28857   0.00000  Uiso   1.00
C67    C     0.55458   0.28876   0.34760   0.00000  Uiso   1.00
C68    C     0.50865   0.19044   0.32772   0.00000  Uiso   1.00
C69    C     0.48236   0.12486   0.35808   0.00000  Uiso   1.00
H70    H     0.63925   0.45588   0.44795   0.00000  Uiso   1.00
H71    H     0.83508   0.46989   0.47711   0.00000  Uiso   1.00
H72    H     0.52586   0.62707   0.41630   0.00000  Uiso   1.00
H73    H     0.56208   0.27958   0.46399   0.00000  Uiso   1.00
H74    H     0.04380   0.47149   0.48806   0.00000  Uiso   1.00
H75    H     0.39176   0.80289   0.35983   0.00000  Uiso   1.00
H76    H     0.46814   0.07014   0.46039   0.00000  Uiso   1.00
H77    H     0.57466   0.34814   0.28320   0.00000  Uiso   1.00
H78    H     0.76695   0.35624   0.30332   0.00000  Uiso   1.00
H79    H     0.45773   0.51343   0.24251   0.00000  Uiso   1.00
H80    H     0.49395   0.16594   0.29020   0.00000  Uiso   1.00
H81    H     0.98851   0.37925   0.34700   0.00000  Uiso   1.00
H82    H     0.33646   0.71065   0.21878   0.00000  Uiso   1.00
H83    H     0.41285   0.97790   0.31933   0.00000  Uiso   1.00
O84    O     0.14381   0.43267   0.43373   0.00000  Uiso   1.00
O85    O     0.28834   0.86745   0.26551   0.00000  Uiso   1.00
O86    O     0.38856   0.90610   0.39744   0.00000  Uiso   1.00
N87    N     0.00440   0.44864   0.45210   0.00000  Uiso   1.00
N88    N     0.39480   0.75850   0.33222   0.00000  Uiso   1.00
N89    N     0.46618   0.07345   0.42623   0.00000  Uiso   1.00
N90    N     0.97465   0.39901   0.37620   0.00000  Uiso   1.00
N91    N     0.36504   0.70887   0.25632   0.00000  Uiso   1.00
N92    N     0.43643   0.02381   0.35033   0.00000  Uiso   1.00
C93    C     0.05770   0.86144   0.38788   0.00000  Uiso   1.00
C94    C     0.94582   0.88231   0.35178   0.00000  Uiso   1.00
C95    C     0.86323   0.87223   0.36296   0.00000  Uiso   1.00
C96    C     0.76688   0.89495   0.32477   0.00000  Uiso   1.00
C97    C     0.59515   0.92249   0.27595   0.00000  Uiso   1.00
C98    C     0.09560   0.77665   0.36282   0.00000  Uiso   1.00
C99    C     0.13896   0.67774   0.38329   0.00000  Uiso   1.00
C100   C     0.16871   0.61153   0.35440   0.00000  Uiso   1.00
C101   C     0.22958   0.47506   0.32274   0.00000  Uiso   1.00
C102   C     0.11507   0.96530   0.38895   0.00000  Uiso   1.00
C103   C     0.17483   0.02500   0.43139   0.00000  Uiso   1.00
C104   C     0.22099   0.11762   0.42450   0.00000  Uiso   1.00
C105   C     0.31210   0.27406   0.43341   0.00000  Uiso   1.00
C106   C     0.03345   0.91974   0.30019   0.00000  Uiso   1.00
C107   C     0.93265   0.91397   0.30415   0.00000  Uiso   1.00
C108   C     0.83640   0.93673   0.26594   0.00000  Uiso   1.00
C109   C     0.75369   0.92668   0.27706   0.00000  Uiso   1.00
C110   C     0.08243   0.80831   0.31519   0.00000  Uiso   1.00
C111   C     0.11213   0.74224   0.28627   0.00000  Uiso   1.00
C112   C     0.15551   0.64325   0.30669   0.00000  Uiso   1.00
C113   C     0.10190   0.99698   0.34132   0.00000  Uiso   1.00
C114   C     0.14799   0.08951   0.33437   0.00000  Uiso   1.00
C115   C     0.20780   0.14934   0.37678   0.00000  Uiso   1.00
H116   H     0.06796   0.83678   0.42496   0.00000  Uiso   1.00
H117   H     0.87345   0.84771   0.39982   0.00000  Uiso   1.00
H118   H     0.14915   0.65326   0.42015   0.00000  Uiso   1.00
H119   H     0.18500   0.00047   0.46824   0.00000  Uiso   1.00
H120   H     0.65200   0.87375   0.35094   0.00000  Uiso   1.00
H121   H     0.23334   0.46376   0.39381   0.00000  Uiso   1.00
H122   H     0.30896   0.19592   0.49522   0.00000  Uiso   1.00
H123   H     0.02320   0.94440   0.26311   0.00000  Uiso   1.00
H124   H     0.82624   0.96123   0.22908   0.00000  Uiso   1.00
H125   H     0.10193   0.76678   0.24941   0.00000  Uiso   1.00
H126   H     0.13779   0.11399   0.29750   0.00000  Uiso   1.00
H127   H     0.61367   0.96588   0.21236   0.00000  Uiso   1.00
H128   H     0.19503   0.55589   0.25523   0.00000  Uiso   1.00
H129   H     0.27063   0.28806   0.35664   0.00000  Uiso   1.00
O130   O     0.50407   0.92891   0.26218   0.00000  Uiso   1.00
O131   O     0.26679   0.39103   0.31843   0.00000  Uiso   1.00
O132   O     0.36599   0.35161   0.45148   0.00000  Uiso   1.00
N133   N     0.67001   0.89314   0.32299   0.00000  Uiso   1.00
N134   N     0.21352   0.50982   0.36307   0.00000  Uiso   1.00
N135   N     0.28423   0.19431   0.45788   0.00000  Uiso   1.00
N136   N     0.64939   0.94272   0.24843   0.00000  Uiso   1.00
N137   N     0.19290   0.55940   0.28851   0.00000  Uiso   1.00
N138   N     0.26361   0.24389   0.38332   0.00000  Uiso   1.00
C139   C     0.81754   0.83848   0.05124   0.00000  Uiso   1.00
C140   C     0.93028   0.84717   0.06271   0.00000  Uiso   1.00
C141   C     0.97081   0.82710   0.02921   0.00000  Uiso   1.00
C142   C     0.07590   0.83954   0.04696   0.00000  Uiso   1.00
C143   C     0.24150   0.84821   0.05726   0.00000  Uiso   1.00
C144   C     0.81297   0.75938   0.08948   0.00000  Uiso   1.00
C145   C     0.75485   0.66550   0.07848   0.00000  Uiso   1.00
C146   C     0.76117   0.60403   0.11876   0.00000  Uiso   1.00
C147   C     0.74458   0.47644   0.17061   0.00000  Uiso   1.00
C148   C     0.78788   0.94847   0.06396   0.00000  Uiso   1.00
C149   C     0.70865   0.01357   0.03150   0.00000  Uiso   1.00
C150   C     0.69384   0.11129   0.05031   0.00000  Uiso   1.00
C151   C     0.63831   0.27729   0.06253   0.00000  Uiso   1.00
C152   C     0.93210   0.89626   0.14234   0.00000  Uiso   1.00
C153   C     0.99250   0.87855   0.11220   0.00000  Uiso   1.00
C154   C     0.09756   0.89103   0.13000   0.00000  Uiso   1.00
C155   C     0.13824   0.87098   0.09653   0.00000  Uiso   1.00
C156   C     0.87519   0.79076   0.13896   0.00000  Uiso   1.00
C157   C     0.88160   0.72942   0.17927   0.00000  Uiso   1.00
C158   C     0.82351   0.63547   0.16833   0.00000  Uiso   1.00
C159   C     0.85011   0.97985   0.11344   0.00000  Uiso   1.00
C160   C     0.83541   0.07749   0.13230   0.00000  Uiso   1.00
C161   C     0.75618   0.14273   0.09988   0.00000  Uiso   1.00
H162   H     0.76910   0.81404   0.01272   0.00000  Uiso   1.00
H163   H     0.92263   0.80281   0.99092   0.00000  Uiso   1.00
H164   H     0.70670   0.64124   0.04018   0.00000  Uiso   1.00
H165   H     0.66052   0.98925   0.99321   0.00000  Uiso   1.00
H166   H     0.12030   0.80416   0.98858   0.00000  Uiso   1.00
H167   H     0.66496   0.46349   0.09245   0.00000  Uiso   1.00
H168   H     0.56758   0.19735   0.99341   0.00000  Uiso   1.00
H169   H     0.98055   0.92069   0.18087   0.00000  Uiso   1.00
H170   H     0.14569   0.91531   0.16830   0.00000  Uiso   1.00
H171   H     0.92975   0.75374   0.21756   0.00000  Uiso   1.00
H172   H     0.88358   0.10175   0.17059   0.00000  Uiso   1.00
H173   H     0.30135   0.89547   0.13255   0.00000  Uiso   1.00
H174   H     0.84600   0.55480   0.23642   0.00000  Uiso   1.00
H175   H     0.74863   0.28866   0.13738   0.00000  Uiso   1.00
O176   O     0.31565   0.84432   0.04927   0.00000  Uiso   1.00
O177   O     0.71825   0.39739   0.18554   0.00000  Uiso   1.00
O178   O     0.59049   0.36019   0.05560   0.00000  Uiso   1.00
N179   N     0.14024   0.82641   0.02419   0.00000  Uiso   1.00
N180   N     0.71454   0.50789   0.12130   0.00000  Uiso   1.00
N181   N     0.62348   0.19398   0.02871   0.00000  Uiso   1.00
N182   N     0.23766   0.87554   0.10166   0.00000  Uiso   1.00
N183   N     0.81196   0.55703   0.19877   0.00000  Uiso   1.00
N184   N     0.72090   0.24311   0.10618   0.00000  Uiso   1.00
C185   C     0.29923   0.58282   0.57723   0.00000  Uiso   1.00
C186   C     0.24965   0.60229   0.61217   0.00000  Uiso   1.00
C187   C     0.14631   0.59069   0.59963   0.00000  Uiso   1.00
C188   C     0.11613   0.61231   0.63690   0.00000  Uiso   1.00
C189   C     0.02840   0.63762   0.68383   0.00000  Uiso   1.00
C190   C     0.38302   0.49899   0.60315   0.00000  Uiso   1.00
C191   C     0.39182   0.40054   0.58302   0.00000  Uiso   1.00
C192   C     0.47393   0.33521   0.61270   0.00000  Uiso   1.00
C193   C     0.59330   0.20017   0.64562   0.00000  Uiso   1.00
C194   C     0.35422   0.68761   0.57702   0.00000  Uiso   1.00
C195   C     0.33883   0.74775   0.53493   0.00000  Uiso   1.00
C196   C     0.39671   0.84121   0.54261   0.00000  Uiso   1.00
C197   C     0.47136   0.99904   0.53497   0.00000  Uiso   1.00
C198   C     0.42940   0.64184   0.66572   0.00000  Uiso   1.00
C199   C     0.32036   0.63435   0.66023   0.00000  Uiso   1.00
C200   C     0.29033   0.65599   0.69753   0.00000  Uiso   1.00
C201   C     0.18696   0.64443   0.68504   0.00000  Uiso   1.00
C202   C     0.45372   0.53104   0.65121   0.00000  Uiso   1.00
C203   C     0.53584   0.46584   0.68092   0.00000  Uiso   1.00
C204   C     0.54476   0.36732   0.66085   0.00000  Uiso   1.00
C205   C     0.42492   0.71967   0.62509   0.00000  Uiso   1.00
C206   C     0.48285   0.81305   0.63283   0.00000  Uiso   1.00
C207   C     0.46754   0.87332   0.59076   0.00000  Uiso   1.00
H208   H     0.24419   0.55786   0.53982   0.00000  Uiso   1.00
H209   H     0.09162   0.56587   0.56243   0.00000  Uiso   1.00
H210   H     0.33710   0.37576   0.54583   0.00000  Uiso   1.00
H211   H     0.28411   0.72292   0.49775   0.00000  Uiso   1.00
H212   H     0.95365   0.58886   0.60870   0.00000  Uiso   1.00
H213   H     0.47128   0.18802   0.57369   0.00000  Uiso   1.00
H214   H     0.35955   0.92006   0.47230   0.00000  Uiso   1.00
H215   H     0.48445   0.66679   0.70314   0.00000  Uiso   1.00
H216   H     0.34506   0.68080   0.73471   0.00000  Uiso   1.00
H217   H     0.59054   0.49068   0.71811   0.00000  Uiso   1.00
H218   H     0.53755   0.83783   0.67003   0.00000  Uiso   1.00
H219   H     0.15936   0.68213   0.74854   0.00000  Uiso   1.00
H220   H     0.67699   0.28128   0.71352   0.00000  Uiso   1.00
H221   H     0.56525   0.01333   0.61213   0.00000  Uiso   1.00
O222   O     0.96048   0.64270   0.69645   0.00000  Uiso   1.00
O223   O     0.63960   0.11682   0.65051   0.00000  Uiso   1.00
O224   O     0.49300   0.07724   0.51749   0.00000  Uiso   1.00
N225   N     0.02119   0.60891   0.63728   0.00000  Uiso   1.00
N226   N     0.50514   0.23414   0.60454   0.00000  Uiso   1.00
N227   N     0.40069   0.91852   0.50975   0.00000  Uiso   1.00
N228   N     0.13188   0.65910   0.71252   0.00000  Uiso   1.00
N229   N     0.61582   0.28433   0.67979   0.00000  Uiso   1.00
N230   N     0.51138   0.96871   0.58499   0.00000  Uiso   1.00
C231   C     0.62446   0.56881   0.91021   0.00000  Uiso   1.00
C232   C     0.72190   0.57615   0.90321   0.00000  Uiso   1.00
C233   C     0.82040   0.55465   0.93960   0.00000  Uiso   1.00
C234   C     0.89932   0.56599   0.92578   0.00000  Uiso   1.00
C235   C     0.05351   0.57251   0.92227   0.00000  Uiso   1.00
C236   C     0.55390   0.49073   0.87017   0.00000  Uiso   1.00
C237   C     0.51114   0.39744   0.87878   0.00000  Uiso   1.00
C238   C     0.44863   0.33689   0.83714   0.00000  Uiso   1.00
C239   C     0.34193   0.21084   0.78234   0.00000  Uiso   1.00
C240   C     0.57359   0.67954   0.89608   0.00000  Uiso   1.00
C241   C     0.54736   0.74498   0.92647   0.00000  Uiso   1.00
C242   C     0.50141   0.84338   0.90665   0.00000  Uiso   1.00
C243   C     0.42529   0.01048   0.89208   0.00000  Uiso   1.00
C244   C     0.58946   0.62718   0.82095   0.00000  Uiso   1.00
C245   C     0.70289   0.60784   0.85472   0.00000  Uiso   1.00
C246   C     0.78168   0.61923   0.84084   0.00000  Uiso   1.00
C247   C     0.88028   0.59776   0.87721   0.00000  Uiso   1.00
C248   C     0.53489   0.52243   0.82168   0.00000  Uiso   1.00
C249   C     0.47242   0.46201   0.78002   0.00000  Uiso   1.00
C250   C     0.42958   0.36864   0.78857   0.00000  Uiso   1.00
C251   C     0.55458   0.71124   0.84760   0.00000  Uiso   1.00
C252   C     0.50865   0.80956   0.82772   0.00000  Uiso   1.00
C253   C     0.48236   0.87514   0.85808   0.00000  Uiso   1.00
H254   H     0.63925   0.54412   0.94795   0.00000  Uiso   1.00
H255   H     0.83508   0.53011   0.97711   0.00000  Uiso   1.00
H256   H     0.52586   0.37293   0.91630   0.00000  Uiso   1.00
H257   H     0.56208   0.72042   0.96399   0.00000  Uiso   1.00
H258   H     0.04380   0.52851   0.98806   0.00000  Uiso   1.00
H259   H     0.39176   0.19711   0.85983   0.00000  Uiso   1.00
H260   H     0.46814   0.92986   0.96039   0.00000  Uiso   1.00
H261   H     0.57466   0.65186   0.78320   0.00000  Uiso   1.00
H262   H     0.76695   0.64376   0.80332   0.00000  Uiso   1.00
H263   H     0.45773   0.48657   0.74251   0.00000  Uiso   1.00
H264   H     0.49395   0.83406   0.79020   0.00000  Uiso   1.00
H265   H     0.98851   0.62075   0.84700   0.00000  Uiso   1.00
H266   H     0.33646   0.28935   0.71878   0.00000  Uiso   1.00
H267   H     0.41285   0.02210   0.81933   0.00000  Uiso   1.00
O268   O     0.14381   0.56733   0.93373   0.00000  Uiso   1.00
O269   O     0.28834   0.13255   0.76551   0.00000  Uiso   1.00
O270   O     0.38856   0.09390   0.89744   0.00000  Uiso   1.00
N271   N     0.00440   0.55136   0.95210   0.00000  Uiso   1.00
N272   N     0.39480   0.24150   0.83222   0.00000  Uiso   1.00
N273   N     0.46618   0.92655   0.92623   0.00000  Uiso   1.00
N274   N     0.97465   0.60099   0.87620   0.00000  Uiso   1.00
N275   N     0.36504   0.29113   0.75632   0.00000  Uiso   1.00
N276   N     0.43643   0.97619   0.85033   0.00000  Uiso   1.00
C277   C     0.05770   0.13856   0.88788   0.00000  Uiso   1.00
C278   C     0.94582   0.11769   0.85178   0.00000  Uiso   1.00
C279   C     0.86323   0.12777   0.86296   0.00000  Uiso   1.00
C280   C     0.76688   0.10505   0.82477   0.00000  Uiso   1.00
C281   C     0.59515   0.07751   0.77595   0.00000  Uiso   1.00
C282   C     0.09560   0.22335   0.86282   0.00000  Uiso   1.00
C283   C     0.13896   0.32226   0.88329   0.00000  Uiso   1.00
C284   C     0.16871   0.38847   0.85440   0.00000  Uiso   1.00
C285   C     0.22958   0.52494   0.82274   0.00000  Uiso   1.00
C286   C     0.11507   0.03470   0.88895   0.00000  Uiso   1.00
C287   C     0.17483   0.97500   0.93139   0.00000  Uiso   1.00
C288   C     0.22099   0.88238   0.92450   0.00000  Uiso   1.00
C289   C     0.31210   0.72594   0.93341   0.00000  Uiso   1.00
C290   C     0.03345   0.08026   0.80019   0.00000  Uiso   1.00
C291   C     0.93265   0.08603   0.80415   0.00000  Uiso   1.00
C292   C     0.83640   0.06327   0.76594   0.00000  Uiso   1.00
C293   C     0.75369   0.07332   0.77706   0.00000  Uiso   1.00
C294   C     0.08243   0.19169   0.81519   0.00000  Uiso   1.00
C295   C     0.11213   0.25776   0.78627   0.00000  Uiso   1.00
C296   C     0.15551   0.35675   0.80669   0.00000  Uiso   1.00
C297   C     0.10190   0.00302   0.84132   0.00000  Uiso   1.00
C298   C     0.14799   0.91049   0.83437   0.00000  Uiso   1.00
C299   C     0.20780   0.85066   0.87678   0.00000  Uiso   1.00
H300   H     0.06796   0.16322   0.92496   0.00000  Uiso   1.00
H301   H     0.87345   0.15229   0.89982   0.00000  Uiso   1.00
H302   H     0.14915   0.34674   0.92015   0.00000  Uiso   1.00
H303   H     0.18500   0.99953   0.96824   0.00000  Uiso   1.00
H304   H     0.65200   0.12625   0.85094   0.00000  Uiso   1.00
H305   H     0.23334   0.53624   0.89381   0.00000  Uiso   1.00
H306   H     0.30896   0.80408   0.99522   0.00000  Uiso   1.00
H307   H     0.02320   0.05560   0.76311   0.00000  Uiso   1.00
H308   H     0.82624   0.03877   0.72908   0.00000  Uiso   1.00
H309   H     0.10193   0.23322   0.74941   0.00000  Uiso   1.00
H310   H     0.13779   0.88601   0.79750   0.00000  Uiso   1.00
H311   H     0.61367   0.03412   0.71236   0.00000  Uiso   1.00
H312   H     0.19503   0.44411   0.75523   0.00000  Uiso   1.00
H313   H     0.27063   0.71194   0.85664   0.00000  Uiso   1.00
O314   O     0.50407   0.07109   0.76218   0.00000  Uiso   1.00
O315   O     0.26679   0.60897   0.81843   0.00000  Uiso   1.00
O316   O     0.36599   0.64839   0.95148   0.00000  Uiso   1.00
N317   N     0.67001   0.10686   0.82299   0.00000  Uiso   1.00
N318   N     0.21352   0.49018   0.86307   0.00000  Uiso   1.00
N319   N     0.28423   0.80569   0.95788   0.00000  Uiso   1.00
N320   N     0.64939   0.05728   0.74843   0.00000  Uiso   1.00
N321   N     0.19290   0.44060   0.78851   0.00000  Uiso   1.00
N322   N     0.26361   0.75611   0.88332   0.00000  Uiso   1.00
C323   C     0.81754   0.16152   0.55124   0.00000  Uiso   1.00
C324   C     0.93028   0.15283   0.56271   0.00000  Uiso   1.00
C325   C     0.97081   0.17290   0.52921   0.00000  Uiso   1.00
C326   C     0.07590   0.16046   0.54696   0.00000  Uiso   1.00
C327   C     0.24150   0.15179   0.55726   0.00000  Uiso   1.00
C328   C     0.81297   0.24062   0.58948   0.00000  Uiso   1.00
C329   C     0.75485   0.33450   0.57848   0.00000  Uiso   1.00
C330   C     0.76117   0.39597   0.61876   0.00000  Uiso   1.00
C331   C     0.74458   0.52356   0.67061   0.00000  Uiso   1.00
C332   C     0.78788   0.05153   0.56396   0.00000  Uiso   1.00
C333   C     0.70865   0.98643   0.53150   0.00000  Uiso   1.00
C334   C     0.69384   0.88871   0.55031   0.00000  Uiso   1.00
C335   C     0.63831   0.72271   0.56253   0.00000  Uiso   1.00
C336   C     0.93210   0.10374   0.64234   0.00000  Uiso   1.00
C337   C     0.99250   0.12145   0.61220   0.00000  Uiso   1.00
C338   C     0.09756   0.10897   0.63000   0.00000  Uiso   1.00
C339   C     0.13824   0.12902   0.59653   0.00000  Uiso   1.00
C340   C     0.87519   0.20924   0.63896   0.00000  Uiso   1.00
C341   C     0.88160   0.27058   0.67927   0.00000  Uiso   1.00
C342   C     0.82351   0.36453   0.66833   0.00000  Uiso   1.00
C343   C     0.85011   0.02015   0.61344   0.00000  Uiso   1.00
C344   C     0.83541   0.92251   0.63230   0.00000  Uiso   1.00
C345   C     0.75618   0.85727   0.59988   0.00000  Uiso   1.00
H346   H     0.76910   0.18596   0.51272   0.00000  Uiso   1.00
H347   H     0.92263   0.19719   0.49092   0.00000  Uiso   1.00
H348   H     0.70670   0.35876   0.54018   0.00000  Uiso   1.00
H349   H     0.66052   0.01075   0.49321   0.00000  Uiso   1.00
H350   H     0.12030   0.19584   0.48858   0.00000  Uiso   1.00
H351   H     0.66496   0.53651   0.59245   0.00000  Uiso   1.00
H352   H     0.56758   0.80265   0.49341   0.00000  Uiso   1.00
H353   H     0.98055   0.07931   0.68087   0.00000  Uiso   1.00
H354   H     0.14569   0.08469   0.66830   0.00000  Uiso   1.00
H355   H     0.92975   0.24626   0.71756   0.00000  Uiso   1.00
H356   H     0.88358   0.89825   0.67059   0.00000  Uiso   1.00
H357   H     0.30135   0.10453   0.63255   0.00000  Uiso   1.00
H358   H     0.84600   0.44520   0.73642   0.00000  Uiso   1.00
H359   H     0.74863   0.71134   0.63738   0.00000  Uiso   1.00
O360   O     0.31565   0.15568   0.54927   0.00000  Uiso   1.00
O361   O     0.71825   0.60261   0.68554   0.00000  Uiso   1.00
O362   O     0.59049   0.63981   0.55560   0.00000  Uiso   1.00
N363   N     0.14024   0.17359   0.52419   0.00000  Uiso   1.00
N364   N     0.71454   0.49211   0.62130   0.00000  Uiso   1.00
N365   N     0.62348   0.80602   0.52871   0.00000  Uiso   1.00
N366   N     0.23766   0.12446   0.60166   0.00000  Uiso   1.00
N367   N     0.81196   0.44297   0.69877   0.00000  Uiso   1.00
N368   N     0.72090   0.75689   0.60618   0.00000  Uiso   1.00
