data_job_06319
_audit_creation_date              2018-12-19
_audit_creation_method            'Materials Studio'
_symmetry_space_group_name_H-M    'P1'
_symmetry_Int_Tables_number       1
_symmetry_cell_setting            triclinic
loop_
_symmetry_equiv_pos_as_xyz
  x,y,z
_cell_length_a                    17.0768
_cell_length_b                    17.1394
_cell_length_c                    17.2257
_cell_angle_alpha                 70.8697
_cell_angle_beta                  70.9938
_cell_angle_gamma                 109.5530
loop_
_atom_site_label
_atom_site_type_symbol
_atom_site_fract_x
_atom_site_fract_y
_atom_site_fract_z
_atom_site_U_iso_or_equiv
_atom_site_adp_type
_atom_site_occupancy
C1     C     0.51633   0.61717   0.17929   0.00000  Uiso   1.00
C2     C     0.41828   0.53146   0.25363   0.00000  Uiso   1.00
C3     C     0.33169   0.52487   0.26471   0.00000  Uiso   1.00
C4     C     0.24992   0.44044   0.33694   0.00000  Uiso   1.00
C5     C     0.09695   0.31879   0.44343   0.00000  Uiso   1.00
C6     C     0.56581   0.64468   0.23311   0.00000  Uiso   1.00
C7     C     0.60327   0.73329   0.22692   0.00000  Uiso   1.00
C8     C     0.64570   0.74418   0.28186   0.00000  Uiso   1.00
C9     C     0.72183   0.79833   0.35643   0.00000  Uiso   1.00
C10    C     0.57091   0.58066   0.12556   0.00000  Uiso   1.00
C11    C     0.61269   0.61545   0.02893   0.00000  Uiso   1.00
C12    C     0.65943   0.57244   0.99333   0.00000  Uiso   1.00
C13    C     0.74348   0.52719   0.90092   0.00000  Uiso   1.00
C14    C     0.52510   0.47896   0.28787   0.00000  Uiso   1.00
C15    C     0.42305   0.45639   0.31261   0.00000  Uiso   1.00
C16    C     0.34139   0.37195   0.38484   0.00000  Uiso   1.00
C17    C     0.25469   0.36523   0.39603   0.00000  Uiso   1.00
C18    C     0.57057   0.56962   0.29208   0.00000  Uiso   1.00
C19    C     0.61297   0.58038   0.34705   0.00000  Uiso   1.00
C20    C     0.65047   0.66897   0.34095   0.00000  Uiso   1.00
C21    C     0.57567   0.50558   0.18453   0.00000  Uiso   1.00
C22    C     0.62237   0.46253   0.14907   0.00000  Uiso   1.00
C23    C     0.66420   0.49724   0.05242   0.00000  Uiso   1.00
H24    H     0.51263   0.67562   0.13338   0.00000  Uiso   1.00
H25    H     0.32804   0.58298   0.21906   0.00000  Uiso   1.00
H26    H     0.59958   0.79137   0.18126   0.00000  Uiso   1.00
H27    H     0.60899   0.67354   0.98332   0.00000  Uiso   1.00
H28    H     0.12548   0.44718   0.34008   0.00000  Uiso   1.00
H29    H     0.69808   0.88660   0.26036   0.00000  Uiso   1.00
H30    H     0.71791   0.63813   0.84296   0.00000  Uiso   1.00
H31    H     0.52881   0.42051   0.33379   0.00000  Uiso   1.00
H32    H     0.34509   0.31387   0.43047   0.00000  Uiso   1.00
H33    H     0.61664   0.52227   0.39267   0.00000  Uiso   1.00
H34    H     0.62604   0.40444   0.19473   0.00000  Uiso   1.00
H35    H     0.13932   0.22877   0.51168   0.00000  Uiso   1.00
H36    H     0.71192   0.66818   0.43195   0.00000  Uiso   1.00
H37    H     0.73175   0.41971   0.01455   0.00000  Uiso   1.00
O38    O     0.01126   0.27244   0.48588   0.00000  Uiso   1.00
O39    O     0.76250   0.84894   0.38127   0.00000  Uiso   1.00
O40    O     0.78852   0.52295   0.83365   0.00000  Uiso   1.00
N41    N     0.15395   0.41041   0.36719   0.00000  Uiso   1.00
N42    N     0.68928   0.82123   0.29267   0.00000  Uiso   1.00
N43    N     0.70785   0.58895   0.90242   0.00000  Uiso   1.00
N44    N     0.16140   0.29288   0.45952   0.00000  Uiso   1.00
N45    N     0.69673   0.70370   0.38500   0.00000  Uiso   1.00
N46    N     0.71530   0.47142   0.99475   0.00000  Uiso   1.00
C47    C     0.09940   0.48160   0.69873   0.00000  Uiso   1.00
C48    C     0.11121   0.57992   0.67641   0.00000  Uiso   1.00
C49    C     0.19032   0.66561   0.60276   0.00000  Uiso   1.00
C50    C     0.18731   0.74782   0.59427   0.00000  Uiso   1.00
C51    C     0.21774   0.90101   0.55006   0.00000  Uiso   1.00
C52    C     0.07867   0.43374   0.80040   0.00000  Uiso   1.00
C53    C     0.13042   0.39651   0.83099   0.00000  Uiso   1.00
C54    C     0.10001   0.35565   0.92687   0.00000  Uiso   1.00
C55    C     0.07988   0.28183   0.07517   0.00000  Uiso   1.00
C56    C     0.00823   0.42677   0.69881   0.00000  Uiso   1.00
C57    C     0.00074   0.38366   0.64401   0.00000  Uiso   1.00
C58    C     0.91101   0.33691   0.65438   0.00000  Uiso   1.00
C59    C     0.78152   0.25228   0.64495   0.00000  Uiso   1.00
C60    C     0.95336   0.47522   0.81462   0.00000  Uiso   1.00
C61    C     0.03189   0.57645   0.73936   0.00000  Uiso   1.00
C62    C     0.02876   0.65855   0.73097   0.00000  Uiso   1.00
C63    C     0.10785   0.74435   0.65732   0.00000  Uiso   1.00
C64    C     0.99936   0.43027   0.86334   0.00000  Uiso   1.00
C65    C     0.96885   0.38945   0.95920   0.00000  Uiso   1.00
C66    C     0.02055   0.35218   0.98993   0.00000  Uiso   1.00
C67    C     0.92891   0.42331   0.76175   0.00000  Uiso   1.00
C68    C     0.83918   0.37661   0.77222   0.00000  Uiso   1.00
C69    C     0.83155   0.33344   0.71744   0.00000  Uiso   1.00
H70    H     0.16115   0.48430   0.64974   0.00000  Uiso   1.00
H71    H     0.25170   0.66826   0.55407   0.00000  Uiso   1.00
H72    H     0.19179   0.39919   0.78227   0.00000  Uiso   1.00
H73    H     0.06214   0.38636   0.59531   0.00000  Uiso   1.00
H74    H     0.31712   0.87069   0.47579   0.00000  Uiso   1.00
H75    H     0.19080   0.30333   0.95695   0.00000  Uiso   1.00
H76    H     0.91739   0.27624   0.56272   0.00000  Uiso   1.00
H77    H     0.89161   0.47252   0.86363   0.00000  Uiso   1.00
H78    H     0.96736   0.65585   0.77969   0.00000  Uiso   1.00
H79    H     0.90747   0.38678   0.00789   0.00000  Uiso   1.00
H80    H     0.77781   0.37394   0.82094   0.00000  Uiso   1.00
H81    H     0.08635   0.86062   0.65891   0.00000  Uiso   1.00
H82    H     0.96002   0.29324   0.14008   0.00000  Uiso   1.00
H83    H     0.68662   0.26617   0.74585   0.00000  Uiso   1.00
O84    O     0.25644   0.98647   0.50830   0.00000  Uiso   1.00
O85    O     0.09070   0.24208   0.13957   0.00000  Uiso   1.00
O86    O     0.73201   0.20656   0.62235   0.00000  Uiso   1.00
N87    N     0.25240   0.84316   0.53039   0.00000  Uiso   1.00
N88    N     0.13431   0.31272   0.98025   0.00000  Uiso   1.00
N89    N     0.87869   0.28738   0.61170   0.00000  Uiso   1.00
N90    N     0.12823   0.83774   0.62893   0.00000  Uiso   1.00
N91    N     0.01013   0.30730   0.07879   0.00000  Uiso   1.00
N92    N     0.75451   0.28196   0.71024   0.00000  Uiso   1.00
C93    C     0.38314   0.90023   0.79537   0.00000  Uiso   1.00
C94    C     0.46980   0.88800   0.78495   0.00000  Uiso   1.00
C95    C     0.47669   0.80838   0.78944   0.00000  Uiso   1.00
C96    C     0.56200   0.81107   0.77820   0.00000  Uiso   1.00
C97    C     0.68503   0.77995   0.76437   0.00000  Uiso   1.00
C98    C     0.35677   0.92269   0.87572   0.00000  Uiso   1.00
C99    C     0.26862   0.87225   0.95652   0.00000  Uiso   1.00
C100   C     0.25879   0.90414   0.02168   0.00000  Uiso   1.00
C101   C     0.20633   0.92693   0.14874   0.00000  Uiso   1.00
C102   C     0.41828   0.99030   0.70629   0.00000  Uiso   1.00
C103   C     0.38185   0.99673   0.64466   0.00000  Uiso   1.00
C104   C     0.42379   0.08556   0.56718   0.00000  Uiso   1.00
C105   C     0.46683   0.21333   0.43119   0.00000  Uiso   1.00
C106   C     0.52240   0.04658   0.76740   0.00000  Uiso   1.00
C107   C     0.54543   0.96748   0.76976   0.00000  Uiso   1.00
C108   C     0.63076   0.97029   0.75850   0.00000  Uiso   1.00
C109   C     0.63778   0.89070   0.76298   0.00000  Uiso   1.00
C110   C     0.43240   0.00217   0.86053   0.00000  Uiso   1.00
C111   C     0.42270   0.03415   0.92558   0.00000  Uiso   1.00
C112   C     0.33457   0.98377   0.00646   0.00000  Uiso   1.00
C113   C     0.49392   0.06979   0.69110   0.00000  Uiso   1.00
C114   C     0.53592   0.15864   0.61371   0.00000  Uiso   1.00
C115   C     0.49956   0.16519   0.55197   0.00000  Uiso   1.00
H116   H     0.32425   0.83835   0.80720   0.00000  Uiso   1.00
H117   H     0.41813   0.74688   0.80121   0.00000  Uiso   1.00
H118   H     0.21010   0.81074   0.96825   0.00000  Uiso   1.00
H119   H     0.32331   0.93520   0.65644   0.00000  Uiso   1.00
H120   H     0.55557   0.68051   0.78790   0.00000  Uiso   1.00
H121   H     0.11691   0.81518   0.14011   0.00000  Uiso   1.00
H122   H     0.35563   0.07763   0.48258   0.00000  Uiso   1.00
H123   H     0.58129   0.10846   0.75558   0.00000  Uiso   1.00
H124   H     0.68928   0.03181   0.74675   0.00000  Uiso   1.00
H125   H     0.48125   0.09567   0.91380   0.00000  Uiso   1.00
H126   H     0.59445   0.22013   0.60198   0.00000  Uiso   1.00
H127   H     0.77564   0.91177   0.74370   0.00000  Uiso   1.00
H128   H     0.33698   0.04644   0.09591   0.00000  Uiso   1.00
H129   H     0.57570   0.30889   0.43838   0.00000  Uiso   1.00
O130   O     0.73199   0.74083   0.76095   0.00000  Uiso   1.00
O131   O     0.15649   0.91753   0.22303   0.00000  Uiso   1.00
O132   O     0.46969   0.26185   0.36037   0.00000  Uiso   1.00
N133   N     0.59255   0.74546   0.77869   0.00000  Uiso   1.00
N134   N     0.18243   0.87136   0.10799   0.00000  Uiso   1.00
N135   N     0.40560   0.11674   0.49327   0.00000  Uiso   1.00
N136   N     0.71096   0.86990   0.75491   0.00000  Uiso   1.00
N137   N     0.30085   0.99580   0.08421   0.00000  Uiso   1.00
N138   N     0.52402   0.24118   0.46949   0.00000  Uiso   1.00
C139   C     0.48367   0.38283   0.82071   0.00000  Uiso   1.00
C140   C     0.58172   0.46854   0.74637   0.00000  Uiso   1.00
C141   C     0.66830   0.47513   0.73529   0.00000  Uiso   1.00
C142   C     0.75007   0.55956   0.66306   0.00000  Uiso   1.00
C143   C     0.90305   0.68121   0.55657   0.00000  Uiso   1.00
C144   C     0.43419   0.35532   0.76689   0.00000  Uiso   1.00
C145   C     0.39673   0.26671   0.77308   0.00000  Uiso   1.00
C146   C     0.35430   0.25582   0.71814   0.00000  Uiso   1.00
C147   C     0.27817   0.20167   0.64357   0.00000  Uiso   1.00
C148   C     0.42909   0.41934   0.87444   0.00000  Uiso   1.00
C149   C     0.38731   0.38455   0.97107   0.00000  Uiso   1.00
C150   C     0.34056   0.42756   0.00667   0.00000  Uiso   1.00
C151   C     0.25652   0.47281   0.09908   0.00000  Uiso   1.00
C152   C     0.47490   0.52104   0.71213   0.00000  Uiso   1.00
C153   C     0.57695   0.54361   0.68739   0.00000  Uiso   1.00
C154   C     0.65861   0.62805   0.61516   0.00000  Uiso   1.00
C155   C     0.74531   0.63477   0.60397   0.00000  Uiso   1.00
C156   C     0.42943   0.43038   0.70792   0.00000  Uiso   1.00
C157   C     0.38703   0.41962   0.65295   0.00000  Uiso   1.00
C158   C     0.34953   0.33103   0.65905   0.00000  Uiso   1.00
C159   C     0.42433   0.49442   0.81547   0.00000  Uiso   1.00
C160   C     0.37763   0.53747   0.85093   0.00000  Uiso   1.00
C161   C     0.33579   0.50276   0.94758   0.00000  Uiso   1.00
H162   H     0.48737   0.32438   0.86662   0.00000  Uiso   1.00
H163   H     0.67196   0.41702   0.78094   0.00000  Uiso   1.00
H164   H     0.40041   0.20863   0.81874   0.00000  Uiso   1.00
H165   H     0.39101   0.32646   0.01668   0.00000  Uiso   1.00
H166   H     0.87452   0.55282   0.65992   0.00000  Uiso   1.00
H167   H     0.30192   0.11340   0.73964   0.00000  Uiso   1.00
H168   H     0.28208   0.36187   0.15704   0.00000  Uiso   1.00
H169   H     0.47119   0.57949   0.66621   0.00000  Uiso   1.00
H170   H     0.65491   0.68613   0.56953   0.00000  Uiso   1.00
H171   H     0.38336   0.47773   0.60733   0.00000  Uiso   1.00
H172   H     0.37396   0.59556   0.80527   0.00000  Uiso   1.00
H173   H     0.86068   0.77123   0.48832   0.00000  Uiso   1.00
H174   H     0.28808   0.33181   0.56805   0.00000  Uiso   1.00
H175   H     0.26825   0.58029   0.98545   0.00000  Uiso   1.00
O176   O     0.98874   0.72756   0.51412   0.00000  Uiso   1.00
O177   O     0.23750   0.15106   0.61873   0.00000  Uiso   1.00
O178   O     0.21148   0.47705   0.16635   0.00000  Uiso   1.00
N179   N     0.84605   0.58959   0.63281   0.00000  Uiso   1.00
N180   N     0.31072   0.17877   0.70734   0.00000  Uiso   1.00
N181   N     0.29215   0.41105   0.09758   0.00000  Uiso   1.00
N182   N     0.83860   0.70712   0.54048   0.00000  Uiso   1.00
N183   N     0.30327   0.29630   0.61500   0.00000  Uiso   1.00
N184   N     0.28470   0.52858   0.00525   0.00000  Uiso   1.00
C185   C     0.90060   0.51840   0.30127   0.00000  Uiso   1.00
C186   C     0.88879   0.42008   0.32359   0.00000  Uiso   1.00
C187   C     0.80968   0.33439   0.39724   0.00000  Uiso   1.00
C188   C     0.81269   0.25218   0.40573   0.00000  Uiso   1.00
C189   C     0.78226   0.09899   0.44994   0.00000  Uiso   1.00
C190   C     0.92132   0.56626   0.19960   0.00000  Uiso   1.00
C191   C     0.86958   0.60349   0.16901   0.00000  Uiso   1.00
C192   C     0.89999   0.64435   0.07313   0.00000  Uiso   1.00
C193   C     0.92012   0.71817   0.92483   0.00000  Uiso   1.00
C194   C     0.99177   0.57323   0.30119   0.00000  Uiso   1.00
C195   C     0.99926   0.61634   0.35599   0.00000  Uiso   1.00
C196   C     0.08899   0.66309   0.34562   0.00000  Uiso   1.00
C197   C     0.21848   0.74772   0.35505   0.00000  Uiso   1.00
C198   C     0.04664   0.52478   0.18538   0.00000  Uiso   1.00
C199   C     0.96811   0.42355   0.26064   0.00000  Uiso   1.00
C200   C     0.97124   0.34145   0.26903   0.00000  Uiso   1.00
C201   C     0.89215   0.25565   0.34268   0.00000  Uiso   1.00
C202   C     0.00064   0.56973   0.13666   0.00000  Uiso   1.00
C203   C     0.03115   0.61055   0.04080   0.00000  Uiso   1.00
C204   C     0.97945   0.64782   0.01007   0.00000  Uiso   1.00
C205   C     0.07109   0.57669   0.23825   0.00000  Uiso   1.00
C206   C     0.16082   0.62339   0.22778   0.00000  Uiso   1.00
C207   C     0.16845   0.66656   0.28256   0.00000  Uiso   1.00
H208   H     0.83885   0.51570   0.35026   0.00000  Uiso   1.00
H209   H     0.74830   0.33174   0.44593   0.00000  Uiso   1.00
H210   H     0.80820   0.60081   0.21773   0.00000  Uiso   1.00
H211   H     0.93786   0.61364   0.40469   0.00000  Uiso   1.00
H212   H     0.68288   0.12931   0.52421   0.00000  Uiso   1.00
H213   H     0.80920   0.69667   0.04305   0.00000  Uiso   1.00
H214   H     0.08261   0.72376   0.43728   0.00000  Uiso   1.00
H215   H     0.10839   0.52748   0.13637   0.00000  Uiso   1.00
H216   H     0.03264   0.34415   0.22031   0.00000  Uiso   1.00
H217   H     0.09253   0.61322   0.99211   0.00000  Uiso   1.00
H218   H     0.22219   0.62606   0.17907   0.00000  Uiso   1.00
H219   H     0.91365   0.13938   0.34109   0.00000  Uiso   1.00
H220   H     0.03998   0.70676   0.85992   0.00000  Uiso   1.00
H221   H     0.31338   0.73383   0.25415   0.00000  Uiso   1.00
O222   O     0.74355   0.01353   0.49170   0.00000  Uiso   1.00
O223   O     0.90930   0.75792   0.86043   0.00000  Uiso   1.00
O224   O     0.26799   0.79344   0.37765   0.00000  Uiso   1.00
N225   N     0.74760   0.15684   0.46961   0.00000  Uiso   1.00
N226   N     0.86569   0.68728   0.01975   0.00000  Uiso   1.00
N227   N     0.12131   0.71262   0.38830   0.00000  Uiso   1.00
N228   N     0.87177   0.16226   0.37107   0.00000  Uiso   1.00
N229   N     0.98987   0.69270   0.92121   0.00000  Uiso   1.00
N230   N     0.24548   0.71804   0.28976   0.00000  Uiso   1.00
C231   C     0.61686   0.09976   0.20463   0.00000  Uiso   1.00
C232   C     0.53020   0.11200   0.21506   0.00000  Uiso   1.00
C233   C     0.52331   0.19162   0.21056   0.00000  Uiso   1.00
C234   C     0.43800   0.18893   0.22180   0.00000  Uiso   1.00
C235   C     0.31497   0.22004   0.23563   0.00000  Uiso   1.00
C236   C     0.64323   0.07731   0.12429   0.00000  Uiso   1.00
C237   C     0.73137   0.12775   0.04348   0.00000  Uiso   1.00
C238   C     0.74121   0.09586   0.97832   0.00000  Uiso   1.00
C239   C     0.79367   0.07307   0.85126   0.00000  Uiso   1.00
C240   C     0.58172   0.00970   0.29371   0.00000  Uiso   1.00
C241   C     0.61815   0.00327   0.35534   0.00000  Uiso   1.00
C242   C     0.57621   0.91444   0.43282   0.00000  Uiso   1.00
C243   C     0.53317   0.78667   0.56881   0.00000  Uiso   1.00
C244   C     0.47760   0.95342   0.23260   0.00000  Uiso   1.00
C245   C     0.45457   0.03252   0.23024   0.00000  Uiso   1.00
C246   C     0.36924   0.02971   0.24150   0.00000  Uiso   1.00
C247   C     0.36222   0.10930   0.23702   0.00000  Uiso   1.00
C248   C     0.56760   0.99783   0.13947   0.00000  Uiso   1.00
C249   C     0.57730   0.96585   0.07442   0.00000  Uiso   1.00
C250   C     0.66543   0.01623   0.99354   0.00000  Uiso   1.00
C251   C     0.50608   0.93021   0.30890   0.00000  Uiso   1.00
C252   C     0.46408   0.84136   0.38629   0.00000  Uiso   1.00
C253   C     0.50044   0.83481   0.44803   0.00000  Uiso   1.00
H254   H     0.67575   0.16165   0.19280   0.00000  Uiso   1.00
H255   H     0.58187   0.25312   0.19879   0.00000  Uiso   1.00
H256   H     0.78990   0.18926   0.03175   0.00000  Uiso   1.00
H257   H     0.67669   0.06480   0.34356   0.00000  Uiso   1.00
H258   H     0.44443   0.31949   0.21210   0.00000  Uiso   1.00
H259   H     0.88309   0.18482   0.85989   0.00000  Uiso   1.00
H260   H     0.64437   0.92237   0.51742   0.00000  Uiso   1.00
H261   H     0.41871   0.89154   0.24442   0.00000  Uiso   1.00
H262   H     0.31072   0.96819   0.25326   0.00000  Uiso   1.00
H263   H     0.51875   0.90433   0.08620   0.00000  Uiso   1.00
H264   H     0.40555   0.77987   0.39802   0.00000  Uiso   1.00
H265   H     0.22436   0.08823   0.25630   0.00000  Uiso   1.00
H266   H     0.66302   0.95356   0.90409   0.00000  Uiso   1.00
H267   H     0.42430   0.69111   0.56162   0.00000  Uiso   1.00
O268   O     0.26801   0.25917   0.23905   0.00000  Uiso   1.00
O269   O     0.84351   0.08247   0.77697   0.00000  Uiso   1.00
O270   O     0.53031   0.73815   0.63963   0.00000  Uiso   1.00
N271   N     0.40745   0.25454   0.22131   0.00000  Uiso   1.00
N272   N     0.81757   0.12864   0.89201   0.00000  Uiso   1.00
N273   N     0.59440   0.88326   0.50673   0.00000  Uiso   1.00
N274   N     0.28903   0.13010   0.24509   0.00000  Uiso   1.00
N275   N     0.69915   0.00420   0.91579   0.00000  Uiso   1.00
N276   N     0.47598   0.75882   0.53051   0.00000  Uiso   1.00
