data_job_06413
_audit_creation_date              2018-12-19
_audit_creation_method            'Materials Studio'
_symmetry_space_group_name_H-M    'P1'
_symmetry_Int_Tables_number       1
_symmetry_cell_setting            triclinic
loop_
_symmetry_equiv_pos_as_xyz
  x,y,z
_cell_length_a                    9.5222
_cell_length_b                    20.1472
_cell_length_c                    20.7610
_cell_angle_alpha                 117.5220
_cell_angle_beta                  79.0768
_cell_angle_gamma                 85.7972
loop_
_atom_site_label
_atom_site_type_symbol
_atom_site_fract_x
_atom_site_fract_y
_atom_site_fract_z
_atom_site_U_iso_or_equiv
_atom_site_adp_type
_atom_site_occupancy
C1     C     0.98445   0.74192   0.54643   0.00000  Uiso   1.00
C2     C     0.04237   0.66149   0.52963   0.00000  Uiso   1.00
C3     C     0.16431   0.61272   0.47387   0.00000  Uiso   1.00
C4     C     0.19933   0.54147   0.46752   0.00000  Uiso   1.00
C5     C     0.30200   0.41986   0.43415   0.00000  Uiso   1.00
C6     C     0.82691   0.74315   0.54098   0.00000  Uiso   1.00
C7     C     0.76769   0.76304   0.49477   0.00000  Uiso   1.00
C8     C     0.62132   0.76054   0.49799   0.00000  Uiso   1.00
C9     C     0.38946   0.76576   0.48229   0.00000  Uiso   1.00
C10    C     0.97808   0.79384   0.62889   0.00000  Uiso   1.00
C11    C     0.04594   0.85637   0.65660   0.00000  Uiso   1.00
C12    C     0.02682   0.89656   0.73384   0.00000  Uiso   1.00
C13    C     0.02969   0.98048   0.85463   0.00000  Uiso   1.00
C14    C     0.82981   0.70212   0.63431   0.00000  Uiso   1.00
C15    C     0.95837   0.63987   0.57736   0.00000  Uiso   1.00
C16    C     0.99322   0.56868   0.57110   0.00000  Uiso   1.00
C17    C     0.11519   0.51981   0.51534   0.00000  Uiso   1.00
C18    C     0.74292   0.72153   0.58871   0.00000  Uiso   1.00
C19    C     0.59660   0.71900   0.59201   0.00000  Uiso   1.00
C20    C     0.53717   0.73888   0.54581   0.00000  Uiso   1.00
C21    C     0.89409   0.77222   0.67662   0.00000  Uiso   1.00
C22    C     0.87486   0.81232   0.75383   0.00000  Uiso   1.00
C23    C     0.94268   0.87490   0.78166   0.00000  Uiso   1.00
H24    H     0.04983   0.75875   0.50926   0.00000  Uiso   1.00
H25    H     0.22927   0.62947   0.43694   0.00000  Uiso   1.00
H26    H     0.83271   0.77978   0.45785   0.00000  Uiso   1.00
H27    H     0.11093   0.87308   0.61965   0.00000  Uiso   1.00
H28    H     0.39114   0.47659   0.37778   0.00000  Uiso   1.00
H29    H     0.55496   0.79355   0.42189   0.00000  Uiso   1.00
H30    H     0.14163   0.99031   0.76308   0.00000  Uiso   1.00
H31    H     0.76441   0.68528   0.67147   0.00000  Uiso   1.00
H32    H     0.92820   0.55196   0.60805   0.00000  Uiso   1.00
H33    H     0.53163   0.70227   0.62896   0.00000  Uiso   1.00
H34    H     0.80985   0.79558   0.79076   0.00000  Uiso   1.00
H35    H     0.14678   0.41368   0.51666   0.00000  Uiso   1.00
H36    H     0.31059   0.73065   0.56077   0.00000  Uiso   1.00
H37    H     0.89726   0.92740   0.90196   0.00000  Uiso   1.00
O38    O     0.38182   0.35875   0.40256   0.00000  Uiso   1.00
O39    O     0.28478   0.77461   0.46043   0.00000  Uiso   1.00
O40    O     0.05449   0.03274   0.90806   0.00000  Uiso   1.00
N41    N     0.31117   0.48008   0.41918   0.00000  Uiso   1.00
N42    N     0.52940   0.77641   0.46041   0.00000  Uiso   1.00
N43    N     0.07785   0.96038   0.77940   0.00000  Uiso   1.00
N44    N     0.17968   0.44623   0.49391   0.00000  Uiso   1.00
N45    N     0.39791   0.74256   0.53514   0.00000  Uiso   1.00
N46    N     0.94636   0.92652   0.85413   0.00000  Uiso   1.00
C47    C     0.53083   0.45537   0.19375   0.00000  Uiso   1.00
C48    C     0.57940   0.47450   0.13093   0.00000  Uiso   1.00
C49    C     0.65071   0.53375   0.13609   0.00000  Uiso   1.00
C50    C     0.68586   0.54177   0.07234   0.00000  Uiso   1.00
C51    C     0.76654   0.57902   0.98492   0.00000  Uiso   1.00
C52    C     0.36767   0.45657   0.20371   0.00000  Uiso   1.00
C53    C     0.26097   0.50073   0.27007   0.00000  Uiso   1.00
C54    C     0.11789   0.49365   0.26758   0.00000  Uiso   1.00
C55    C     0.86987   0.50302   0.29317   0.00000  Uiso   1.00
C56    C     0.60128   0.37261   0.16274   0.00000  Uiso   1.00
C57    C     0.69098   0.34617   0.19465   0.00000  Uiso   1.00
C58    C     0.74456   0.26839   0.15768   0.00000  Uiso   1.00
C59    C     0.85925   0.14740   0.11964   0.00000  Uiso   1.00
C60    C     0.46646   0.36424   0.07135   0.00000  Uiso   1.00
C61    C     0.54443   0.42500   0.06445   0.00000  Uiso   1.00
C62    C     0.57949   0.43293   0.00067   0.00000  Uiso   1.00
C63    C     0.65085   0.49218   0.00573   0.00000  Uiso   1.00
C64    C     0.33271   0.40707   0.13723   0.00000  Uiso   1.00
C65    C     0.18975   0.39991   0.13465   0.00000  Uiso   1.00
C66    C     0.08286   0.44406   0.20098   0.00000  Uiso   1.00
C67    C     0.56633   0.32311   0.09625   0.00000  Uiso   1.00
C68    C     0.61977   0.24535   0.05923   0.00000  Uiso   1.00
C69    C     0.70953   0.21881   0.09108   0.00000  Uiso   1.00
H70    H     0.55804   0.49391   0.24551   0.00000  Uiso   1.00
H71    H     0.67774   0.57205   0.18756   0.00000  Uiso   1.00
H72    H     0.28806   0.53903   0.32151   0.00000  Uiso   1.00
H73    H     0.71801   0.38449   0.24610   0.00000  Uiso   1.00
H74    H     0.79498   0.63687   0.09398   0.00000  Uiso   1.00
H75    H     0.97333   0.56723   0.37644   0.00000  Uiso   1.00
H76    H     0.87996   0.24136   0.21743   0.00000  Uiso   1.00
H77    H     0.43923   0.32571   0.01959   0.00000  Uiso   1.00
H78    H     0.55242   0.39462   0.94923   0.00000  Uiso   1.00
H79    H     0.16274   0.36160   0.08319   0.00000  Uiso   1.00
H80    H     0.59269   0.20707   0.00778   0.00000  Uiso   1.00
H81    H     0.69326   0.49286   0.90055   0.00000  Uiso   1.00
H82    H     0.87161   0.42322   0.18302   0.00000  Uiso   1.00
H83    H     0.77824   0.09735   0.02400   0.00000  Uiso   1.00
O84    O     0.82067   0.61325   0.95507   0.00000  Uiso   1.00
O85    O     0.74272   0.52187   0.32565   0.00000  Uiso   1.00
O86    O     0.93219   0.09434   0.11703   0.00000  Uiso   1.00
N87    N     0.75553   0.59351   0.05811   0.00000  Uiso   1.00
N88    N     0.98734   0.52841   0.32219   0.00000  Uiso   1.00
N89    N     0.83492   0.22375   0.17354   0.00000  Uiso   1.00
N90    N     0.70080   0.51602   0.95403   0.00000  Uiso   1.00
N91    N     0.93261   0.45092   0.21811   0.00000  Uiso   1.00
N92    N     0.78019   0.14626   0.06946   0.00000  Uiso   1.00
C93    C     0.72300   0.80766   0.26011   0.00000  Uiso   1.00
C94    C     0.70783   0.87125   0.33986   0.00000  Uiso   1.00
C95    C     0.77899   0.86738   0.39084   0.00000  Uiso   1.00
C96    C     0.75047   0.93165   0.46100   0.00000  Uiso   1.00
C97    C     0.74150   0.02037   0.58205   0.00000  Uiso   1.00
C98    C     0.56945   0.79338   0.25491   0.00000  Uiso   1.00
C99    C     0.52427   0.72404   0.23445   0.00000  Uiso   1.00
C100   C     0.37925   0.72277   0.23308   0.00000  Uiso   1.00
C101   C     0.15547   0.69059   0.22217   0.00000  Uiso   1.00
C102   C     0.77028   0.84129   0.20882   0.00000  Uiso   1.00
C103   C     0.89394   0.81223   0.14960   0.00000  Uiso   1.00
C104   C     0.91800   0.85128   0.10943   0.00000  Uiso   1.00
C105   C     0.00603   0.89349   0.02697   0.00000  Uiso   1.00
C106   C     0.54580   0.92869   0.29405   0.00000  Uiso   1.00
C107   C     0.61158   0.93698   0.35830   0.00000  Uiso   1.00
C108   C     0.58295   0.00128   0.42840   0.00000  Uiso   1.00
C109   C     0.65406   0.99751   0.47947   0.00000  Uiso   1.00
C110   C     0.47320   0.85912   0.27334   0.00000  Uiso   1.00
C111   C     0.32822   0.85795   0.27200   0.00000  Uiso   1.00
C112   C     0.28283   0.78862   0.25155   0.00000  Uiso   1.00
C113   C     0.67404   0.90703   0.22726   0.00000  Uiso   1.00
C114   C     0.69790   0.94613   0.18716   0.00000  Uiso   1.00
C115   C     0.82157   0.91714   0.12790   0.00000  Uiso   1.00
H116   H     0.79792   0.75648   0.24576   0.00000  Uiso   1.00
H117   H     0.85346   0.81649   0.37656   0.00000  Uiso   1.00
H118   H     0.59878   0.67318   0.22018   0.00000  Uiso   1.00
H119   H     0.96839   0.76136   0.13535   0.00000  Uiso   1.00
H120   H     0.87254   0.91201   0.52972   0.00000  Uiso   1.00
H121   H     0.33555   0.60982   0.19995   0.00000  Uiso   1.00
H122   H     0.11496   0.79575   0.02108   0.00000  Uiso   1.00
H123   H     0.47087   0.97987   0.30840   0.00000  Uiso   1.00
H124   H     0.50846   0.05215   0.44265   0.00000  Uiso   1.00
H125   H     0.25378   0.90883   0.28626   0.00000  Uiso   1.00
H126   H     0.62339   0.99700   0.20144   0.00000  Uiso   1.00
H127   H     0.59253   0.10327   0.58336   0.00000  Uiso   1.00
H128   H     0.05553   0.80108   0.25359   0.00000  Uiso   1.00
H129   H     0.83494   0.98701   0.07472   0.00000  Uiso   1.00
O130   O     0.76313   0.05114   0.64372   0.00000  Uiso   1.00
O131   O     0.05862   0.65468   0.21107   0.00000  Uiso   1.00
O132   O     0.08119   0.89862   0.97641   0.00000  Uiso   1.00
N133   N     0.80151   0.94711   0.52391   0.00000  Uiso   1.00
N134   N     0.29944   0.66458   0.21561   0.00000  Uiso   1.00
N135   N     0.02810   0.83840   0.04838   0.00000  Uiso   1.00
N136   N     0.65083   0.05003   0.55277   0.00000  Uiso   1.00
N137   N     0.14876   0.76750   0.24448   0.00000  Uiso   1.00
N138   N     0.87743   0.94132   0.07724   0.00000  Uiso   1.00
C139   C     0.03094   0.19545   0.45369   0.00000  Uiso   1.00
C140   C     0.07185   0.13208   0.47124   0.00000  Uiso   1.00
C141   C     0.13828   0.13890   0.52746   0.00000  Uiso   1.00
C142   C     0.16669   0.07428   0.53446   0.00000  Uiso   1.00
C143   C     0.23572   0.98637   0.56896   0.00000  Uiso   1.00
C144   C     0.86827   0.20183   0.45861   0.00000  Uiso   1.00
C145   C     0.76355   0.26731   0.50421   0.00000  Uiso   1.00
C146   C     0.62058   0.26140   0.50057   0.00000  Uiso   1.00
C147   C     0.37358   0.28179   0.51542   0.00000  Uiso   1.00
C148   C     0.10631   0.16549   0.37125   0.00000  Uiso   1.00
C149   C     0.20171   0.20042   0.34339   0.00000  Uiso   1.00
C150   C     0.25912   0.16393   0.26619   0.00000  Uiso   1.00
C151   C     0.38171   0.12790   0.14541   0.00000  Uiso   1.00
C152   C     0.96325   0.06854   0.36615   0.00000  Uiso   1.00
C153   C     0.03507   0.06314   0.42369   0.00000  Uiso   1.00
C154   C     0.06339   0.99849   0.43060   0.00000  Uiso   1.00
C155   C     0.12986   0.00523   0.48683   0.00000  Uiso   1.00
C156   C     0.83150   0.13290   0.41106   0.00000  Uiso   1.00
C157   C     0.68865   0.12689   0.40735   0.00000  Uiso   1.00
C158   C     0.58374   0.19234   0.45293   0.00000  Uiso   1.00
C159   C     0.06954   0.09655   0.32369   0.00000  Uiso   1.00
C160   C     0.12681   0.06001   0.24653   0.00000  Uiso   1.00
C161   C     0.22228   0.09487   0.21856   0.00000  Uiso   1.00
H162   H     0.05956   0.24912   0.49071   0.00000  Uiso   1.00
H163   H     0.16671   0.19226   0.56425   0.00000  Uiso   1.00
H164   H     0.79204   0.32064   0.54099   0.00000  Uiso   1.00
H165   H     0.23013   0.25377   0.38020   0.00000  Uiso   1.00
H166   H     0.26924   0.09884   0.62483   0.00000  Uiso   1.00
H167   H     0.47923   0.36954   0.57577   0.00000  Uiso   1.00
H168   H     0.40304   0.22852   0.23670   0.00000  Uiso   1.00
H169   H     0.93462   0.01487   0.32913   0.00000  Uiso   1.00
H170   H     0.03492   0.94516   0.39380   0.00000  Uiso   1.00
H171   H     0.66024   0.07354   0.37054   0.00000  Uiso   1.00
H172   H     0.09833   0.00666   0.20975   0.00000  Uiso   1.00
H173   H     0.16227   0.89827   0.48649   0.00000  Uiso   1.00
H174   H     0.37225   0.16898   0.43743   0.00000  Uiso   1.00
H175   H     0.29606   0.02796   0.09836   0.00000  Uiso   1.00
O176   O     0.28394   0.95693   0.60113   0.00000  Uiso   1.00
O177   O     0.24749   0.31208   0.53676   0.00000  Uiso   1.00
O178   O     0.45950   0.12707   0.09192   0.00000  Uiso   1.00
N179   N     0.23033   0.06120   0.58339   0.00000  Uiso   1.00
N180   N     0.49171   0.31428   0.53753   0.00000  Uiso   1.00
N181   N     0.35536   0.18245   0.22053   0.00000  Uiso   1.00
N182   N     0.17277   0.95327   0.50894   0.00000  Uiso   1.00
N183   N     0.43415   0.20636   0.46309   0.00000  Uiso   1.00
N184   N     0.29780   0.07453   0.14609   0.00000  Uiso   1.00
C185   C     0.22438   0.26179   0.80638   0.00000  Uiso   1.00
C186   C     0.21086   0.34312   0.86884   0.00000  Uiso   1.00
C187   C     0.28740   0.39713   0.86344   0.00000  Uiso   1.00
C188   C     0.25952   0.46831   0.92688   0.00000  Uiso   1.00
C189   C     0.25381   0.59211   0.01376   0.00000  Uiso   1.00
C190   C     0.07132   0.25287   0.79596   0.00000  Uiso   1.00
C191   C     0.03056   0.23097   0.72928   0.00000  Uiso   1.00
C192   C     0.88521   0.22616   0.73136   0.00000  Uiso   1.00
C193   C     0.66290   0.20977   0.70507   0.00000  Uiso   1.00
C194   C     0.26374   0.21018   0.83811   0.00000  Uiso   1.00
C195   C     0.38473   0.15239   0.80687   0.00000  Uiso   1.00
C196   C     0.40136   0.11163   0.84445   0.00000  Uiso   1.00
C197   C     0.47779   0.02897   0.88362   0.00000  Uiso   1.00
C198   C     0.03876   0.29215   0.92864   0.00000  Uiso   1.00
C199   C     0.11003   0.35961   0.93524   0.00000  Uiso   1.00
C200   C     0.08203   0.43072   0.99871   0.00000  Uiso   1.00
C201   C     0.15852   0.48483   0.99341   0.00000  Uiso   1.00
C202   C     0.97050   0.26935   0.86236   0.00000  Uiso   1.00
C203   C     0.82519   0.26456   0.86454   0.00000  Uiso   1.00
C204   C     0.78420   0.24268   0.79789   0.00000  Uiso   1.00
C205   C     0.16292   0.22667   0.90452   0.00000  Uiso   1.00
C206   C     0.17936   0.18598   0.94214   0.00000  Uiso   1.00
C207   C     0.30036   0.12815   0.91097   0.00000  Uiso   1.00
H208   H     0.30287   0.24895   0.75467   0.00000  Uiso   1.00
H209   H     0.36541   0.38436   0.81204   0.00000  Uiso   1.00
H210   H     0.10861   0.21821   0.67789   0.00000  Uiso   1.00
H211   H     0.46273   0.13965   0.75548   0.00000  Uiso   1.00
H212   H     0.39025   0.54176   0.90492   0.00000  Uiso   1.00
H213   H     0.84877   0.19141   0.62206   0.00000  Uiso   1.00
H214   H     0.59550   0.02574   0.78567   0.00000  Uiso   1.00
H215   H     0.96025   0.30498   0.98034   0.00000  Uiso   1.00
H216   H     0.00400   0.44346   0.05009   0.00000  Uiso   1.00
H217   H     0.74720   0.27732   0.91594   0.00000  Uiso   1.00
H218   H     0.10132   0.19876   0.99353   0.00000  Uiso   1.00
H219   H     0.09691   0.58973   0.09812   0.00000  Uiso   1.00
H220   H     0.55544   0.23938   0.81526   0.00000  Uiso   1.00
H221   H     0.30217   0.07372   0.97888   0.00000  Uiso   1.00
O222   O     0.27850   0.65584   0.04332   0.00000  Uiso   1.00
O223   O     0.56812   0.19618   0.67222   0.00000  Uiso   1.00
O224   O     0.54781   0.97883   0.88688   0.00000  Uiso   1.00
N225   N     0.31523   0.53404   0.94082   0.00000  Uiso   1.00
N226   N     0.80898   0.20650   0.67637   0.00000  Uiso   1.00
N227   N     0.50709   0.05159   0.82932   0.00000  Uiso   1.00
N228   N     0.15739   0.55985   0.04478   0.00000  Uiso   1.00
N229   N     0.65114   0.23231   0.78033   0.00000  Uiso   1.00
N230   N     0.34925   0.07741   0.93329   0.00000  Uiso   1.00
C231   C     0.48295   0.54771   0.74022   0.00000  Uiso   1.00
C232   C     0.54690   0.53204   0.66035   0.00000  Uiso   1.00
C233   C     0.66832   0.47781   0.60991   0.00000  Uiso   1.00
C234   C     0.70945   0.47230   0.53952   0.00000  Uiso   1.00
C235   C     0.82050   0.44077   0.41840   0.00000  Uiso   1.00
C236   C     0.32444   0.53841   0.74503   0.00000  Uiso   1.00
C237   C     0.25882   0.48954   0.76581   0.00000  Uiso   1.00
C238   C     0.11268   0.48940   0.76673   0.00000  Uiso   1.00
C239   C     0.87832   0.46781   0.77714   0.00000  Uiso   1.00
C240   C     0.47961   0.63207   0.79109   0.00000  Uiso   1.00
C241   C     0.54442   0.66195   0.85060   0.00000  Uiso   1.00
C242   C     0.52889   0.74068   0.89031   0.00000  Uiso   1.00
C243   C     0.53546   0.86450   0.97222   0.00000  Uiso   1.00
C244   C     0.34007   0.63436   0.70493   0.00000  Uiso   1.00
C245   C     0.46928   0.57910   0.64118   0.00000  Uiso   1.00
C246   C     0.51024   0.57368   0.57086   0.00000  Uiso   1.00
C247   C     0.63171   0.51945   0.52032   0.00000  Uiso   1.00
C248   C     0.24683   0.58547   0.72587   0.00000  Uiso   1.00
C249   C     0.10074   0.58541   0.72676   0.00000  Uiso   1.00
C250   C     0.03493   0.53655   0.74752   0.00000  Uiso   1.00
C251   C     0.40200   0.67913   0.77192   0.00000  Uiso   1.00
C252   C     0.38635   0.75782   0.81155   0.00000  Uiso   1.00
C253   C     0.45114   0.78782   0.87110   0.00000  Uiso   1.00
H254   H     0.54337   0.51107   0.75515   0.00000  Uiso   1.00
H255   H     0.72835   0.44139   0.62476   0.00000  Uiso   1.00
H256   H     0.31890   0.45313   0.78065   0.00000  Uiso   1.00
H257   H     0.60447   0.62552   0.86542   0.00000  Uiso   1.00
H258   H     0.89917   0.38488   0.47174   0.00000  Uiso   1.00
H259   H     0.03583   0.40965   0.80046   0.00000  Uiso   1.00
H260   H     0.63800   0.77316   0.97922   0.00000  Uiso   1.00
H261   H     0.27964   0.67101   0.69000   0.00000  Uiso   1.00
H262   H     0.45016   0.61011   0.55604   0.00000  Uiso   1.00
H263   H     0.04072   0.62184   0.71192   0.00000  Uiso   1.00
H264   H     0.32628   0.79423   0.79670   0.00000  Uiso   1.00
H265   H     0.67338   0.52181   0.41596   0.00000  Uiso   1.00
H266   H     0.81004   0.54658   0.74468   0.00000  Uiso   1.00
H267   H     0.41221   0.91009   0.92344   0.00000  Uiso   1.00
O268   O     0.90318   0.41037   0.35689   0.00000  Uiso   1.00
O269   O     0.77051   0.44289   0.78817   0.00000  Uiso   1.00
O270   O     0.56054   0.91980   0.02270   0.00000  Uiso   1.00
N271   N     0.82265   0.42547   0.47700   0.00000  Uiso   1.00
N272   N     0.01548   0.44862   0.78432   0.00000  Uiso   1.00
N273   N     0.57843   0.78848   0.95146   0.00000  Uiso   1.00
N274   N     0.70116   0.49915   0.44699   0.00000  Uiso   1.00
N275   N     0.89399   0.52230   0.75431   0.00000  Uiso   1.00
N276   N     0.45693   0.86216   0.92145   0.00000  Uiso   1.00
