data_job_03635
_audit_creation_date              2018-12-19
_audit_creation_method            'Materials Studio'
_symmetry_space_group_name_H-M    'P1'
_symmetry_Int_Tables_number       1
_symmetry_cell_setting            triclinic
loop_
_symmetry_equiv_pos_as_xyz
  x,y,z
_cell_length_a                    16.7203
_cell_length_b                    14.1708
_cell_length_c                    21.3552
_cell_angle_alpha                 90.0000
_cell_angle_beta                  125.3705
_cell_angle_gamma                 90.0000
loop_
_atom_site_label
_atom_site_type_symbol
_atom_site_fract_x
_atom_site_fract_y
_atom_site_fract_z
_atom_site_U_iso_or_equiv
_atom_site_adp_type
_atom_site_occupancy
C1     C     0.90481   0.71439   0.06780   0.00000  Uiso   1.00
C2     C     0.91919   0.81960   0.08622   0.00000  Uiso   1.00
C3     C     0.97774   0.85878   0.15912   0.00000  Uiso   1.00
C4     C     0.98113   0.95658   0.16386   0.00000  Uiso   1.00
C5     C     0.01153   0.11134   0.20247   0.00000  Uiso   1.00
C6     C     0.79458   0.69700   0.02151   0.00000  Uiso   1.00
C7     C     0.74837   0.63310   0.04000   0.00000  Uiso   1.00
C8     C     0.64686   0.62769   0.99027   0.00000  Uiso   1.00
C9     C     0.48381   0.59206   0.92839   0.00000  Uiso   1.00
C10    C     0.93340   0.69786   0.01261   0.00000  Uiso   1.00
C11    C     0.00390   0.63467   0.02360   0.00000  Uiso   1.00
C12    C     0.01925   0.62998   0.96636   0.00000  Uiso   1.00
C13    C     0.07175   0.59569   0.89066   0.00000  Uiso   1.00
C14    C     0.80669   0.81840   0.94659   0.00000  Uiso   1.00
C15    C     0.86589   0.87609   0.02038   0.00000  Uiso   1.00
C16    C     0.86919   0.97386   0.02501   0.00000  Uiso   1.00
C17    C     0.92774   0.01318   0.09790   0.00000  Uiso   1.00
C18    C     0.74129   0.75349   0.95567   0.00000  Uiso   1.00
C19    C     0.63982   0.74817   0.90590   0.00000  Uiso   1.00
C20    C     0.59347   0.68428   0.92431   0.00000  Uiso   1.00
C21    C     0.88012   0.75436   0.94677   0.00000  Uiso   1.00
C22    C     0.89535   0.74975   0.88950   0.00000  Uiso   1.00
C23    C     0.96586   0.68657   0.90040   0.00000  Uiso   1.00
H24    H     0.94629   0.67041   0.11905   0.00000  Uiso   1.00
H25    H     0.01896   0.81504   0.21005   0.00000  Uiso   1.00
H26    H     0.78963   0.58938   0.09095   0.00000  Uiso   1.00
H27    H     0.04512   0.59097   0.07456   0.00000  Uiso   1.00
H28    H     0.07601   0.00030   0.28191   0.00000  Uiso   1.00
H29    H     0.59245   0.52447   0.03076   0.00000  Uiso   1.00
H30    H     0.13121   0.52780   0.99619   0.00000  Uiso   1.00
H31    H     0.76520   0.86238   0.89533   0.00000  Uiso   1.00
H32    H     0.82795   0.01755   0.97405   0.00000  Uiso   1.00
H33    H     0.59861   0.79190   0.85495   0.00000  Uiso   1.00
H34    H     0.85410   0.79348   0.83856   0.00000  Uiso   1.00
H35    H     0.92097   0.16467   0.09036   0.00000  Uiso   1.00
H36    H     0.43741   0.68883   0.83921   0.00000  Uiso   1.00
H37    H     0.97616   0.69217   0.80464   0.00000  Uiso   1.00
O38    O     0.04300   0.18109   0.24196   0.00000  Uiso   1.00
O39    O     0.40860   0.55681   0.91246   0.00000  Uiso   1.00
O40    O     0.11543   0.56119   0.86710   0.00000  Uiso   1.00
N41    N     0.03093   0.01769   0.22602   0.00000  Uiso   1.00
N42    N     0.57882   0.57283   0.99122   0.00000  Uiso   1.00
N43    N     0.08250   0.57592   0.95889   0.00000  Uiso   1.00
N44    N     0.94750   0.10613   0.12295   0.00000  Uiso   1.00
N45    N     0.49540   0.66127   0.88815   0.00000  Uiso   1.00
N46    N     0.99907   0.66437   0.85582   0.00000  Uiso   1.00
C47    C     0.09519   0.21439   0.43220   0.00000  Uiso   1.00
C48    C     0.08081   0.31960   0.41378   0.00000  Uiso   1.00
C49    C     0.02226   0.35878   0.34088   0.00000  Uiso   1.00
C50    C     0.01887   0.45658   0.33614   0.00000  Uiso   1.00
C51    C     0.98847   0.61134   0.29753   0.00000  Uiso   1.00
C52    C     0.20542   0.19700   0.47849   0.00000  Uiso   1.00
C53    C     0.25163   0.13310   0.46000   0.00000  Uiso   1.00
C54    C     0.35314   0.12769   0.50973   0.00000  Uiso   1.00
C55    C     0.51619   0.09206   0.57161   0.00000  Uiso   1.00
C56    C     0.06660   0.19786   0.48739   0.00000  Uiso   1.00
C57    C     0.99610   0.13467   0.47640   0.00000  Uiso   1.00
C58    C     0.98075   0.12998   0.53364   0.00000  Uiso   1.00
C59    C     0.92825   0.09569   0.60934   0.00000  Uiso   1.00
C60    C     0.19331   0.31840   0.55341   0.00000  Uiso   1.00
C61    C     0.13411   0.37609   0.47962   0.00000  Uiso   1.00
C62    C     0.13081   0.47386   0.47499   0.00000  Uiso   1.00
C63    C     0.07226   0.51318   0.40210   0.00000  Uiso   1.00
C64    C     0.25871   0.25349   0.54433   0.00000  Uiso   1.00
C65    C     0.36018   0.24817   0.59410   0.00000  Uiso   1.00
C66    C     0.40653   0.18428   0.57569   0.00000  Uiso   1.00
C67    C     0.11988   0.25436   0.55323   0.00000  Uiso   1.00
C68    C     0.10465   0.24975   0.61050   0.00000  Uiso   1.00
C69    C     0.03414   0.18657   0.59960   0.00000  Uiso   1.00
H70    H     0.05371   0.17041   0.38095   0.00000  Uiso   1.00
H71    H     0.98104   0.31504   0.28995   0.00000  Uiso   1.00
H72    H     0.21037   0.08938   0.40905   0.00000  Uiso   1.00
H73    H     0.95488   0.09097   0.42544   0.00000  Uiso   1.00
H74    H     0.92399   0.50030   0.21809   0.00000  Uiso   1.00
H75    H     0.40755   0.02447   0.46924   0.00000  Uiso   1.00
H76    H     0.86879   0.02780   0.50381   0.00000  Uiso   1.00
H77    H     0.23480   0.36238   0.60467   0.00000  Uiso   1.00
H78    H     0.17205   0.51755   0.52595   0.00000  Uiso   1.00
H79    H     0.40139   0.29190   0.64505   0.00000  Uiso   1.00
H80    H     0.14590   0.29348   0.66144   0.00000  Uiso   1.00
H81    H     0.07903   0.66467   0.40964   0.00000  Uiso   1.00
H82    H     0.56259   0.18883   0.66079   0.00000  Uiso   1.00
H83    H     0.02384   0.19217   0.69536   0.00000  Uiso   1.00
O84    O     0.95700   0.68109   0.25804   0.00000  Uiso   1.00
O85    O     0.59140   0.05681   0.58754   0.00000  Uiso   1.00
O86    O     0.88457   0.06119   0.63290   0.00000  Uiso   1.00
N87    N     0.96907   0.51769   0.27398   0.00000  Uiso   1.00
N88    N     0.42118   0.07283   0.50878   0.00000  Uiso   1.00
N89    N     0.91750   0.07592   0.54111   0.00000  Uiso   1.00
N90    N     0.05250   0.60613   0.37705   0.00000  Uiso   1.00
N91    N     0.50460   0.16127   0.61185   0.00000  Uiso   1.00
N92    N     0.00093   0.16437   0.64418   0.00000  Uiso   1.00
C93    C     0.09519   0.28561   0.93220   0.00000  Uiso   1.00
C94    C     0.08081   0.18040   0.91378   0.00000  Uiso   1.00
C95    C     0.02226   0.14122   0.84088   0.00000  Uiso   1.00
C96    C     0.01887   0.04342   0.83614   0.00000  Uiso   1.00
C97    C     0.98847   0.88866   0.79753   0.00000  Uiso   1.00
C98    C     0.20542   0.30300   0.97849   0.00000  Uiso   1.00
C99    C     0.25163   0.36690   0.96000   0.00000  Uiso   1.00
C100   C     0.35314   0.37231   0.00973   0.00000  Uiso   1.00
C101   C     0.51619   0.40794   0.07161   0.00000  Uiso   1.00
C102   C     0.06660   0.30214   0.98739   0.00000  Uiso   1.00
C103   C     0.99610   0.36533   0.97640   0.00000  Uiso   1.00
C104   C     0.98075   0.37002   0.03364   0.00000  Uiso   1.00
C105   C     0.92825   0.40431   0.10934   0.00000  Uiso   1.00
C106   C     0.19331   0.18160   0.05341   0.00000  Uiso   1.00
C107   C     0.13411   0.12391   0.97962   0.00000  Uiso   1.00
C108   C     0.13081   0.02614   0.97499   0.00000  Uiso   1.00
C109   C     0.07226   0.98682   0.90210   0.00000  Uiso   1.00
C110   C     0.25871   0.24651   0.04433   0.00000  Uiso   1.00
C111   C     0.36018   0.25183   0.09410   0.00000  Uiso   1.00
C112   C     0.40653   0.31572   0.07569   0.00000  Uiso   1.00
C113   C     0.11988   0.24564   0.05323   0.00000  Uiso   1.00
C114   C     0.10465   0.25025   0.11050   0.00000  Uiso   1.00
C115   C     0.03414   0.31343   0.09960   0.00000  Uiso   1.00
H116   H     0.05371   0.32959   0.88095   0.00000  Uiso   1.00
H117   H     0.98104   0.18496   0.78995   0.00000  Uiso   1.00
H118   H     0.21037   0.41062   0.90905   0.00000  Uiso   1.00
H119   H     0.95488   0.40903   0.92544   0.00000  Uiso   1.00
H120   H     0.92399   0.99970   0.71809   0.00000  Uiso   1.00
H121   H     0.40755   0.47553   0.96924   0.00000  Uiso   1.00
H122   H     0.86879   0.47220   0.00381   0.00000  Uiso   1.00
H123   H     0.23480   0.13762   0.10467   0.00000  Uiso   1.00
H124   H     0.17205   0.98245   0.02595   0.00000  Uiso   1.00
H125   H     0.40139   0.20810   0.14505   0.00000  Uiso   1.00
H126   H     0.14590   0.20652   0.16144   0.00000  Uiso   1.00
H127   H     0.07903   0.83533   0.90964   0.00000  Uiso   1.00
H128   H     0.56259   0.31117   0.16079   0.00000  Uiso   1.00
H129   H     0.02384   0.30783   0.19536   0.00000  Uiso   1.00
O130   O     0.95700   0.81891   0.75804   0.00000  Uiso   1.00
O131   O     0.59140   0.44319   0.08754   0.00000  Uiso   1.00
O132   O     0.88457   0.43881   0.13290   0.00000  Uiso   1.00
N133   N     0.96907   0.98231   0.77398   0.00000  Uiso   1.00
N134   N     0.42118   0.42717   0.00878   0.00000  Uiso   1.00
N135   N     0.91750   0.42408   0.04111   0.00000  Uiso   1.00
N136   N     0.05250   0.89387   0.87705   0.00000  Uiso   1.00
N137   N     0.50460   0.33873   0.11185   0.00000  Uiso   1.00
N138   N     0.00093   0.33563   0.14418   0.00000  Uiso   1.00
C139   C     0.90481   0.78561   0.56780   0.00000  Uiso   1.00
C140   C     0.91919   0.68040   0.58622   0.00000  Uiso   1.00
C141   C     0.97774   0.64122   0.65912   0.00000  Uiso   1.00
C142   C     0.98113   0.54342   0.66386   0.00000  Uiso   1.00
C143   C     0.01153   0.38866   0.70247   0.00000  Uiso   1.00
C144   C     0.79458   0.80300   0.52151   0.00000  Uiso   1.00
C145   C     0.74837   0.86690   0.54000   0.00000  Uiso   1.00
C146   C     0.64686   0.87231   0.49027   0.00000  Uiso   1.00
C147   C     0.48381   0.90794   0.42839   0.00000  Uiso   1.00
C148   C     0.93340   0.80214   0.51261   0.00000  Uiso   1.00
C149   C     0.00390   0.86533   0.52360   0.00000  Uiso   1.00
C150   C     0.01925   0.87002   0.46636   0.00000  Uiso   1.00
C151   C     0.07175   0.90431   0.39066   0.00000  Uiso   1.00
C152   C     0.80669   0.68160   0.44659   0.00000  Uiso   1.00
C153   C     0.86589   0.62391   0.52038   0.00000  Uiso   1.00
C154   C     0.86919   0.52614   0.52501   0.00000  Uiso   1.00
C155   C     0.92774   0.48682   0.59790   0.00000  Uiso   1.00
C156   C     0.74129   0.74651   0.45567   0.00000  Uiso   1.00
C157   C     0.63982   0.75183   0.40590   0.00000  Uiso   1.00
C158   C     0.59347   0.81572   0.42431   0.00000  Uiso   1.00
C159   C     0.88012   0.74564   0.44677   0.00000  Uiso   1.00
C160   C     0.89535   0.75025   0.38950   0.00000  Uiso   1.00
C161   C     0.96586   0.81343   0.40040   0.00000  Uiso   1.00
H162   H     0.94629   0.82959   0.61905   0.00000  Uiso   1.00
H163   H     0.01896   0.68496   0.71005   0.00000  Uiso   1.00
H164   H     0.78963   0.91062   0.59095   0.00000  Uiso   1.00
H165   H     0.04512   0.90903   0.57456   0.00000  Uiso   1.00
H166   H     0.07601   0.49970   0.78191   0.00000  Uiso   1.00
H167   H     0.59245   0.97553   0.53076   0.00000  Uiso   1.00
H168   H     0.13121   0.97220   0.49619   0.00000  Uiso   1.00
H169   H     0.76520   0.63762   0.39533   0.00000  Uiso   1.00
H170   H     0.82795   0.48245   0.47405   0.00000  Uiso   1.00
H171   H     0.59861   0.70810   0.35495   0.00000  Uiso   1.00
H172   H     0.85410   0.70652   0.33856   0.00000  Uiso   1.00
H173   H     0.92097   0.33533   0.59036   0.00000  Uiso   1.00
H174   H     0.43741   0.81117   0.33921   0.00000  Uiso   1.00
H175   H     0.97616   0.80783   0.30464   0.00000  Uiso   1.00
O176   O     0.04300   0.31891   0.74196   0.00000  Uiso   1.00
O177   O     0.40860   0.94319   0.41246   0.00000  Uiso   1.00
O178   O     0.11543   0.93881   0.36710   0.00000  Uiso   1.00
N179   N     0.03093   0.48231   0.72602   0.00000  Uiso   1.00
N180   N     0.57882   0.92717   0.49122   0.00000  Uiso   1.00
N181   N     0.08250   0.92408   0.45889   0.00000  Uiso   1.00
N182   N     0.94750   0.39387   0.62295   0.00000  Uiso   1.00
N183   N     0.49540   0.83873   0.38815   0.00000  Uiso   1.00
N184   N     0.99907   0.83563   0.35582   0.00000  Uiso   1.00
