data_job_04168
_audit_creation_date              2018-12-19
_audit_creation_method            'Materials Studio'
_symmetry_space_group_name_H-M    'P1'
_symmetry_Int_Tables_number       1
_symmetry_cell_setting            triclinic
loop_
_symmetry_equiv_pos_as_xyz
  x,y,z
_cell_length_a                    19.8539
_cell_length_b                    18.4105
_cell_length_c                    21.8800
_cell_angle_alpha                 90.0000
_cell_angle_beta                  90.0000
_cell_angle_gamma                 90.0000
loop_
_atom_site_label
_atom_site_type_symbol
_atom_site_fract_x
_atom_site_fract_y
_atom_site_fract_z
_atom_site_U_iso_or_equiv
_atom_site_adp_type
_atom_site_occupancy
C1     C     0.23835   0.19852   0.95057   0.00000  Uiso   1.00
C2     C     0.20116   0.14530   0.90917   0.00000  Uiso   1.00
C3     C     0.19024   0.07227   0.92135   0.00000  Uiso   1.00
C4     C     0.15513   0.03277   0.87768   0.00000  Uiso   1.00
C5     C     0.10095   0.94521   0.82158   0.00000  Uiso   1.00
C6     C     0.29506   0.23043   0.91199   0.00000  Uiso   1.00
C7     C     0.36309   0.22897   0.92655   0.00000  Uiso   1.00
C8     C     0.40702   0.26114   0.88525   0.00000  Uiso   1.00
C9     C     0.49863   0.30578   0.83355   0.00000  Uiso   1.00
C10    C     0.18942   0.26074   0.96256   0.00000  Uiso   1.00
C11    C     0.16863   0.28480   0.01963   0.00000  Uiso   1.00
C12    C     0.12362   0.34250   0.02092   0.00000  Uiso   1.00
C13    C     0.05120   0.43421   0.04773   0.00000  Uiso   1.00
C14    C     0.19542   0.25824   0.85136   0.00000  Uiso   1.00
C15    C     0.17785   0.17775   0.85528   0.00000  Uiso   1.00
C16    C     0.14274   0.13835   0.81158   0.00000  Uiso   1.00
C17    C     0.13176   0.06527   0.82370   0.00000  Uiso   1.00
C18    C     0.27175   0.26287   0.85810   0.00000  Uiso   1.00
C19    C     0.31559   0.29505   0.81678   0.00000  Uiso   1.00
C20    C     0.38366   0.29364   0.83127   0.00000  Uiso   1.00
C21    C     0.16610   0.29319   0.90867   0.00000  Uiso   1.00
C22    C     0.12112   0.35087   0.90987   0.00000  Uiso   1.00
C23    C     0.10026   0.37500   0.96693   0.00000  Uiso   1.00
H24    H     0.25651   0.17326   0.99252   0.00000  Uiso   1.00
H25    H     0.20830   0.04718   0.96305   0.00000  Uiso   1.00
H26    H     0.38112   0.20387   0.96825   0.00000  Uiso   1.00
H27    H     0.18669   0.25968   0.06132   0.00000  Uiso   1.00
H28    H     0.14458   0.92171   0.90661   0.00000  Uiso   1.00
H29    H     0.50898   0.25210   0.91758   0.00000  Uiso   1.00
H30    H     0.09898   0.36979   0.11384   0.00000  Uiso   1.00
H31    H     0.17727   0.28350   0.80940   0.00000  Uiso   1.00
H32    H     0.12470   0.16347   0.76989   0.00000  Uiso   1.00
H33    H     0.29752   0.32016   0.77509   0.00000  Uiso   1.00
H34    H     0.10309   0.37596   0.86816   0.00000  Uiso   1.00
H35    H     0.07673   0.01609   0.74983   0.00000  Uiso   1.00
H36    H     0.44113   0.34649   0.76080   0.00000  Uiso   1.00
H37    H     0.03113   0.46418   0.95706   0.00000  Uiso   1.00
O38    O     0.07752   0.88794   0.80552   0.00000  Uiso   1.00
O39    O     0.55560   0.32143   0.81992   0.00000  Uiso   1.00
O40    O     0.01769   0.47582   0.07741   0.00000  Uiso   1.00
N41    N     0.13581   0.96039   0.87514   0.00000  Uiso   1.00
N42    N     0.47651   0.26929   0.88539   0.00000  Uiso   1.00
N43    N     0.09321   0.37933   0.06888   0.00000  Uiso   1.00
N44    N     0.09930   0.01118   0.79078   0.00000  Uiso   1.00
N45    N     0.44000   0.32007   0.80103   0.00000  Uiso   1.00
N46    N     0.05670   0.43012   0.98452   0.00000  Uiso   1.00
C47    C     0.26165   0.80148   0.95057   0.00000  Uiso   1.00
C48    C     0.29884   0.85470   0.90917   0.00000  Uiso   1.00
C49    C     0.30976   0.92773   0.92135   0.00000  Uiso   1.00
C50    C     0.34487   0.96723   0.87768   0.00000  Uiso   1.00
C51    C     0.39905   0.05479   0.82158   0.00000  Uiso   1.00
C52    C     0.20494   0.76957   0.91199   0.00000  Uiso   1.00
C53    C     0.13691   0.77103   0.92655   0.00000  Uiso   1.00
C54    C     0.09298   0.73886   0.88525   0.00000  Uiso   1.00
C55    C     0.00137   0.69422   0.83355   0.00000  Uiso   1.00
C56    C     0.31058   0.73926   0.96256   0.00000  Uiso   1.00
C57    C     0.33137   0.71520   0.01963   0.00000  Uiso   1.00
C58    C     0.37638   0.65750   0.02092   0.00000  Uiso   1.00
C59    C     0.44880   0.56579   0.04773   0.00000  Uiso   1.00
C60    C     0.30458   0.74176   0.85136   0.00000  Uiso   1.00
C61    C     0.32215   0.82225   0.85528   0.00000  Uiso   1.00
C62    C     0.35726   0.86165   0.81158   0.00000  Uiso   1.00
C63    C     0.36824   0.93473   0.82370   0.00000  Uiso   1.00
C64    C     0.22825   0.73713   0.85810   0.00000  Uiso   1.00
C65    C     0.18441   0.70495   0.81678   0.00000  Uiso   1.00
C66    C     0.11634   0.70636   0.83127   0.00000  Uiso   1.00
C67    C     0.33390   0.70681   0.90867   0.00000  Uiso   1.00
C68    C     0.37888   0.64913   0.90987   0.00000  Uiso   1.00
C69    C     0.39974   0.62500   0.96693   0.00000  Uiso   1.00
H70    H     0.24349   0.82674   0.99252   0.00000  Uiso   1.00
H71    H     0.29170   0.95282   0.96305   0.00000  Uiso   1.00
H72    H     0.11888   0.79613   0.96825   0.00000  Uiso   1.00
H73    H     0.31331   0.74032   0.06132   0.00000  Uiso   1.00
H74    H     0.35542   0.07829   0.90661   0.00000  Uiso   1.00
H75    H     0.99102   0.74790   0.91758   0.00000  Uiso   1.00
H76    H     0.40102   0.63021   0.11384   0.00000  Uiso   1.00
H77    H     0.32273   0.71650   0.80940   0.00000  Uiso   1.00
H78    H     0.37530   0.83653   0.76989   0.00000  Uiso   1.00
H79    H     0.20248   0.67984   0.77509   0.00000  Uiso   1.00
H80    H     0.39691   0.62404   0.86816   0.00000  Uiso   1.00
H81    H     0.42327   0.98391   0.74983   0.00000  Uiso   1.00
H82    H     0.05887   0.65351   0.76080   0.00000  Uiso   1.00
H83    H     0.46887   0.53582   0.95706   0.00000  Uiso   1.00
O84    O     0.42248   0.11206   0.80552   0.00000  Uiso   1.00
O85    O     0.94440   0.67857   0.81992   0.00000  Uiso   1.00
O86    O     0.48231   0.52418   0.07741   0.00000  Uiso   1.00
N87    N     0.36419   0.03961   0.87514   0.00000  Uiso   1.00
N88    N     0.02349   0.73071   0.88539   0.00000  Uiso   1.00
N89    N     0.40679   0.62067   0.06888   0.00000  Uiso   1.00
N90    N     0.40070   0.98882   0.79078   0.00000  Uiso   1.00
N91    N     0.06000   0.67993   0.80103   0.00000  Uiso   1.00
N92    N     0.44330   0.56988   0.98452   0.00000  Uiso   1.00
C93    C     0.26165   0.69852   0.54943   0.00000  Uiso   1.00
C94    C     0.29884   0.64530   0.59083   0.00000  Uiso   1.00
C95    C     0.30976   0.57227   0.57865   0.00000  Uiso   1.00
C96    C     0.34487   0.53277   0.62232   0.00000  Uiso   1.00
C97    C     0.39905   0.44521   0.67842   0.00000  Uiso   1.00
C98    C     0.20494   0.73043   0.58801   0.00000  Uiso   1.00
C99    C     0.13691   0.72897   0.57345   0.00000  Uiso   1.00
C100   C     0.09298   0.76114   0.61475   0.00000  Uiso   1.00
C101   C     0.00137   0.80578   0.66645   0.00000  Uiso   1.00
C102   C     0.31058   0.76074   0.53744   0.00000  Uiso   1.00
C103   C     0.33137   0.78480   0.48037   0.00000  Uiso   1.00
C104   C     0.37638   0.84250   0.47908   0.00000  Uiso   1.00
C105   C     0.44880   0.93421   0.45227   0.00000  Uiso   1.00
C106   C     0.30458   0.75824   0.64864   0.00000  Uiso   1.00
C107   C     0.32215   0.67775   0.64472   0.00000  Uiso   1.00
C108   C     0.35726   0.63835   0.68842   0.00000  Uiso   1.00
C109   C     0.36824   0.56527   0.67630   0.00000  Uiso   1.00
C110   C     0.22825   0.76287   0.64190   0.00000  Uiso   1.00
C111   C     0.18441   0.79505   0.68322   0.00000  Uiso   1.00
C112   C     0.11634   0.79364   0.66873   0.00000  Uiso   1.00
C113   C     0.33390   0.79319   0.59133   0.00000  Uiso   1.00
C114   C     0.37888   0.85087   0.59013   0.00000  Uiso   1.00
C115   C     0.39974   0.87500   0.53307   0.00000  Uiso   1.00
H116   H     0.24349   0.67326   0.50748   0.00000  Uiso   1.00
H117   H     0.29170   0.54718   0.53695   0.00000  Uiso   1.00
H118   H     0.11888   0.70387   0.53175   0.00000  Uiso   1.00
H119   H     0.31331   0.75968   0.43868   0.00000  Uiso   1.00
H120   H     0.35542   0.42171   0.59339   0.00000  Uiso   1.00
H121   H     0.99102   0.75210   0.58242   0.00000  Uiso   1.00
H122   H     0.40102   0.86979   0.38616   0.00000  Uiso   1.00
H123   H     0.32273   0.78350   0.69060   0.00000  Uiso   1.00
H124   H     0.37530   0.66347   0.73011   0.00000  Uiso   1.00
H125   H     0.20248   0.82016   0.72491   0.00000  Uiso   1.00
H126   H     0.39691   0.87596   0.63184   0.00000  Uiso   1.00
H127   H     0.42327   0.51609   0.75017   0.00000  Uiso   1.00
H128   H     0.05887   0.84649   0.73920   0.00000  Uiso   1.00
H129   H     0.46887   0.96418   0.54294   0.00000  Uiso   1.00
O130   O     0.42248   0.38794   0.69448   0.00000  Uiso   1.00
O131   O     0.94440   0.82143   0.68008   0.00000  Uiso   1.00
O132   O     0.48231   0.97582   0.42259   0.00000  Uiso   1.00
N133   N     0.36419   0.46039   0.62486   0.00000  Uiso   1.00
N134   N     0.02349   0.76929   0.61461   0.00000  Uiso   1.00
N135   N     0.40679   0.87933   0.43112   0.00000  Uiso   1.00
N136   N     0.40070   0.51118   0.70922   0.00000  Uiso   1.00
N137   N     0.06000   0.82007   0.69897   0.00000  Uiso   1.00
N138   N     0.44330   0.93012   0.51548   0.00000  Uiso   1.00
C139   C     0.23835   0.30148   0.54943   0.00000  Uiso   1.00
C140   C     0.20116   0.35470   0.59083   0.00000  Uiso   1.00
C141   C     0.19024   0.42773   0.57865   0.00000  Uiso   1.00
C142   C     0.15513   0.46723   0.62232   0.00000  Uiso   1.00
C143   C     0.10095   0.55479   0.67842   0.00000  Uiso   1.00
C144   C     0.29506   0.26957   0.58801   0.00000  Uiso   1.00
C145   C     0.36309   0.27103   0.57345   0.00000  Uiso   1.00
C146   C     0.40702   0.23886   0.61475   0.00000  Uiso   1.00
C147   C     0.49863   0.19422   0.66645   0.00000  Uiso   1.00
C148   C     0.18942   0.23926   0.53744   0.00000  Uiso   1.00
C149   C     0.16863   0.21520   0.48037   0.00000  Uiso   1.00
C150   C     0.12362   0.15750   0.47908   0.00000  Uiso   1.00
C151   C     0.05120   0.06579   0.45227   0.00000  Uiso   1.00
C152   C     0.19542   0.24176   0.64864   0.00000  Uiso   1.00
C153   C     0.17785   0.32225   0.64472   0.00000  Uiso   1.00
C154   C     0.14274   0.36165   0.68842   0.00000  Uiso   1.00
C155   C     0.13176   0.43473   0.67630   0.00000  Uiso   1.00
C156   C     0.27175   0.23713   0.64190   0.00000  Uiso   1.00
C157   C     0.31559   0.20495   0.68322   0.00000  Uiso   1.00
C158   C     0.38366   0.20636   0.66873   0.00000  Uiso   1.00
C159   C     0.16610   0.20681   0.59133   0.00000  Uiso   1.00
C160   C     0.12112   0.14913   0.59013   0.00000  Uiso   1.00
C161   C     0.10026   0.12500   0.53307   0.00000  Uiso   1.00
H162   H     0.25651   0.32674   0.50748   0.00000  Uiso   1.00
H163   H     0.20830   0.45282   0.53695   0.00000  Uiso   1.00
H164   H     0.38112   0.29613   0.53175   0.00000  Uiso   1.00
H165   H     0.18669   0.24032   0.43868   0.00000  Uiso   1.00
H166   H     0.14458   0.57829   0.59339   0.00000  Uiso   1.00
H167   H     0.50898   0.24790   0.58242   0.00000  Uiso   1.00
H168   H     0.09898   0.13021   0.38616   0.00000  Uiso   1.00
H169   H     0.17727   0.21650   0.69060   0.00000  Uiso   1.00
H170   H     0.12470   0.33653   0.73011   0.00000  Uiso   1.00
H171   H     0.29752   0.17984   0.72491   0.00000  Uiso   1.00
H172   H     0.10309   0.12404   0.63184   0.00000  Uiso   1.00
H173   H     0.07673   0.48391   0.75017   0.00000  Uiso   1.00
H174   H     0.44113   0.15351   0.73920   0.00000  Uiso   1.00
H175   H     0.03113   0.03582   0.54294   0.00000  Uiso   1.00
O176   O     0.07752   0.61206   0.69448   0.00000  Uiso   1.00
O177   O     0.55560   0.17857   0.68008   0.00000  Uiso   1.00
O178   O     0.01769   0.02418   0.42259   0.00000  Uiso   1.00
N179   N     0.13581   0.53961   0.62486   0.00000  Uiso   1.00
N180   N     0.47651   0.23071   0.61461   0.00000  Uiso   1.00
N181   N     0.09321   0.12067   0.43112   0.00000  Uiso   1.00
N182   N     0.09930   0.48882   0.70922   0.00000  Uiso   1.00
N183   N     0.44000   0.17993   0.69897   0.00000  Uiso   1.00
N184   N     0.05670   0.06988   0.51548   0.00000  Uiso   1.00
C185   C     0.76165   0.80148   0.04943   0.00000  Uiso   1.00
C186   C     0.79884   0.85470   0.09083   0.00000  Uiso   1.00
C187   C     0.80976   0.92773   0.07865   0.00000  Uiso   1.00
C188   C     0.84487   0.96723   0.12232   0.00000  Uiso   1.00
C189   C     0.89905   0.05479   0.17842   0.00000  Uiso   1.00
C190   C     0.70494   0.76957   0.08801   0.00000  Uiso   1.00
C191   C     0.63691   0.77103   0.07345   0.00000  Uiso   1.00
C192   C     0.59298   0.73886   0.11475   0.00000  Uiso   1.00
C193   C     0.50137   0.69422   0.16645   0.00000  Uiso   1.00
C194   C     0.81058   0.73926   0.03744   0.00000  Uiso   1.00
C195   C     0.83137   0.71520   0.98037   0.00000  Uiso   1.00
C196   C     0.87638   0.65750   0.97908   0.00000  Uiso   1.00
C197   C     0.94880   0.56579   0.95227   0.00000  Uiso   1.00
C198   C     0.80458   0.74176   0.14864   0.00000  Uiso   1.00
C199   C     0.82215   0.82225   0.14472   0.00000  Uiso   1.00
C200   C     0.85726   0.86165   0.18842   0.00000  Uiso   1.00
C201   C     0.86824   0.93473   0.17630   0.00000  Uiso   1.00
C202   C     0.72825   0.73713   0.14190   0.00000  Uiso   1.00
C203   C     0.68441   0.70495   0.18322   0.00000  Uiso   1.00
C204   C     0.61634   0.70636   0.16873   0.00000  Uiso   1.00
C205   C     0.83390   0.70681   0.09133   0.00000  Uiso   1.00
C206   C     0.87888   0.64913   0.09013   0.00000  Uiso   1.00
C207   C     0.89974   0.62500   0.03307   0.00000  Uiso   1.00
H208   H     0.74349   0.82674   0.00748   0.00000  Uiso   1.00
H209   H     0.79170   0.95282   0.03695   0.00000  Uiso   1.00
H210   H     0.61888   0.79613   0.03175   0.00000  Uiso   1.00
H211   H     0.81331   0.74032   0.93868   0.00000  Uiso   1.00
H212   H     0.85542   0.07829   0.09339   0.00000  Uiso   1.00
H213   H     0.49102   0.74790   0.08242   0.00000  Uiso   1.00
H214   H     0.90102   0.63021   0.88616   0.00000  Uiso   1.00
H215   H     0.82273   0.71650   0.19060   0.00000  Uiso   1.00
H216   H     0.87530   0.83653   0.23011   0.00000  Uiso   1.00
H217   H     0.70248   0.67984   0.22491   0.00000  Uiso   1.00
H218   H     0.89691   0.62404   0.13184   0.00000  Uiso   1.00
H219   H     0.92327   0.98391   0.25017   0.00000  Uiso   1.00
H220   H     0.55887   0.65351   0.23920   0.00000  Uiso   1.00
H221   H     0.96887   0.53582   0.04294   0.00000  Uiso   1.00
O222   O     0.92248   0.11206   0.19448   0.00000  Uiso   1.00
O223   O     0.44440   0.67857   0.18008   0.00000  Uiso   1.00
O224   O     0.98231   0.52418   0.92259   0.00000  Uiso   1.00
N225   N     0.86419   0.03961   0.12486   0.00000  Uiso   1.00
N226   N     0.52349   0.73071   0.11461   0.00000  Uiso   1.00
N227   N     0.90679   0.62067   0.93112   0.00000  Uiso   1.00
N228   N     0.90070   0.98882   0.20922   0.00000  Uiso   1.00
N229   N     0.56000   0.67993   0.19897   0.00000  Uiso   1.00
N230   N     0.94330   0.56988   0.01548   0.00000  Uiso   1.00
C231   C     0.73835   0.19852   0.04943   0.00000  Uiso   1.00
C232   C     0.70116   0.14530   0.09083   0.00000  Uiso   1.00
C233   C     0.69024   0.07227   0.07865   0.00000  Uiso   1.00
C234   C     0.65513   0.03277   0.12232   0.00000  Uiso   1.00
C235   C     0.60095   0.94521   0.17842   0.00000  Uiso   1.00
C236   C     0.79506   0.23043   0.08801   0.00000  Uiso   1.00
C237   C     0.86309   0.22897   0.07345   0.00000  Uiso   1.00
C238   C     0.90702   0.26114   0.11475   0.00000  Uiso   1.00
C239   C     0.99863   0.30578   0.16645   0.00000  Uiso   1.00
C240   C     0.68942   0.26074   0.03744   0.00000  Uiso   1.00
C241   C     0.66863   0.28480   0.98037   0.00000  Uiso   1.00
C242   C     0.62362   0.34250   0.97908   0.00000  Uiso   1.00
C243   C     0.55120   0.43421   0.95227   0.00000  Uiso   1.00
C244   C     0.69542   0.25824   0.14864   0.00000  Uiso   1.00
C245   C     0.67785   0.17775   0.14472   0.00000  Uiso   1.00
C246   C     0.64274   0.13835   0.18842   0.00000  Uiso   1.00
C247   C     0.63176   0.06527   0.17630   0.00000  Uiso   1.00
C248   C     0.77175   0.26287   0.14190   0.00000  Uiso   1.00
C249   C     0.81559   0.29505   0.18322   0.00000  Uiso   1.00
C250   C     0.88366   0.29364   0.16873   0.00000  Uiso   1.00
C251   C     0.66610   0.29319   0.09133   0.00000  Uiso   1.00
C252   C     0.62112   0.35087   0.09013   0.00000  Uiso   1.00
C253   C     0.60026   0.37500   0.03307   0.00000  Uiso   1.00
H254   H     0.75651   0.17326   0.00748   0.00000  Uiso   1.00
H255   H     0.70830   0.04718   0.03695   0.00000  Uiso   1.00
H256   H     0.88112   0.20387   0.03175   0.00000  Uiso   1.00
H257   H     0.68669   0.25968   0.93868   0.00000  Uiso   1.00
H258   H     0.64458   0.92171   0.09339   0.00000  Uiso   1.00
H259   H     0.00898   0.25210   0.08242   0.00000  Uiso   1.00
H260   H     0.59898   0.36979   0.88616   0.00000  Uiso   1.00
H261   H     0.67727   0.28350   0.19060   0.00000  Uiso   1.00
H262   H     0.62470   0.16347   0.23011   0.00000  Uiso   1.00
H263   H     0.79752   0.32016   0.22491   0.00000  Uiso   1.00
H264   H     0.60309   0.37596   0.13184   0.00000  Uiso   1.00
H265   H     0.57673   0.01609   0.25017   0.00000  Uiso   1.00
H266   H     0.94113   0.34649   0.23920   0.00000  Uiso   1.00
H267   H     0.53113   0.46418   0.04294   0.00000  Uiso   1.00
O268   O     0.57752   0.88794   0.19448   0.00000  Uiso   1.00
O269   O     0.05560   0.32143   0.18008   0.00000  Uiso   1.00
O270   O     0.51769   0.47582   0.92259   0.00000  Uiso   1.00
N271   N     0.63581   0.96039   0.12486   0.00000  Uiso   1.00
N272   N     0.97651   0.26929   0.11461   0.00000  Uiso   1.00
N273   N     0.59321   0.37933   0.93112   0.00000  Uiso   1.00
N274   N     0.59930   0.01118   0.20922   0.00000  Uiso   1.00
N275   N     0.94000   0.32007   0.19897   0.00000  Uiso   1.00
N276   N     0.55670   0.43012   0.01548   0.00000  Uiso   1.00
C277   C     0.73835   0.30148   0.45057   0.00000  Uiso   1.00
C278   C     0.70116   0.35470   0.40917   0.00000  Uiso   1.00
C279   C     0.69024   0.42773   0.42135   0.00000  Uiso   1.00
C280   C     0.65513   0.46723   0.37768   0.00000  Uiso   1.00
C281   C     0.60095   0.55479   0.32158   0.00000  Uiso   1.00
C282   C     0.79506   0.26957   0.41199   0.00000  Uiso   1.00
C283   C     0.86309   0.27103   0.42655   0.00000  Uiso   1.00
C284   C     0.90702   0.23886   0.38525   0.00000  Uiso   1.00
C285   C     0.99863   0.19422   0.33355   0.00000  Uiso   1.00
C286   C     0.68942   0.23926   0.46256   0.00000  Uiso   1.00
C287   C     0.66863   0.21520   0.51963   0.00000  Uiso   1.00
C288   C     0.62362   0.15750   0.52092   0.00000  Uiso   1.00
C289   C     0.55120   0.06579   0.54773   0.00000  Uiso   1.00
C290   C     0.69542   0.24176   0.35136   0.00000  Uiso   1.00
C291   C     0.67785   0.32225   0.35528   0.00000  Uiso   1.00
C292   C     0.64274   0.36165   0.31158   0.00000  Uiso   1.00
C293   C     0.63176   0.43473   0.32370   0.00000  Uiso   1.00
C294   C     0.77175   0.23713   0.35810   0.00000  Uiso   1.00
C295   C     0.81559   0.20495   0.31678   0.00000  Uiso   1.00
C296   C     0.88366   0.20636   0.33127   0.00000  Uiso   1.00
C297   C     0.66610   0.20681   0.40867   0.00000  Uiso   1.00
C298   C     0.62112   0.14913   0.40987   0.00000  Uiso   1.00
C299   C     0.60026   0.12500   0.46693   0.00000  Uiso   1.00
H300   H     0.75651   0.32674   0.49252   0.00000  Uiso   1.00
H301   H     0.70830   0.45282   0.46305   0.00000  Uiso   1.00
H302   H     0.88112   0.29613   0.46825   0.00000  Uiso   1.00
H303   H     0.68669   0.24032   0.56132   0.00000  Uiso   1.00
H304   H     0.64458   0.57829   0.40661   0.00000  Uiso   1.00
H305   H     0.00898   0.24790   0.41758   0.00000  Uiso   1.00
H306   H     0.59898   0.13021   0.61384   0.00000  Uiso   1.00
H307   H     0.67727   0.21650   0.30940   0.00000  Uiso   1.00
H308   H     0.62470   0.33653   0.26989   0.00000  Uiso   1.00
H309   H     0.79752   0.17984   0.27509   0.00000  Uiso   1.00
H310   H     0.60309   0.12404   0.36816   0.00000  Uiso   1.00
H311   H     0.57673   0.48391   0.24983   0.00000  Uiso   1.00
H312   H     0.94113   0.15351   0.26080   0.00000  Uiso   1.00
H313   H     0.53113   0.03582   0.45706   0.00000  Uiso   1.00
O314   O     0.57752   0.61206   0.30552   0.00000  Uiso   1.00
O315   O     0.05560   0.17857   0.31992   0.00000  Uiso   1.00
O316   O     0.51769   0.02418   0.57741   0.00000  Uiso   1.00
N317   N     0.63581   0.53961   0.37514   0.00000  Uiso   1.00
N318   N     0.97651   0.23071   0.38539   0.00000  Uiso   1.00
N319   N     0.59321   0.12067   0.56888   0.00000  Uiso   1.00
N320   N     0.59930   0.48882   0.29078   0.00000  Uiso   1.00
N321   N     0.94000   0.17993   0.30103   0.00000  Uiso   1.00
N322   N     0.55670   0.06988   0.48452   0.00000  Uiso   1.00
C323   C     0.76165   0.69852   0.45057   0.00000  Uiso   1.00
C324   C     0.79884   0.64530   0.40917   0.00000  Uiso   1.00
C325   C     0.80976   0.57227   0.42135   0.00000  Uiso   1.00
C326   C     0.84487   0.53277   0.37768   0.00000  Uiso   1.00
C327   C     0.89905   0.44521   0.32158   0.00000  Uiso   1.00
C328   C     0.70494   0.73043   0.41199   0.00000  Uiso   1.00
C329   C     0.63691   0.72897   0.42655   0.00000  Uiso   1.00
C330   C     0.59298   0.76114   0.38525   0.00000  Uiso   1.00
C331   C     0.50137   0.80578   0.33355   0.00000  Uiso   1.00
C332   C     0.81058   0.76074   0.46256   0.00000  Uiso   1.00
C333   C     0.83137   0.78480   0.51963   0.00000  Uiso   1.00
C334   C     0.87638   0.84250   0.52092   0.00000  Uiso   1.00
C335   C     0.94880   0.93421   0.54773   0.00000  Uiso   1.00
C336   C     0.80458   0.75824   0.35136   0.00000  Uiso   1.00
C337   C     0.82215   0.67775   0.35528   0.00000  Uiso   1.00
C338   C     0.85726   0.63835   0.31158   0.00000  Uiso   1.00
C339   C     0.86824   0.56527   0.32370   0.00000  Uiso   1.00
C340   C     0.72825   0.76287   0.35810   0.00000  Uiso   1.00
C341   C     0.68441   0.79505   0.31678   0.00000  Uiso   1.00
C342   C     0.61634   0.79364   0.33127   0.00000  Uiso   1.00
C343   C     0.83390   0.79319   0.40867   0.00000  Uiso   1.00
C344   C     0.87888   0.85087   0.40987   0.00000  Uiso   1.00
C345   C     0.89974   0.87500   0.46693   0.00000  Uiso   1.00
H346   H     0.74349   0.67326   0.49252   0.00000  Uiso   1.00
H347   H     0.79170   0.54718   0.46305   0.00000  Uiso   1.00
H348   H     0.61888   0.70387   0.46825   0.00000  Uiso   1.00
H349   H     0.81331   0.75968   0.56132   0.00000  Uiso   1.00
H350   H     0.85542   0.42171   0.40661   0.00000  Uiso   1.00
H351   H     0.49102   0.75210   0.41758   0.00000  Uiso   1.00
H352   H     0.90102   0.86979   0.61384   0.00000  Uiso   1.00
H353   H     0.82273   0.78350   0.30940   0.00000  Uiso   1.00
H354   H     0.87530   0.66347   0.26989   0.00000  Uiso   1.00
H355   H     0.70248   0.82016   0.27509   0.00000  Uiso   1.00
H356   H     0.89691   0.87596   0.36816   0.00000  Uiso   1.00
H357   H     0.92327   0.51609   0.24983   0.00000  Uiso   1.00
H358   H     0.55887   0.84649   0.26080   0.00000  Uiso   1.00
H359   H     0.96887   0.96418   0.45706   0.00000  Uiso   1.00
O360   O     0.92248   0.38794   0.30552   0.00000  Uiso   1.00
O361   O     0.44440   0.82143   0.31992   0.00000  Uiso   1.00
O362   O     0.98231   0.97582   0.57741   0.00000  Uiso   1.00
N363   N     0.86419   0.46039   0.37514   0.00000  Uiso   1.00
N364   N     0.52349   0.76929   0.38539   0.00000  Uiso   1.00
N365   N     0.90679   0.87933   0.56888   0.00000  Uiso   1.00
N366   N     0.90070   0.51118   0.29078   0.00000  Uiso   1.00
N367   N     0.56000   0.82007   0.30103   0.00000  Uiso   1.00
N368   N     0.94330   0.93012   0.48452   0.00000  Uiso   1.00
