data_job_06265
_audit_creation_date              2018-12-19
_audit_creation_method            'Materials Studio'
_symmetry_space_group_name_H-M    'P1'
_symmetry_Int_Tables_number       1
_symmetry_cell_setting            triclinic
loop_
_symmetry_equiv_pos_as_xyz
  x,y,z
_cell_length_a                    17.7488
_cell_length_b                    17.5968
_cell_length_c                    17.0665
_cell_angle_alpha                 83.8392
_cell_angle_beta                  83.6656
_cell_angle_gamma                 82.6064
loop_
_atom_site_label
_atom_site_type_symbol
_atom_site_fract_x
_atom_site_fract_y
_atom_site_fract_z
_atom_site_U_iso_or_equiv
_atom_site_adp_type
_atom_site_occupancy
C1     C     0.50242   0.19800   0.81014   0.00000  Uiso   1.00
C2     C     0.43600   0.19815   0.87495   0.00000  Uiso   1.00
C3     C     0.37524   0.25583   0.88259   0.00000  Uiso   1.00
C4     C     0.32025   0.24518   0.94595   0.00000  Uiso   1.00
C5     C     0.21628   0.25547   0.03844   0.00000  Uiso   1.00
C6     C     0.57472   0.18851   0.85266   0.00000  Uiso   1.00
C7     C     0.63060   0.23808   0.84154   0.00000  Uiso   1.00
C8     C     0.69239   0.21930   0.88612   0.00000  Uiso   1.00
C9     C     0.80382   0.21459   0.94395   0.00000  Uiso   1.00
C10    C     0.50367   0.12408   0.77061   0.00000  Uiso   1.00
C11    C     0.49982   0.11947   0.69050   0.00000  Uiso   1.00
C12    C     0.50181   0.04644   0.66600   0.00000  Uiso   1.00
C13    C     0.50290   0.94170   0.59644   0.00000  Uiso   1.00
C14    C     0.51281   0.07650   0.90907   0.00000  Uiso   1.00
C15    C     0.44165   0.13216   0.92869   0.00000  Uiso   1.00
C16    C     0.38673   0.12141   0.99205   0.00000  Uiso   1.00
C17    C     0.32590   0.17907   0.99978   0.00000  Uiso   1.00
C18    C     0.58037   0.12252   0.90639   0.00000  Uiso   1.00
C19    C     0.64209   0.10366   0.95099   0.00000  Uiso   1.00
C20    C     0.69805   0.15319   0.93995   0.00000  Uiso   1.00
C21    C     0.50931   0.05808   0.82434   0.00000  Uiso   1.00
C22    C     0.51131   0.98505   0.79996   0.00000  Uiso   1.00
C23    C     0.50746   0.98033   0.71984   0.00000  Uiso   1.00
H24    H     0.49804   0.24937   0.76831   0.00000  Uiso   1.00
H25    H     0.37090   0.30689   0.84100   0.00000  Uiso   1.00
H26    H     0.62623   0.28913   0.79995   0.00000  Uiso   1.00
H27    H     0.49546   0.17055   0.64894   0.00000  Uiso   1.00
H28    H     0.23245   0.34158   0.94531   0.00000  Uiso   1.00
H29    H     0.77083   0.30412   0.85873   0.00000  Uiso   1.00
H30    H     0.49508   0.05405   0.54029   0.00000  Uiso   1.00
H31    H     0.51720   0.02512   0.95090   0.00000  Uiso   1.00
H32    H     0.39111   0.07034   0.03362   0.00000  Uiso   1.00
H33    H     0.64644   0.05258   0.99257   0.00000  Uiso   1.00
H34    H     0.51567   0.93399   0.84156   0.00000  Uiso   1.00
H35    H     0.24885   0.14958   0.10165   0.00000  Uiso   1.00
H36    H     0.78724   0.11213   0.01506   0.00000  Uiso   1.00
H37    H     0.51149   0.86206   0.69663   0.00000  Uiso   1.00
O38    O     0.15737   0.27939   0.07461   0.00000  Uiso   1.00
O39    O     0.86371   0.23024   0.96101   0.00000  Uiso   1.00
O40    O     0.50194   0.90215   0.54323   0.00000  Uiso   1.00
N41    N     0.25361   0.29018   0.97074   0.00000  Uiso   1.00
N42    N     0.75695   0.25517   0.88980   0.00000  Uiso   1.00
N43    N     0.49917   0.02137   0.59209   0.00000  Uiso   1.00
N44    N     0.26243   0.18687   0.05487   0.00000  Uiso   1.00
N45    N     0.76578   0.15186   0.97393   0.00000  Uiso   1.00
N46    N     0.50800   0.91806   0.67621   0.00000  Uiso   1.00
C47    C     0.80397   0.50618   0.20843   0.00000  Uiso   1.00
C48    C     0.86739   0.43891   0.20803   0.00000  Uiso   1.00
C49    C     0.87511   0.37811   0.26661   0.00000  Uiso   1.00
C50    C     0.93706   0.32228   0.25524   0.00000  Uiso   1.00
C51    C     0.02761   0.21711   0.26493   0.00000  Uiso   1.00
C52    C     0.84371   0.57887   0.20012   0.00000  Uiso   1.00
C53    C     0.83152   0.63575   0.25204   0.00000  Uiso   1.00
C54    C     0.87353   0.69775   0.23399   0.00000  Uiso   1.00
C55    C     0.92728   0.80990   0.23136   0.00000  Uiso   1.00
C56    C     0.76679   0.50690   0.13191   0.00000  Uiso   1.00
C57    C     0.68991   0.50329   0.12648   0.00000  Uiso   1.00
C58    C     0.66716   0.50471   0.05101   0.00000  Uiso   1.00
C59    C     0.60146   0.50512   0.94247   0.00000  Uiso   1.00
C60    C     0.90026   0.51515   0.08406   0.00000  Uiso   1.00
C61    C     0.91969   0.44379   0.14048   0.00000  Uiso   1.00
C62    C     0.98165   0.38803   0.12902   0.00000  Uiso   1.00
C63    C     0.98946   0.32716   0.18757   0.00000  Uiso   1.00
C64    C     0.89601   0.58375   0.13257   0.00000  Uiso   1.00
C65    C     0.93805   0.64568   0.11444   0.00000  Uiso   1.00
C66    C     0.92593   0.70264   0.16632   0.00000  Uiso   1.00
C67    C     0.81909   0.51177   0.06436   0.00000  Uiso   1.00
C68    C     0.79645   0.51321   0.98889   0.00000  Uiso   1.00
C69    C     0.71955   0.50960   0.98334   0.00000  Uiso   1.00
H70    H     0.76325   0.50239   0.26102   0.00000  Uiso   1.00
H71    H     0.83463   0.37436   0.31888   0.00000  Uiso   1.00
H72    H     0.79104   0.63197   0.30430   0.00000  Uiso   1.00
H73    H     0.64945   0.49952   0.17876   0.00000  Uiso   1.00
H74    H     0.93684   0.23459   0.35326   0.00000  Uiso   1.00
H75    H     0.84491   0.77778   0.32250   0.00000  Uiso   1.00
H76    H     0.54635   0.49849   0.05778   0.00000  Uiso   1.00
H77    H     0.94098   0.51895   0.03147   0.00000  Uiso   1.00
H78    H     0.02211   0.39182   0.07674   0.00000  Uiso   1.00
H79    H     0.97852   0.64943   0.06216   0.00000  Uiso   1.00
H80    H     0.83694   0.51698   0.93663   0.00000  Uiso   1.00
H81    H     0.08902   0.24876   0.15673   0.00000  Uiso   1.00
H82    H     0.99708   0.79196   0.12597   0.00000  Uiso   1.00
H83    H     0.69852   0.51266   0.86125   0.00000  Uiso   1.00
O84    O     0.06311   0.15776   0.28893   0.00000  Uiso   1.00
O85    O     0.94248   0.87042   0.24857   0.00000  Uiso   1.00
O86    O     0.55078   0.50399   0.90126   0.00000  Uiso   1.00
N87    N     0.96151   0.25536   0.30079   0.00000  Uiso   1.00
N88    N     0.87557   0.76321   0.27204   0.00000  Uiso   1.00
N89    N     0.59644   0.50211   0.02454   0.00000  Uiso   1.00
N90    N     0.04340   0.26298   0.19504   0.00000  Uiso   1.00
N91    N     0.95745   0.77083   0.16629   0.00000  Uiso   1.00
N92    N     0.67832   0.50974   0.91879   0.00000  Uiso   1.00
C93    C     0.19614   0.80469   0.51442   0.00000  Uiso   1.00
C94    C     0.19544   0.86806   0.44605   0.00000  Uiso   1.00
C95    C     0.25231   0.87506   0.38392   0.00000  Uiso   1.00
C96    C     0.24097   0.93709   0.32725   0.00000  Uiso   1.00
C97    C     0.24993   0.02744   0.22030   0.00000  Uiso   1.00
C98    C     0.18665   0.84549   0.58995   0.00000  Uiso   1.00
C99    C     0.23611   0.83351   0.64882   0.00000  Uiso   1.00
C100   C     0.21735   0.87655   0.71328   0.00000  Uiso   1.00
C101   C     0.21263   0.93182   0.82977   0.00000  Uiso   1.00
C102   C     0.12321   0.76748   0.51398   0.00000  Uiso   1.00
C103   C     0.11933   0.68990   0.50900   0.00000  Uiso   1.00
C104   C     0.04716   0.66725   0.50952   0.00000  Uiso   1.00
C105   C     0.94395   0.60139   0.50806   0.00000  Uiso   1.00
C106   C     0.07486   0.90241   0.52424   0.00000  Uiso   1.00
C107   C     0.12957   0.92114   0.45139   0.00000  Uiso   1.00
C108   C     0.11814   0.98318   0.39479   0.00000  Uiso   1.00
C109   C     0.17498   0.99027   0.33258   0.00000  Uiso   1.00
C110   C     0.12078   0.89857   0.59529   0.00000  Uiso   1.00
C111   C     0.10194   0.94163   0.65968   0.00000  Uiso   1.00
C112   C     0.15137   0.92972   0.71863   0.00000  Uiso   1.00
C113   C     0.05734   0.82056   0.51931   0.00000  Uiso   1.00
C114   C     0.98516   0.79802   0.51985   0.00000  Uiso   1.00
C115   C     0.98118   0.72042   0.51487   0.00000  Uiso   1.00
H116   H     0.24742   0.76336   0.51027   0.00000  Uiso   1.00
H117   H     0.30328   0.83397   0.37982   0.00000  Uiso   1.00
H118   H     0.28708   0.79243   0.64468   0.00000  Uiso   1.00
H119   H     0.17032   0.64884   0.50487   0.00000  Uiso   1.00
H120   H     0.33618   0.93568   0.23756   0.00000  Uiso   1.00
H121   H     0.30201   0.84806   0.79604   0.00000  Uiso   1.00
H122   H     0.05580   0.54528   0.50124   0.00000  Uiso   1.00
H123   H     0.02358   0.94373   0.52839   0.00000  Uiso   1.00
H124   H     0.06716   0.02424   0.39893   0.00000  Uiso   1.00
H125   H     0.05096   0.98269   0.66379   0.00000  Uiso   1.00
H126   H     0.93420   0.83911   0.52398   0.00000  Uiso   1.00
H127   H     0.14454   0.09011   0.25307   0.00000  Uiso   1.00
H128   H     0.11036   0.00249   0.81155   0.00000  Uiso   1.00
H129   H     0.86415   0.69971   0.51675   0.00000  Uiso   1.00
O130   O     0.27308   0.06262   0.15984   0.00000  Uiso   1.00
O131   O     0.22823   0.94765   0.89255   0.00000  Uiso   1.00
O132   O     0.90521   0.55041   0.50577   0.00000  Uiso   1.00
N133   N     0.28509   0.96097   0.25897   0.00000  Uiso   1.00
N134   N     0.25314   0.87906   0.78111   0.00000  Uiso   1.00
N135   N     0.02296   0.59598   0.50551   0.00000  Uiso   1.00
N136   N     0.18197   0.04407   0.26732   0.00000  Uiso   1.00
N137   N     0.15002   0.96215   0.78945   0.00000  Uiso   1.00
N138   N     0.91983   0.67907   0.51386   0.00000  Uiso   1.00
C139   C     0.49758   0.80200   0.18986   0.00000  Uiso   1.00
C140   C     0.56400   0.80185   0.12505   0.00000  Uiso   1.00
C141   C     0.62476   0.74417   0.11741   0.00000  Uiso   1.00
C142   C     0.67975   0.75482   0.05405   0.00000  Uiso   1.00
C143   C     0.78372   0.74453   0.96156   0.00000  Uiso   1.00
C144   C     0.42528   0.81149   0.14734   0.00000  Uiso   1.00
C145   C     0.36940   0.76192   0.15846   0.00000  Uiso   1.00
C146   C     0.30760   0.78070   0.11388   0.00000  Uiso   1.00
C147   C     0.19618   0.78541   0.05605   0.00000  Uiso   1.00
C148   C     0.49633   0.87592   0.22939   0.00000  Uiso   1.00
C149   C     0.50018   0.88053   0.30950   0.00000  Uiso   1.00
C150   C     0.49819   0.95356   0.33400   0.00000  Uiso   1.00
C151   C     0.49710   0.05830   0.40356   0.00000  Uiso   1.00
C152   C     0.48719   0.92350   0.09093   0.00000  Uiso   1.00
C153   C     0.55835   0.86784   0.07131   0.00000  Uiso   1.00
C154   C     0.61327   0.87859   0.00795   0.00000  Uiso   1.00
C155   C     0.67410   0.82093   0.00022   0.00000  Uiso   1.00
C156   C     0.41963   0.87748   0.09361   0.00000  Uiso   1.00
C157   C     0.35791   0.89634   0.04901   0.00000  Uiso   1.00
C158   C     0.30195   0.84681   0.06005   0.00000  Uiso   1.00
C159   C     0.49069   0.94192   0.17566   0.00000  Uiso   1.00
C160   C     0.48869   0.01495   0.20004   0.00000  Uiso   1.00
C161   C     0.49254   0.01967   0.28016   0.00000  Uiso   1.00
H162   H     0.50196   0.75063   0.23169   0.00000  Uiso   1.00
H163   H     0.62910   0.69310   0.15900   0.00000  Uiso   1.00
H164   H     0.37377   0.71087   0.20005   0.00000  Uiso   1.00
H165   H     0.50454   0.82945   0.35106   0.00000  Uiso   1.00
H166   H     0.76755   0.65842   0.05469   0.00000  Uiso   1.00
H167   H     0.22917   0.69588   0.14127   0.00000  Uiso   1.00
H168   H     0.50492   0.94595   0.45971   0.00000  Uiso   1.00
H169   H     0.48280   0.97488   0.04910   0.00000  Uiso   1.00
H170   H     0.60889   0.92966   0.96638   0.00000  Uiso   1.00
H171   H     0.35356   0.94742   0.00743   0.00000  Uiso   1.00
H172   H     0.48433   0.06601   0.15844   0.00000  Uiso   1.00
H173   H     0.75115   0.85042   0.89835   0.00000  Uiso   1.00
H174   H     0.21276   0.88787   0.98494   0.00000  Uiso   1.00
H175   H     0.48851   0.13794   0.30337   0.00000  Uiso   1.00
O176   O     0.84263   0.72061   0.92539   0.00000  Uiso   1.00
O177   O     0.13629   0.76976   0.03899   0.00000  Uiso   1.00
O178   O     0.49806   0.09785   0.45677   0.00000  Uiso   1.00
N179   N     0.74639   0.70982   0.02926   0.00000  Uiso   1.00
N180   N     0.24305   0.74483   0.11020   0.00000  Uiso   1.00
N181   N     0.50083   0.97863   0.40791   0.00000  Uiso   1.00
N182   N     0.73757   0.81313   0.94513   0.00000  Uiso   1.00
N183   N     0.23422   0.84814   0.02607   0.00000  Uiso   1.00
N184   N     0.49200   0.08194   0.32379   0.00000  Uiso   1.00
C185   C     0.19603   0.49382   0.79157   0.00000  Uiso   1.00
C186   C     0.13261   0.56109   0.79197   0.00000  Uiso   1.00
C187   C     0.12489   0.62189   0.73339   0.00000  Uiso   1.00
C188   C     0.06294   0.67772   0.74475   0.00000  Uiso   1.00
C189   C     0.97239   0.78289   0.73507   0.00000  Uiso   1.00
C190   C     0.15628   0.42113   0.79988   0.00000  Uiso   1.00
C191   C     0.16848   0.36424   0.74796   0.00000  Uiso   1.00
C192   C     0.12647   0.30225   0.76601   0.00000  Uiso   1.00
C193   C     0.07272   0.19009   0.76864   0.00000  Uiso   1.00
C194   C     0.23321   0.49310   0.86809   0.00000  Uiso   1.00
C195   C     0.31009   0.49671   0.87352   0.00000  Uiso   1.00
C196   C     0.33284   0.49529   0.94899   0.00000  Uiso   1.00
C197   C     0.39853   0.49488   0.05753   0.00000  Uiso   1.00
C198   C     0.09974   0.48485   0.91594   0.00000  Uiso   1.00
C199   C     0.08031   0.55621   0.85952   0.00000  Uiso   1.00
C200   C     0.01835   0.61196   0.87098   0.00000  Uiso   1.00
C201   C     0.01054   0.67284   0.81243   0.00000  Uiso   1.00
C202   C     0.10399   0.41625   0.86743   0.00000  Uiso   1.00
C203   C     0.06194   0.35432   0.88556   0.00000  Uiso   1.00
C204   C     0.07407   0.29736   0.83368   0.00000  Uiso   1.00
C205   C     0.18091   0.48823   0.93564   0.00000  Uiso   1.00
C206   C     0.20355   0.48679   0.01111   0.00000  Uiso   1.00
C207   C     0.28045   0.49040   0.01666   0.00000  Uiso   1.00
H208   H     0.23675   0.49761   0.73898   0.00000  Uiso   1.00
H209   H     0.16537   0.62564   0.68112   0.00000  Uiso   1.00
H210   H     0.20896   0.36803   0.69570   0.00000  Uiso   1.00
H211   H     0.35055   0.50048   0.82124   0.00000  Uiso   1.00
H212   H     0.06316   0.76541   0.64674   0.00000  Uiso   1.00
H213   H     0.15509   0.22222   0.67750   0.00000  Uiso   1.00
H214   H     0.45365   0.50151   0.94222   0.00000  Uiso   1.00
H215   H     0.05902   0.48105   0.96853   0.00000  Uiso   1.00
H216   H     0.97789   0.60818   0.92326   0.00000  Uiso   1.00
H217   H     0.02148   0.35057   0.93784   0.00000  Uiso   1.00
H218   H     0.16306   0.48302   0.06337   0.00000  Uiso   1.00
H219   H     0.91098   0.75124   0.84327   0.00000  Uiso   1.00
H220   H     0.00292   0.20804   0.87402   0.00000  Uiso   1.00
H221   H     0.30148   0.48734   0.13875   0.00000  Uiso   1.00
O222   O     0.93689   0.84224   0.71107   0.00000  Uiso   1.00
O223   O     0.05752   0.12958   0.75143   0.00000  Uiso   1.00
O224   O     0.44921   0.49601   0.09874   0.00000  Uiso   1.00
N225   N     0.03849   0.74464   0.69921   0.00000  Uiso   1.00
N226   N     0.12443   0.23679   0.72796   0.00000  Uiso   1.00
N227   N     0.40356   0.49789   0.97545   0.00000  Uiso   1.00
N228   N     0.95660   0.73702   0.80496   0.00000  Uiso   1.00
N229   N     0.04255   0.22917   0.83371   0.00000  Uiso   1.00
N230   N     0.32168   0.49026   0.08121   0.00000  Uiso   1.00
C231   C     0.80386   0.19531   0.48558   0.00000  Uiso   1.00
C232   C     0.80456   0.13194   0.55395   0.00000  Uiso   1.00
C233   C     0.74769   0.12494   0.61608   0.00000  Uiso   1.00
C234   C     0.75903   0.06291   0.67275   0.00000  Uiso   1.00
C235   C     0.75007   0.97256   0.77970   0.00000  Uiso   1.00
C236   C     0.81335   0.15451   0.41005   0.00000  Uiso   1.00
C237   C     0.76389   0.16649   0.35118   0.00000  Uiso   1.00
C238   C     0.78264   0.12345   0.28672   0.00000  Uiso   1.00
C239   C     0.78737   0.06818   0.17023   0.00000  Uiso   1.00
C240   C     0.87679   0.23252   0.48602   0.00000  Uiso   1.00
C241   C     0.88067   0.31010   0.49100   0.00000  Uiso   1.00
C242   C     0.95284   0.33275   0.49048   0.00000  Uiso   1.00
C243   C     0.05605   0.39861   0.49194   0.00000  Uiso   1.00
C244   C     0.92514   0.09759   0.47576   0.00000  Uiso   1.00
C245   C     0.87043   0.07886   0.54861   0.00000  Uiso   1.00
C246   C     0.88186   0.01682   0.60521   0.00000  Uiso   1.00
C247   C     0.82502   0.00973   0.66742   0.00000  Uiso   1.00
C248   C     0.87922   0.10143   0.40471   0.00000  Uiso   1.00
C249   C     0.89806   0.05837   0.34032   0.00000  Uiso   1.00
C250   C     0.84863   0.07028   0.28137   0.00000  Uiso   1.00
C251   C     0.94266   0.17944   0.48069   0.00000  Uiso   1.00
C252   C     0.01484   0.20198   0.48015   0.00000  Uiso   1.00
C253   C     0.01882   0.27958   0.48513   0.00000  Uiso   1.00
H254   H     0.75258   0.23664   0.48973   0.00000  Uiso   1.00
H255   H     0.69672   0.16603   0.62018   0.00000  Uiso   1.00
H256   H     0.71292   0.20757   0.35532   0.00000  Uiso   1.00
H257   H     0.82968   0.35116   0.49513   0.00000  Uiso   1.00
H258   H     0.66382   0.06432   0.76244   0.00000  Uiso   1.00
H259   H     0.69799   0.15194   0.20396   0.00000  Uiso   1.00
H260   H     0.94420   0.45472   0.49876   0.00000  Uiso   1.00
H261   H     0.97642   0.05627   0.47161   0.00000  Uiso   1.00
H262   H     0.93284   0.97576   0.60107   0.00000  Uiso   1.00
H263   H     0.94904   0.01731   0.33621   0.00000  Uiso   1.00
H264   H     0.06580   0.16089   0.47602   0.00000  Uiso   1.00
H265   H     0.85546   0.90989   0.74693   0.00000  Uiso   1.00
H266   H     0.88964   0.99751   0.18845   0.00000  Uiso   1.00
H267   H     0.13585   0.30029   0.48325   0.00000  Uiso   1.00
O268   O     0.72692   0.93738   0.84016   0.00000  Uiso   1.00
O269   O     0.77177   0.05235   0.10745   0.00000  Uiso   1.00
O270   O     0.09479   0.44959   0.49423   0.00000  Uiso   1.00
N271   N     0.71491   0.03903   0.74103   0.00000  Uiso   1.00
N272   N     0.74686   0.12094   0.21889   0.00000  Uiso   1.00
N273   N     0.97704   0.40402   0.49449   0.00000  Uiso   1.00
N274   N     0.81803   0.95593   0.73268   0.00000  Uiso   1.00
N275   N     0.84998   0.03784   0.21055   0.00000  Uiso   1.00
N276   N     0.08017   0.32093   0.48614   0.00000  Uiso   1.00
