data_job_05590
_audit_creation_date              2018-12-19
_audit_creation_method            'Materials Studio'
_symmetry_space_group_name_H-M    'P1'
_symmetry_Int_Tables_number       1
_symmetry_cell_setting            triclinic
loop_
_symmetry_equiv_pos_as_xyz
  x,y,z
_cell_length_a                    30.7799
_cell_length_b                    11.5010
_cell_length_c                    17.4062
_cell_angle_alpha                 90.0000
_cell_angle_beta                  98.5281
_cell_angle_gamma                 90.0000
loop_
_atom_site_label
_atom_site_type_symbol
_atom_site_fract_x
_atom_site_fract_y
_atom_site_fract_z
_atom_site_U_iso_or_equiv
_atom_site_adp_type
_atom_site_occupancy
C1     C     0.81227   0.02812   0.41127   0.00000  Uiso   1.00
C2     C     0.82765   0.15138   0.43316   0.00000  Uiso   1.00
C3     C     0.80615   0.25294   0.40655   0.00000  Uiso   1.00
C4     C     0.82556   0.35710   0.43340   0.00000  Uiso   1.00
C5     C     0.84345   0.54814   0.45950   0.00000  Uiso   1.00
C6     C     0.85000   0.97002   0.37817   0.00000  Uiso   1.00
C7     C     0.84728   0.91907   0.30534   0.00000  Uiso   1.00
C8     C     0.88550   0.87054   0.28591   0.00000  Uiso   1.00
C9     C     0.93807   0.77991   0.22667   0.00000  Uiso   1.00
C10    C     0.80900   0.96598   0.48759   0.00000  Uiso   1.00
C11    C     0.77180   0.91160   0.50675   0.00000  Uiso   1.00
C12    C     0.77550   0.85965   0.57943   0.00000  Uiso   1.00
C13    C     0.76440   0.76276   0.69007   0.00000  Uiso   1.00
C14    C     0.88498   0.03251   0.50628   0.00000  Uiso   1.00
C15    C     0.86715   0.15377   0.48476   0.00000  Uiso   1.00
C16    C     0.88659   0.25780   0.51166   0.00000  Uiso   1.00
C17    C     0.86512   0.35950   0.48510   0.00000  Uiso   1.00
C18    C     0.88949   0.97240   0.42977   0.00000  Uiso   1.00
C19    C     0.92772   0.92393   0.41045   0.00000  Uiso   1.00
C20    C     0.92506   0.87293   0.33760   0.00000  Uiso   1.00
C21    C     0.84849   0.96836   0.53919   0.00000  Uiso   1.00
C22    C     0.85224   0.91647   0.61186   0.00000  Uiso   1.00
C23    C     0.81506   0.86204   0.63112   0.00000  Uiso   1.00
H24    H     0.78153   0.02626   0.37110   0.00000  Uiso   1.00
H25    H     0.77559   0.25106   0.36661   0.00000  Uiso   1.00
H26    H     0.81672   0.91722   0.26542   0.00000  Uiso   1.00
H27    H     0.74125   0.90977   0.46680   0.00000  Uiso   1.00
H28    H     0.78643   0.50134   0.38437   0.00000  Uiso   1.00
H29    H     0.87314   0.79740   0.17102   0.00000  Uiso   1.00
H30    H     0.71400   0.78168   0.59566   0.00000  Uiso   1.00
H31    H     0.91573   0.03437   0.54645   0.00000  Uiso   1.00
H32    H     0.91715   0.25962   0.55159   0.00000  Uiso   1.00
H33    H     0.95828   0.92578   0.45040   0.00000  Uiso   1.00
H34    H     0.88281   0.91833   0.65177   0.00000  Uiso   1.00
H35    H     0.90133   0.50829   0.53450   0.00000  Uiso   1.00
H36    H     0.98804   0.80434   0.32115   0.00000  Uiso   1.00
H37    H     0.82890   0.78863   0.74579   0.00000  Uiso   1.00
O38    O     0.84240   0.65285   0.45963   0.00000  Uiso   1.00
O39    O     0.95616   0.72928   0.17973   0.00000  Uiso   1.00
O40    O     0.74737   0.70867   0.73684   0.00000  Uiso   1.00
N41    N     0.81327   0.47206   0.41901   0.00000  Uiso   1.00
N42    N     0.89434   0.81394   0.21953   0.00000  Uiso   1.00
N43    N     0.74556   0.79921   0.61653   0.00000  Uiso   1.00
N44    N     0.87510   0.47580   0.49980   0.00000  Uiso   1.00
N45    N     0.95617   0.81768   0.30032   0.00000  Uiso   1.00
N46    N     0.80739   0.80295   0.69731   0.00000  Uiso   1.00
C47    C     0.31227   0.52812   0.41127   0.00000  Uiso   1.00
C48    C     0.32765   0.65138   0.43316   0.00000  Uiso   1.00
C49    C     0.30615   0.75294   0.40655   0.00000  Uiso   1.00
C50    C     0.32556   0.85710   0.43340   0.00000  Uiso   1.00
C51    C     0.34345   0.04814   0.45950   0.00000  Uiso   1.00
C52    C     0.35000   0.47002   0.37817   0.00000  Uiso   1.00
C53    C     0.34728   0.41907   0.30534   0.00000  Uiso   1.00
C54    C     0.38550   0.37054   0.28591   0.00000  Uiso   1.00
C55    C     0.43807   0.27991   0.22667   0.00000  Uiso   1.00
C56    C     0.30900   0.46598   0.48759   0.00000  Uiso   1.00
C57    C     0.27180   0.41160   0.50675   0.00000  Uiso   1.00
C58    C     0.27550   0.35965   0.57943   0.00000  Uiso   1.00
C59    C     0.26440   0.26276   0.69007   0.00000  Uiso   1.00
C60    C     0.38498   0.53251   0.50628   0.00000  Uiso   1.00
C61    C     0.36715   0.65377   0.48476   0.00000  Uiso   1.00
C62    C     0.38659   0.75780   0.51166   0.00000  Uiso   1.00
C63    C     0.36512   0.85950   0.48510   0.00000  Uiso   1.00
C64    C     0.38949   0.47240   0.42977   0.00000  Uiso   1.00
C65    C     0.42772   0.42393   0.41045   0.00000  Uiso   1.00
C66    C     0.42506   0.37293   0.33760   0.00000  Uiso   1.00
C67    C     0.34849   0.46836   0.53919   0.00000  Uiso   1.00
C68    C     0.35224   0.41647   0.61186   0.00000  Uiso   1.00
C69    C     0.31506   0.36204   0.63112   0.00000  Uiso   1.00
H70    H     0.28153   0.52626   0.37110   0.00000  Uiso   1.00
H71    H     0.27559   0.75106   0.36661   0.00000  Uiso   1.00
H72    H     0.31672   0.41722   0.26542   0.00000  Uiso   1.00
H73    H     0.24125   0.40977   0.46680   0.00000  Uiso   1.00
H74    H     0.28643   0.00134   0.38437   0.00000  Uiso   1.00
H75    H     0.37314   0.29740   0.17102   0.00000  Uiso   1.00
H76    H     0.21400   0.28168   0.59566   0.00000  Uiso   1.00
H77    H     0.41573   0.53437   0.54645   0.00000  Uiso   1.00
H78    H     0.41715   0.75962   0.55159   0.00000  Uiso   1.00
H79    H     0.45828   0.42578   0.45040   0.00000  Uiso   1.00
H80    H     0.38281   0.41833   0.65177   0.00000  Uiso   1.00
H81    H     0.40133   0.00829   0.53450   0.00000  Uiso   1.00
H82    H     0.48804   0.30434   0.32115   0.00000  Uiso   1.00
H83    H     0.32890   0.28863   0.74579   0.00000  Uiso   1.00
O84    O     0.34240   0.15285   0.45963   0.00000  Uiso   1.00
O85    O     0.45616   0.22928   0.17973   0.00000  Uiso   1.00
O86    O     0.24737   0.20867   0.73684   0.00000  Uiso   1.00
N87    N     0.31327   0.97206   0.41901   0.00000  Uiso   1.00
N88    N     0.39434   0.31394   0.21953   0.00000  Uiso   1.00
N89    N     0.24556   0.29921   0.61653   0.00000  Uiso   1.00
N90    N     0.37510   0.97580   0.49980   0.00000  Uiso   1.00
N91    N     0.45617   0.31768   0.30032   0.00000  Uiso   1.00
N92    N     0.30739   0.30295   0.69731   0.00000  Uiso   1.00
C93    C     0.18773   0.02812   0.08873   0.00000  Uiso   1.00
C94    C     0.17235   0.15138   0.06684   0.00000  Uiso   1.00
C95    C     0.19385   0.25294   0.09345   0.00000  Uiso   1.00
C96    C     0.17444   0.35710   0.06660   0.00000  Uiso   1.00
C97    C     0.15655   0.54814   0.04050   0.00000  Uiso   1.00
C98    C     0.15000   0.97002   0.12183   0.00000  Uiso   1.00
C99    C     0.15272   0.91907   0.19466   0.00000  Uiso   1.00
C100   C     0.11450   0.87054   0.21409   0.00000  Uiso   1.00
C101   C     0.06193   0.77991   0.27333   0.00000  Uiso   1.00
C102   C     0.19100   0.96598   0.01241   0.00000  Uiso   1.00
C103   C     0.22820   0.91160   0.99325   0.00000  Uiso   1.00
C104   C     0.22450   0.85965   0.92057   0.00000  Uiso   1.00
C105   C     0.23560   0.76276   0.80993   0.00000  Uiso   1.00
C106   C     0.11502   0.03251   0.99372   0.00000  Uiso   1.00
C107   C     0.13285   0.15377   0.01524   0.00000  Uiso   1.00
C108   C     0.11341   0.25780   0.98834   0.00000  Uiso   1.00
C109   C     0.13488   0.35950   0.01490   0.00000  Uiso   1.00
C110   C     0.11051   0.97240   0.07023   0.00000  Uiso   1.00
C111   C     0.07228   0.92393   0.08955   0.00000  Uiso   1.00
C112   C     0.07494   0.87293   0.16240   0.00000  Uiso   1.00
C113   C     0.15151   0.96836   0.96081   0.00000  Uiso   1.00
C114   C     0.14776   0.91647   0.88814   0.00000  Uiso   1.00
C115   C     0.18494   0.86204   0.86888   0.00000  Uiso   1.00
H116   H     0.21847   0.02626   0.12890   0.00000  Uiso   1.00
H117   H     0.22441   0.25106   0.13339   0.00000  Uiso   1.00
H118   H     0.18328   0.91722   0.23458   0.00000  Uiso   1.00
H119   H     0.25875   0.90977   0.03320   0.00000  Uiso   1.00
H120   H     0.21357   0.50134   0.11563   0.00000  Uiso   1.00
H121   H     0.12686   0.79740   0.32898   0.00000  Uiso   1.00
H122   H     0.28600   0.78168   0.90434   0.00000  Uiso   1.00
H123   H     0.08427   0.03437   0.95355   0.00000  Uiso   1.00
H124   H     0.08285   0.25962   0.94841   0.00000  Uiso   1.00
H125   H     0.04172   0.92578   0.04960   0.00000  Uiso   1.00
H126   H     0.11719   0.91833   0.84823   0.00000  Uiso   1.00
H127   H     0.09867   0.50829   0.96550   0.00000  Uiso   1.00
H128   H     0.01196   0.80434   0.17885   0.00000  Uiso   1.00
H129   H     0.17110   0.78863   0.75421   0.00000  Uiso   1.00
O130   O     0.15760   0.65285   0.04037   0.00000  Uiso   1.00
O131   O     0.04384   0.72928   0.32027   0.00000  Uiso   1.00
O132   O     0.25263   0.70867   0.76316   0.00000  Uiso   1.00
N133   N     0.18673   0.47206   0.08099   0.00000  Uiso   1.00
N134   N     0.10566   0.81394   0.28047   0.00000  Uiso   1.00
N135   N     0.25444   0.79921   0.88347   0.00000  Uiso   1.00
N136   N     0.12490   0.47580   0.00020   0.00000  Uiso   1.00
N137   N     0.04383   0.81768   0.19968   0.00000  Uiso   1.00
N138   N     0.19261   0.80295   0.80269   0.00000  Uiso   1.00
C139   C     0.68773   0.52812   0.08873   0.00000  Uiso   1.00
C140   C     0.67235   0.65138   0.06684   0.00000  Uiso   1.00
C141   C     0.69385   0.75294   0.09345   0.00000  Uiso   1.00
C142   C     0.67444   0.85710   0.06660   0.00000  Uiso   1.00
C143   C     0.65655   0.04814   0.04050   0.00000  Uiso   1.00
C144   C     0.65000   0.47002   0.12183   0.00000  Uiso   1.00
C145   C     0.65272   0.41907   0.19466   0.00000  Uiso   1.00
C146   C     0.61450   0.37054   0.21409   0.00000  Uiso   1.00
C147   C     0.56193   0.27991   0.27333   0.00000  Uiso   1.00
C148   C     0.69100   0.46598   0.01241   0.00000  Uiso   1.00
C149   C     0.72820   0.41160   0.99325   0.00000  Uiso   1.00
C150   C     0.72450   0.35965   0.92057   0.00000  Uiso   1.00
C151   C     0.73560   0.26276   0.80993   0.00000  Uiso   1.00
C152   C     0.61502   0.53251   0.99372   0.00000  Uiso   1.00
C153   C     0.63285   0.65377   0.01524   0.00000  Uiso   1.00
C154   C     0.61341   0.75780   0.98834   0.00000  Uiso   1.00
C155   C     0.63488   0.85950   0.01490   0.00000  Uiso   1.00
C156   C     0.61051   0.47240   0.07023   0.00000  Uiso   1.00
C157   C     0.57228   0.42393   0.08955   0.00000  Uiso   1.00
C158   C     0.57494   0.37293   0.16240   0.00000  Uiso   1.00
C159   C     0.65151   0.46836   0.96081   0.00000  Uiso   1.00
C160   C     0.64776   0.41647   0.88814   0.00000  Uiso   1.00
C161   C     0.68494   0.36204   0.86888   0.00000  Uiso   1.00
H162   H     0.71847   0.52626   0.12890   0.00000  Uiso   1.00
H163   H     0.72441   0.75106   0.13339   0.00000  Uiso   1.00
H164   H     0.68328   0.41722   0.23458   0.00000  Uiso   1.00
H165   H     0.75875   0.40977   0.03320   0.00000  Uiso   1.00
H166   H     0.71357   0.00134   0.11563   0.00000  Uiso   1.00
H167   H     0.62686   0.29740   0.32898   0.00000  Uiso   1.00
H168   H     0.78600   0.28168   0.90434   0.00000  Uiso   1.00
H169   H     0.58427   0.53437   0.95355   0.00000  Uiso   1.00
H170   H     0.58285   0.75962   0.94841   0.00000  Uiso   1.00
H171   H     0.54172   0.42578   0.04960   0.00000  Uiso   1.00
H172   H     0.61719   0.41833   0.84823   0.00000  Uiso   1.00
H173   H     0.59867   0.00829   0.96550   0.00000  Uiso   1.00
H174   H     0.51196   0.30434   0.17885   0.00000  Uiso   1.00
H175   H     0.67110   0.28863   0.75421   0.00000  Uiso   1.00
O176   O     0.65760   0.15285   0.04037   0.00000  Uiso   1.00
O177   O     0.54384   0.22928   0.32027   0.00000  Uiso   1.00
O178   O     0.75263   0.20867   0.76316   0.00000  Uiso   1.00
N179   N     0.68673   0.97206   0.08099   0.00000  Uiso   1.00
N180   N     0.60566   0.31394   0.28047   0.00000  Uiso   1.00
N181   N     0.75444   0.29921   0.88347   0.00000  Uiso   1.00
N182   N     0.62490   0.97580   0.00020   0.00000  Uiso   1.00
N183   N     0.54383   0.31768   0.19968   0.00000  Uiso   1.00
N184   N     0.69261   0.30295   0.80269   0.00000  Uiso   1.00
C185   C     0.18773   0.97188   0.58873   0.00000  Uiso   1.00
C186   C     0.17235   0.84862   0.56684   0.00000  Uiso   1.00
C187   C     0.19385   0.74706   0.59345   0.00000  Uiso   1.00
C188   C     0.17444   0.64290   0.56660   0.00000  Uiso   1.00
C189   C     0.15655   0.45186   0.54050   0.00000  Uiso   1.00
C190   C     0.15000   0.02998   0.62183   0.00000  Uiso   1.00
C191   C     0.15272   0.08093   0.69466   0.00000  Uiso   1.00
C192   C     0.11450   0.12946   0.71409   0.00000  Uiso   1.00
C193   C     0.06193   0.22009   0.77333   0.00000  Uiso   1.00
C194   C     0.19100   0.03402   0.51241   0.00000  Uiso   1.00
C195   C     0.22820   0.08840   0.49325   0.00000  Uiso   1.00
C196   C     0.22450   0.14035   0.42057   0.00000  Uiso   1.00
C197   C     0.23560   0.23724   0.30993   0.00000  Uiso   1.00
C198   C     0.11502   0.96749   0.49372   0.00000  Uiso   1.00
C199   C     0.13285   0.84623   0.51524   0.00000  Uiso   1.00
C200   C     0.11341   0.74220   0.48834   0.00000  Uiso   1.00
C201   C     0.13488   0.64050   0.51490   0.00000  Uiso   1.00
C202   C     0.11051   0.02760   0.57023   0.00000  Uiso   1.00
C203   C     0.07228   0.07607   0.58955   0.00000  Uiso   1.00
C204   C     0.07494   0.12707   0.66240   0.00000  Uiso   1.00
C205   C     0.15151   0.03164   0.46081   0.00000  Uiso   1.00
C206   C     0.14776   0.08353   0.38814   0.00000  Uiso   1.00
C207   C     0.18494   0.13796   0.36888   0.00000  Uiso   1.00
H208   H     0.21847   0.97374   0.62890   0.00000  Uiso   1.00
H209   H     0.22441   0.74894   0.63339   0.00000  Uiso   1.00
H210   H     0.18328   0.08278   0.73458   0.00000  Uiso   1.00
H211   H     0.25875   0.09023   0.53320   0.00000  Uiso   1.00
H212   H     0.21357   0.49866   0.61563   0.00000  Uiso   1.00
H213   H     0.12686   0.20260   0.82898   0.00000  Uiso   1.00
H214   H     0.28600   0.21832   0.40434   0.00000  Uiso   1.00
H215   H     0.08427   0.96563   0.45355   0.00000  Uiso   1.00
H216   H     0.08285   0.74038   0.44841   0.00000  Uiso   1.00
H217   H     0.04172   0.07422   0.54960   0.00000  Uiso   1.00
H218   H     0.11719   0.08167   0.34823   0.00000  Uiso   1.00
H219   H     0.09867   0.49171   0.46550   0.00000  Uiso   1.00
H220   H     0.01196   0.19566   0.67885   0.00000  Uiso   1.00
H221   H     0.17110   0.21137   0.25421   0.00000  Uiso   1.00
O222   O     0.15760   0.34715   0.54037   0.00000  Uiso   1.00
O223   O     0.04384   0.27072   0.82027   0.00000  Uiso   1.00
O224   O     0.25263   0.29133   0.26316   0.00000  Uiso   1.00
N225   N     0.18673   0.52794   0.58099   0.00000  Uiso   1.00
N226   N     0.10566   0.18606   0.78047   0.00000  Uiso   1.00
N227   N     0.25444   0.20079   0.38347   0.00000  Uiso   1.00
N228   N     0.12490   0.52420   0.50020   0.00000  Uiso   1.00
N229   N     0.04383   0.18232   0.69968   0.00000  Uiso   1.00
N230   N     0.19261   0.19705   0.30269   0.00000  Uiso   1.00
C231   C     0.68773   0.47188   0.58873   0.00000  Uiso   1.00
C232   C     0.67235   0.34862   0.56684   0.00000  Uiso   1.00
C233   C     0.69385   0.24706   0.59345   0.00000  Uiso   1.00
C234   C     0.67444   0.14290   0.56660   0.00000  Uiso   1.00
C235   C     0.65655   0.95186   0.54050   0.00000  Uiso   1.00
C236   C     0.65000   0.52998   0.62183   0.00000  Uiso   1.00
C237   C     0.65272   0.58093   0.69466   0.00000  Uiso   1.00
C238   C     0.61450   0.62946   0.71409   0.00000  Uiso   1.00
C239   C     0.56193   0.72009   0.77333   0.00000  Uiso   1.00
C240   C     0.69100   0.53402   0.51241   0.00000  Uiso   1.00
C241   C     0.72820   0.58840   0.49325   0.00000  Uiso   1.00
C242   C     0.72450   0.64035   0.42057   0.00000  Uiso   1.00
C243   C     0.73560   0.73724   0.30993   0.00000  Uiso   1.00
C244   C     0.61502   0.46749   0.49372   0.00000  Uiso   1.00
C245   C     0.63285   0.34623   0.51524   0.00000  Uiso   1.00
C246   C     0.61341   0.24220   0.48834   0.00000  Uiso   1.00
C247   C     0.63488   0.14050   0.51490   0.00000  Uiso   1.00
C248   C     0.61051   0.52760   0.57023   0.00000  Uiso   1.00
C249   C     0.57228   0.57607   0.58955   0.00000  Uiso   1.00
C250   C     0.57494   0.62707   0.66240   0.00000  Uiso   1.00
C251   C     0.65151   0.53164   0.46081   0.00000  Uiso   1.00
C252   C     0.64776   0.58353   0.38814   0.00000  Uiso   1.00
C253   C     0.68494   0.63796   0.36888   0.00000  Uiso   1.00
H254   H     0.71847   0.47374   0.62890   0.00000  Uiso   1.00
H255   H     0.72441   0.24894   0.63339   0.00000  Uiso   1.00
H256   H     0.68328   0.58278   0.73458   0.00000  Uiso   1.00
H257   H     0.75875   0.59023   0.53320   0.00000  Uiso   1.00
H258   H     0.71357   0.99866   0.61563   0.00000  Uiso   1.00
H259   H     0.62686   0.70260   0.82898   0.00000  Uiso   1.00
H260   H     0.78600   0.71832   0.40434   0.00000  Uiso   1.00
H261   H     0.58427   0.46563   0.45355   0.00000  Uiso   1.00
H262   H     0.58285   0.24038   0.44841   0.00000  Uiso   1.00
H263   H     0.54172   0.57422   0.54960   0.00000  Uiso   1.00
H264   H     0.61719   0.58167   0.34823   0.00000  Uiso   1.00
H265   H     0.59867   0.99171   0.46550   0.00000  Uiso   1.00
H266   H     0.51196   0.69566   0.67885   0.00000  Uiso   1.00
H267   H     0.67110   0.71137   0.25421   0.00000  Uiso   1.00
O268   O     0.65760   0.84715   0.54037   0.00000  Uiso   1.00
O269   O     0.54384   0.77072   0.82027   0.00000  Uiso   1.00
O270   O     0.75263   0.79133   0.26316   0.00000  Uiso   1.00
N271   N     0.68673   0.02794   0.58099   0.00000  Uiso   1.00
N272   N     0.60566   0.68606   0.78047   0.00000  Uiso   1.00
N273   N     0.75444   0.70079   0.38347   0.00000  Uiso   1.00
N274   N     0.62490   0.02420   0.50020   0.00000  Uiso   1.00
N275   N     0.54383   0.68232   0.69968   0.00000  Uiso   1.00
N276   N     0.69261   0.69705   0.30269   0.00000  Uiso   1.00
C277   C     0.81227   0.97188   0.91127   0.00000  Uiso   1.00
C278   C     0.82765   0.84862   0.93316   0.00000  Uiso   1.00
C279   C     0.80615   0.74706   0.90655   0.00000  Uiso   1.00
C280   C     0.82556   0.64290   0.93340   0.00000  Uiso   1.00
C281   C     0.84345   0.45186   0.95950   0.00000  Uiso   1.00
C282   C     0.85000   0.02998   0.87817   0.00000  Uiso   1.00
C283   C     0.84728   0.08093   0.80534   0.00000  Uiso   1.00
C284   C     0.88550   0.12946   0.78591   0.00000  Uiso   1.00
C285   C     0.93807   0.22009   0.72667   0.00000  Uiso   1.00
C286   C     0.80900   0.03402   0.98759   0.00000  Uiso   1.00
C287   C     0.77180   0.08840   0.00675   0.00000  Uiso   1.00
C288   C     0.77550   0.14035   0.07943   0.00000  Uiso   1.00
C289   C     0.76440   0.23724   0.19007   0.00000  Uiso   1.00
C290   C     0.88498   0.96749   0.00628   0.00000  Uiso   1.00
C291   C     0.86715   0.84623   0.98476   0.00000  Uiso   1.00
C292   C     0.88659   0.74220   0.01166   0.00000  Uiso   1.00
C293   C     0.86512   0.64050   0.98510   0.00000  Uiso   1.00
C294   C     0.88949   0.02760   0.92977   0.00000  Uiso   1.00
C295   C     0.92772   0.07607   0.91045   0.00000  Uiso   1.00
C296   C     0.92506   0.12707   0.83760   0.00000  Uiso   1.00
C297   C     0.84849   0.03164   0.03919   0.00000  Uiso   1.00
C298   C     0.85224   0.08353   0.11186   0.00000  Uiso   1.00
C299   C     0.81506   0.13796   0.13112   0.00000  Uiso   1.00
H300   H     0.78153   0.97374   0.87110   0.00000  Uiso   1.00
H301   H     0.77559   0.74894   0.86661   0.00000  Uiso   1.00
H302   H     0.81672   0.08278   0.76542   0.00000  Uiso   1.00
H303   H     0.74125   0.09023   0.96680   0.00000  Uiso   1.00
H304   H     0.78643   0.49866   0.88437   0.00000  Uiso   1.00
H305   H     0.87314   0.20260   0.67102   0.00000  Uiso   1.00
H306   H     0.71400   0.21832   0.09566   0.00000  Uiso   1.00
H307   H     0.91573   0.96563   0.04645   0.00000  Uiso   1.00
H308   H     0.91715   0.74038   0.05159   0.00000  Uiso   1.00
H309   H     0.95828   0.07422   0.95040   0.00000  Uiso   1.00
H310   H     0.88281   0.08167   0.15177   0.00000  Uiso   1.00
H311   H     0.90133   0.49171   0.03450   0.00000  Uiso   1.00
H312   H     0.98804   0.19566   0.82115   0.00000  Uiso   1.00
H313   H     0.82890   0.21137   0.24579   0.00000  Uiso   1.00
O314   O     0.84240   0.34715   0.95963   0.00000  Uiso   1.00
O315   O     0.95616   0.27072   0.67973   0.00000  Uiso   1.00
O316   O     0.74737   0.29133   0.23684   0.00000  Uiso   1.00
N317   N     0.81327   0.52794   0.91901   0.00000  Uiso   1.00
N318   N     0.89434   0.18606   0.71953   0.00000  Uiso   1.00
N319   N     0.74556   0.20079   0.11653   0.00000  Uiso   1.00
N320   N     0.87510   0.52420   0.99980   0.00000  Uiso   1.00
N321   N     0.95617   0.18232   0.80032   0.00000  Uiso   1.00
N322   N     0.80739   0.19705   0.19731   0.00000  Uiso   1.00
C323   C     0.31227   0.47188   0.91127   0.00000  Uiso   1.00
C324   C     0.32765   0.34862   0.93316   0.00000  Uiso   1.00
C325   C     0.30615   0.24706   0.90655   0.00000  Uiso   1.00
C326   C     0.32556   0.14290   0.93340   0.00000  Uiso   1.00
C327   C     0.34345   0.95186   0.95950   0.00000  Uiso   1.00
C328   C     0.35000   0.52998   0.87817   0.00000  Uiso   1.00
C329   C     0.34728   0.58093   0.80534   0.00000  Uiso   1.00
C330   C     0.38550   0.62946   0.78591   0.00000  Uiso   1.00
C331   C     0.43807   0.72009   0.72667   0.00000  Uiso   1.00
C332   C     0.30900   0.53402   0.98759   0.00000  Uiso   1.00
C333   C     0.27180   0.58840   0.00675   0.00000  Uiso   1.00
C334   C     0.27550   0.64035   0.07943   0.00000  Uiso   1.00
C335   C     0.26440   0.73724   0.19007   0.00000  Uiso   1.00
C336   C     0.38498   0.46749   0.00628   0.00000  Uiso   1.00
C337   C     0.36715   0.34623   0.98476   0.00000  Uiso   1.00
C338   C     0.38659   0.24220   0.01166   0.00000  Uiso   1.00
C339   C     0.36512   0.14050   0.98510   0.00000  Uiso   1.00
C340   C     0.38949   0.52760   0.92977   0.00000  Uiso   1.00
C341   C     0.42772   0.57607   0.91045   0.00000  Uiso   1.00
C342   C     0.42506   0.62707   0.83760   0.00000  Uiso   1.00
C343   C     0.34849   0.53164   0.03919   0.00000  Uiso   1.00
C344   C     0.35224   0.58353   0.11186   0.00000  Uiso   1.00
C345   C     0.31506   0.63796   0.13112   0.00000  Uiso   1.00
H346   H     0.28153   0.47374   0.87110   0.00000  Uiso   1.00
H347   H     0.27559   0.24894   0.86661   0.00000  Uiso   1.00
H348   H     0.31672   0.58278   0.76542   0.00000  Uiso   1.00
H349   H     0.24125   0.59023   0.96680   0.00000  Uiso   1.00
H350   H     0.28643   0.99866   0.88437   0.00000  Uiso   1.00
H351   H     0.37314   0.70260   0.67102   0.00000  Uiso   1.00
H352   H     0.21400   0.71832   0.09566   0.00000  Uiso   1.00
H353   H     0.41573   0.46563   0.04645   0.00000  Uiso   1.00
H354   H     0.41715   0.24038   0.05159   0.00000  Uiso   1.00
H355   H     0.45828   0.57422   0.95040   0.00000  Uiso   1.00
H356   H     0.38281   0.58167   0.15177   0.00000  Uiso   1.00
H357   H     0.40133   0.99171   0.03450   0.00000  Uiso   1.00
H358   H     0.48804   0.69566   0.82115   0.00000  Uiso   1.00
H359   H     0.32890   0.71137   0.24579   0.00000  Uiso   1.00
O360   O     0.34240   0.84715   0.95963   0.00000  Uiso   1.00
O361   O     0.45616   0.77072   0.67973   0.00000  Uiso   1.00
O362   O     0.24737   0.79133   0.23684   0.00000  Uiso   1.00
N363   N     0.31327   0.02794   0.91901   0.00000  Uiso   1.00
N364   N     0.39434   0.68606   0.71953   0.00000  Uiso   1.00
N365   N     0.24556   0.70079   0.11653   0.00000  Uiso   1.00
N366   N     0.37510   0.02420   0.99980   0.00000  Uiso   1.00
N367   N     0.45617   0.68232   0.80032   0.00000  Uiso   1.00
N368   N     0.30739   0.69705   0.19731   0.00000  Uiso   1.00
