data_job_02792
_audit_creation_date              2018-12-19
_audit_creation_method            'Materials Studio'
_symmetry_space_group_name_H-M    'P1'
_symmetry_Int_Tables_number       1
_symmetry_cell_setting            triclinic
loop_
_symmetry_equiv_pos_as_xyz
  x,y,z
_cell_length_a                    32.6861
_cell_length_b                    32.6861
_cell_length_c                    10.5646
_cell_angle_alpha                 90.0000
_cell_angle_beta                  90.0000
_cell_angle_gamma                 90.0000
loop_
_atom_site_label
_atom_site_type_symbol
_atom_site_fract_x
_atom_site_fract_y
_atom_site_fract_z
_atom_site_U_iso_or_equiv
_atom_site_adp_type
_atom_site_occupancy
C1     C     0.86227   0.26926   0.71778   0.00000  Uiso   1.00
C2     C     0.84036   0.23059   0.67388   0.00000  Uiso   1.00
C3     C     0.81869   0.20383   0.75075   0.00000  Uiso   1.00
C4     C     0.80086   0.17020   0.69246   0.00000  Uiso   1.00
C5     C     0.76629   0.11115   0.64415   0.00000  Uiso   1.00
C6     C     0.90664   0.26468   0.67548   0.00000  Uiso   1.00
C7     C     0.94070   0.26659   0.75370   0.00000  Uiso   1.00
C8     C     0.97866   0.26166   0.69676   0.00000  Uiso   1.00
C9     C     0.04700   0.25557   0.65092   0.00000  Uiso   1.00
C10    C     0.84451   0.30417   0.63938   0.00000  Uiso   1.00
C11    C     0.82635   0.33929   0.68723   0.00000  Uiso   1.00
C12    C     0.81201   0.36761   0.59989   0.00000  Uiso   1.00
C13    C     0.78389   0.42284   0.49799   0.00000  Uiso   1.00
C14    C     0.86913   0.25711   0.47758   0.00000  Uiso   1.00
C15    C     0.84409   0.22399   0.54341   0.00000  Uiso   1.00
C16    C     0.82628   0.19039   0.48499   0.00000  Uiso   1.00
C17    C     0.80459   0.16358   0.56176   0.00000  Uiso   1.00
C18    C     0.91037   0.25808   0.54502   0.00000  Uiso   1.00
C19    C     0.94829   0.25315   0.48795   0.00000  Uiso   1.00
C20    C     0.98240   0.25505   0.56605   0.00000  Uiso   1.00
C21    C     0.84824   0.29757   0.50891   0.00000  Uiso   1.00
C22    C     0.83394   0.32585   0.42148   0.00000  Uiso   1.00
C23    C     0.81575   0.36100   0.46919   0.00000  Uiso   1.00
H24    H     0.85937   0.27440   0.81936   0.00000  Uiso   1.00
H25    H     0.81582   0.20895   0.85171   0.00000  Uiso   1.00
H26    H     0.93781   0.27171   0.85466   0.00000  Uiso   1.00
H27    H     0.82347   0.34439   0.78820   0.00000  Uiso   1.00
H28    H     0.76919   0.13347   0.83005   0.00000  Uiso   1.00
H29    H     0.02641   0.26581   0.83626   0.00000  Uiso   1.00
H30    H     0.78531   0.41908   0.69612   0.00000  Uiso   1.00
H31    H     0.87203   0.25197   0.37600   0.00000  Uiso   1.00
H32    H     0.82917   0.18529   0.38403   0.00000  Uiso   1.00
H33    H     0.95116   0.24804   0.38698   0.00000  Uiso   1.00
H34    H     0.83682   0.32073   0.32052   0.00000  Uiso   1.00
H35    H     0.78003   0.11426   0.45047   0.00000  Uiso   1.00
H36    H     0.03725   0.24660   0.45668   0.00000  Uiso   1.00
H37    H     0.79615   0.39987   0.31654   0.00000  Uiso   1.00
O38    O     0.74620   0.08040   0.65355   0.00000  Uiso   1.00
O39    O     0.08366   0.25403   0.66169   0.00000  Uiso   1.00
O40    O     0.76734   0.45512   0.47783   0.00000  Uiso   1.00
N41    N     0.77762   0.13810   0.73961   0.00000  Uiso   1.00
N42    N     0.01810   0.26183   0.74542   0.00000  Uiso   1.00
N43    N     0.79270   0.40513   0.61440   0.00000  Uiso   1.00
N44    N     0.78345   0.12777   0.53536   0.00000  Uiso   1.00
N45    N     0.02393   0.25149   0.54117   0.00000  Uiso   1.00
N46    N     0.79853   0.39480   0.41015   0.00000  Uiso   1.00
C47    C     0.13773   0.73074   0.71778   0.00000  Uiso   1.00
C48    C     0.15964   0.76941   0.67388   0.00000  Uiso   1.00
C49    C     0.18131   0.79617   0.75075   0.00000  Uiso   1.00
C50    C     0.19914   0.82980   0.69246   0.00000  Uiso   1.00
C51    C     0.23371   0.88885   0.64415   0.00000  Uiso   1.00
C52    C     0.09336   0.73532   0.67548   0.00000  Uiso   1.00
C53    C     0.05930   0.73341   0.75370   0.00000  Uiso   1.00
C54    C     0.02134   0.73834   0.69676   0.00000  Uiso   1.00
C55    C     0.95300   0.74443   0.65092   0.00000  Uiso   1.00
C56    C     0.15549   0.69583   0.63938   0.00000  Uiso   1.00
C57    C     0.17365   0.66071   0.68723   0.00000  Uiso   1.00
C58    C     0.18799   0.63239   0.59989   0.00000  Uiso   1.00
C59    C     0.21611   0.57716   0.49799   0.00000  Uiso   1.00
C60    C     0.13087   0.74289   0.47758   0.00000  Uiso   1.00
C61    C     0.15591   0.77601   0.54341   0.00000  Uiso   1.00
C62    C     0.17372   0.80961   0.48499   0.00000  Uiso   1.00
C63    C     0.19541   0.83642   0.56176   0.00000  Uiso   1.00
C64    C     0.08963   0.74192   0.54502   0.00000  Uiso   1.00
C65    C     0.05171   0.74685   0.48795   0.00000  Uiso   1.00
C66    C     0.01760   0.74495   0.56605   0.00000  Uiso   1.00
C67    C     0.15176   0.70243   0.50891   0.00000  Uiso   1.00
C68    C     0.16606   0.67415   0.42148   0.00000  Uiso   1.00
C69    C     0.18425   0.63900   0.46919   0.00000  Uiso   1.00
H70    H     0.14063   0.72560   0.81936   0.00000  Uiso   1.00
H71    H     0.18418   0.79105   0.85171   0.00000  Uiso   1.00
H72    H     0.06219   0.72829   0.85466   0.00000  Uiso   1.00
H73    H     0.17653   0.65561   0.78820   0.00000  Uiso   1.00
H74    H     0.23081   0.86653   0.83005   0.00000  Uiso   1.00
H75    H     0.97359   0.73419   0.83626   0.00000  Uiso   1.00
H76    H     0.21469   0.58092   0.69612   0.00000  Uiso   1.00
H77    H     0.12797   0.74803   0.37600   0.00000  Uiso   1.00
H78    H     0.17083   0.81471   0.38403   0.00000  Uiso   1.00
H79    H     0.04884   0.75196   0.38698   0.00000  Uiso   1.00
H80    H     0.16318   0.67927   0.32052   0.00000  Uiso   1.00
H81    H     0.21997   0.88574   0.45047   0.00000  Uiso   1.00
H82    H     0.96275   0.75340   0.45668   0.00000  Uiso   1.00
H83    H     0.20385   0.60013   0.31654   0.00000  Uiso   1.00
O84    O     0.25380   0.91960   0.65355   0.00000  Uiso   1.00
O85    O     0.91634   0.74597   0.66169   0.00000  Uiso   1.00
O86    O     0.23266   0.54488   0.47783   0.00000  Uiso   1.00
N87    N     0.22238   0.86190   0.73961   0.00000  Uiso   1.00
N88    N     0.98190   0.73817   0.74542   0.00000  Uiso   1.00
N89    N     0.20730   0.59487   0.61440   0.00000  Uiso   1.00
N90    N     0.21655   0.87223   0.53536   0.00000  Uiso   1.00
N91    N     0.97607   0.74851   0.54117   0.00000  Uiso   1.00
N92    N     0.20147   0.60520   0.41015   0.00000  Uiso   1.00
C93    C     0.23074   0.36227   0.21778   0.00000  Uiso   1.00
C94    C     0.26941   0.34036   0.17388   0.00000  Uiso   1.00
C95    C     0.29617   0.31869   0.25075   0.00000  Uiso   1.00
C96    C     0.32980   0.30086   0.19246   0.00000  Uiso   1.00
C97    C     0.38885   0.26629   0.14415   0.00000  Uiso   1.00
C98    C     0.23532   0.40664   0.17548   0.00000  Uiso   1.00
C99    C     0.23341   0.44070   0.25370   0.00000  Uiso   1.00
C100   C     0.23834   0.47866   0.19676   0.00000  Uiso   1.00
C101   C     0.24443   0.54700   0.15092   0.00000  Uiso   1.00
C102   C     0.19583   0.34451   0.13938   0.00000  Uiso   1.00
C103   C     0.16071   0.32635   0.18723   0.00000  Uiso   1.00
C104   C     0.13239   0.31201   0.09989   0.00000  Uiso   1.00
C105   C     0.07716   0.28389   0.99799   0.00000  Uiso   1.00
C106   C     0.24289   0.36913   0.97758   0.00000  Uiso   1.00
C107   C     0.27601   0.34409   0.04341   0.00000  Uiso   1.00
C108   C     0.30961   0.32628   0.98499   0.00000  Uiso   1.00
C109   C     0.33642   0.30459   0.06176   0.00000  Uiso   1.00
C110   C     0.24192   0.41037   0.04502   0.00000  Uiso   1.00
C111   C     0.24685   0.44829   0.98795   0.00000  Uiso   1.00
C112   C     0.24495   0.48240   0.06605   0.00000  Uiso   1.00
C113   C     0.20243   0.34824   0.00891   0.00000  Uiso   1.00
C114   C     0.17415   0.33394   0.92148   0.00000  Uiso   1.00
C115   C     0.13900   0.31575   0.96919   0.00000  Uiso   1.00
H116   H     0.22560   0.35937   0.31936   0.00000  Uiso   1.00
H117   H     0.29105   0.31582   0.35171   0.00000  Uiso   1.00
H118   H     0.22829   0.43781   0.35466   0.00000  Uiso   1.00
H119   H     0.15561   0.32347   0.28820   0.00000  Uiso   1.00
H120   H     0.36653   0.26919   0.33005   0.00000  Uiso   1.00
H121   H     0.23419   0.52641   0.33626   0.00000  Uiso   1.00
H122   H     0.08092   0.28531   0.19612   0.00000  Uiso   1.00
H123   H     0.24803   0.37203   0.87600   0.00000  Uiso   1.00
H124   H     0.31471   0.32917   0.88403   0.00000  Uiso   1.00
H125   H     0.25196   0.45116   0.88698   0.00000  Uiso   1.00
H126   H     0.17927   0.33682   0.82052   0.00000  Uiso   1.00
H127   H     0.38574   0.28003   0.95047   0.00000  Uiso   1.00
H128   H     0.25340   0.53725   0.95668   0.00000  Uiso   1.00
H129   H     0.10013   0.29615   0.81654   0.00000  Uiso   1.00
O130   O     0.41960   0.24620   0.15355   0.00000  Uiso   1.00
O131   O     0.24597   0.58366   0.16169   0.00000  Uiso   1.00
O132   O     0.04488   0.26734   0.97783   0.00000  Uiso   1.00
N133   N     0.36190   0.27762   0.23961   0.00000  Uiso   1.00
N134   N     0.23817   0.51810   0.24542   0.00000  Uiso   1.00
N135   N     0.09487   0.29270   0.11440   0.00000  Uiso   1.00
N136   N     0.37223   0.28345   0.03536   0.00000  Uiso   1.00
N137   N     0.24851   0.52393   0.04117   0.00000  Uiso   1.00
N138   N     0.10520   0.29853   0.91015   0.00000  Uiso   1.00
C139   C     0.76926   0.63773   0.21778   0.00000  Uiso   1.00
C140   C     0.73059   0.65964   0.17388   0.00000  Uiso   1.00
C141   C     0.70383   0.68131   0.25075   0.00000  Uiso   1.00
C142   C     0.67020   0.69914   0.19246   0.00000  Uiso   1.00
C143   C     0.61115   0.73371   0.14415   0.00000  Uiso   1.00
C144   C     0.76468   0.59336   0.17548   0.00000  Uiso   1.00
C145   C     0.76659   0.55930   0.25370   0.00000  Uiso   1.00
C146   C     0.76166   0.52134   0.19676   0.00000  Uiso   1.00
C147   C     0.75557   0.45300   0.15092   0.00000  Uiso   1.00
C148   C     0.80417   0.65549   0.13938   0.00000  Uiso   1.00
C149   C     0.83929   0.67365   0.18723   0.00000  Uiso   1.00
C150   C     0.86761   0.68799   0.09989   0.00000  Uiso   1.00
C151   C     0.92284   0.71611   0.99799   0.00000  Uiso   1.00
C152   C     0.75711   0.63087   0.97758   0.00000  Uiso   1.00
C153   C     0.72399   0.65591   0.04341   0.00000  Uiso   1.00
C154   C     0.69039   0.67372   0.98499   0.00000  Uiso   1.00
C155   C     0.66358   0.69541   0.06176   0.00000  Uiso   1.00
C156   C     0.75808   0.58963   0.04502   0.00000  Uiso   1.00
C157   C     0.75315   0.55171   0.98795   0.00000  Uiso   1.00
C158   C     0.75505   0.51760   0.06605   0.00000  Uiso   1.00
C159   C     0.79757   0.65176   0.00891   0.00000  Uiso   1.00
C160   C     0.82585   0.66606   0.92148   0.00000  Uiso   1.00
C161   C     0.86100   0.68425   0.96919   0.00000  Uiso   1.00
H162   H     0.77440   0.64063   0.31936   0.00000  Uiso   1.00
H163   H     0.70895   0.68418   0.35171   0.00000  Uiso   1.00
H164   H     0.77171   0.56219   0.35466   0.00000  Uiso   1.00
H165   H     0.84439   0.67653   0.28820   0.00000  Uiso   1.00
H166   H     0.63347   0.73081   0.33005   0.00000  Uiso   1.00
H167   H     0.76581   0.47359   0.33626   0.00000  Uiso   1.00
H168   H     0.91908   0.71469   0.19612   0.00000  Uiso   1.00
H169   H     0.75197   0.62797   0.87600   0.00000  Uiso   1.00
H170   H     0.68529   0.67083   0.88403   0.00000  Uiso   1.00
H171   H     0.74804   0.54884   0.88698   0.00000  Uiso   1.00
H172   H     0.82073   0.66318   0.82052   0.00000  Uiso   1.00
H173   H     0.61426   0.71997   0.95047   0.00000  Uiso   1.00
H174   H     0.74660   0.46275   0.95668   0.00000  Uiso   1.00
H175   H     0.89987   0.70385   0.81654   0.00000  Uiso   1.00
O176   O     0.58040   0.75380   0.15355   0.00000  Uiso   1.00
O177   O     0.75403   0.41634   0.16169   0.00000  Uiso   1.00
O178   O     0.95512   0.73266   0.97783   0.00000  Uiso   1.00
N179   N     0.63810   0.72238   0.23961   0.00000  Uiso   1.00
N180   N     0.76183   0.48190   0.24542   0.00000  Uiso   1.00
N181   N     0.90513   0.70730   0.11440   0.00000  Uiso   1.00
N182   N     0.62777   0.71655   0.03536   0.00000  Uiso   1.00
N183   N     0.75149   0.47607   0.04117   0.00000  Uiso   1.00
N184   N     0.89480   0.70147   0.91015   0.00000  Uiso   1.00
C185   C     0.63773   0.23074   0.78222   0.00000  Uiso   1.00
C186   C     0.65964   0.26941   0.82612   0.00000  Uiso   1.00
C187   C     0.68131   0.29617   0.74925   0.00000  Uiso   1.00
C188   C     0.69914   0.32980   0.80754   0.00000  Uiso   1.00
C189   C     0.73371   0.38885   0.85585   0.00000  Uiso   1.00
C190   C     0.59336   0.23532   0.82452   0.00000  Uiso   1.00
C191   C     0.55930   0.23341   0.74630   0.00000  Uiso   1.00
C192   C     0.52134   0.23834   0.80324   0.00000  Uiso   1.00
C193   C     0.45300   0.24443   0.84908   0.00000  Uiso   1.00
C194   C     0.65549   0.19583   0.86062   0.00000  Uiso   1.00
C195   C     0.67365   0.16071   0.81277   0.00000  Uiso   1.00
C196   C     0.68799   0.13239   0.90011   0.00000  Uiso   1.00
C197   C     0.71611   0.07716   0.00201   0.00000  Uiso   1.00
C198   C     0.63087   0.24289   0.02242   0.00000  Uiso   1.00
C199   C     0.65591   0.27601   0.95659   0.00000  Uiso   1.00
C200   C     0.67372   0.30961   0.01501   0.00000  Uiso   1.00
C201   C     0.69541   0.33642   0.93824   0.00000  Uiso   1.00
C202   C     0.58963   0.24192   0.95498   0.00000  Uiso   1.00
C203   C     0.55171   0.24685   0.01205   0.00000  Uiso   1.00
C204   C     0.51760   0.24495   0.93395   0.00000  Uiso   1.00
C205   C     0.65176   0.20243   0.99109   0.00000  Uiso   1.00
C206   C     0.66606   0.17415   0.07852   0.00000  Uiso   1.00
C207   C     0.68425   0.13900   0.03081   0.00000  Uiso   1.00
H208   H     0.64063   0.22560   0.68064   0.00000  Uiso   1.00
H209   H     0.68418   0.29105   0.64829   0.00000  Uiso   1.00
H210   H     0.56219   0.22829   0.64534   0.00000  Uiso   1.00
H211   H     0.67653   0.15561   0.71180   0.00000  Uiso   1.00
H212   H     0.73081   0.36653   0.66995   0.00000  Uiso   1.00
H213   H     0.47359   0.23419   0.66374   0.00000  Uiso   1.00
H214   H     0.71469   0.08092   0.80388   0.00000  Uiso   1.00
H215   H     0.62797   0.24803   0.12400   0.00000  Uiso   1.00
H216   H     0.67083   0.31471   0.11597   0.00000  Uiso   1.00
H217   H     0.54884   0.25196   0.11302   0.00000  Uiso   1.00
H218   H     0.66318   0.17927   0.17948   0.00000  Uiso   1.00
H219   H     0.71997   0.38574   0.04953   0.00000  Uiso   1.00
H220   H     0.46275   0.25340   0.04332   0.00000  Uiso   1.00
H221   H     0.70385   0.10013   0.18346   0.00000  Uiso   1.00
O222   O     0.75380   0.41960   0.84645   0.00000  Uiso   1.00
O223   O     0.41634   0.24597   0.83831   0.00000  Uiso   1.00
O224   O     0.73266   0.04488   0.02217   0.00000  Uiso   1.00
N225   N     0.72238   0.36190   0.76039   0.00000  Uiso   1.00
N226   N     0.48190   0.23817   0.75458   0.00000  Uiso   1.00
N227   N     0.70730   0.09487   0.88560   0.00000  Uiso   1.00
N228   N     0.71655   0.37223   0.96464   0.00000  Uiso   1.00
N229   N     0.47607   0.24851   0.95883   0.00000  Uiso   1.00
N230   N     0.70147   0.10520   0.08985   0.00000  Uiso   1.00
C231   C     0.36227   0.76926   0.78222   0.00000  Uiso   1.00
C232   C     0.34036   0.73059   0.82612   0.00000  Uiso   1.00
C233   C     0.31869   0.70383   0.74925   0.00000  Uiso   1.00
C234   C     0.30086   0.67020   0.80754   0.00000  Uiso   1.00
C235   C     0.26629   0.61115   0.85585   0.00000  Uiso   1.00
C236   C     0.40664   0.76468   0.82452   0.00000  Uiso   1.00
C237   C     0.44070   0.76659   0.74630   0.00000  Uiso   1.00
C238   C     0.47866   0.76166   0.80324   0.00000  Uiso   1.00
C239   C     0.54700   0.75557   0.84908   0.00000  Uiso   1.00
C240   C     0.34451   0.80417   0.86062   0.00000  Uiso   1.00
C241   C     0.32635   0.83929   0.81277   0.00000  Uiso   1.00
C242   C     0.31201   0.86761   0.90011   0.00000  Uiso   1.00
C243   C     0.28389   0.92284   0.00201   0.00000  Uiso   1.00
C244   C     0.36913   0.75711   0.02242   0.00000  Uiso   1.00
C245   C     0.34409   0.72399   0.95659   0.00000  Uiso   1.00
C246   C     0.32628   0.69039   0.01501   0.00000  Uiso   1.00
C247   C     0.30459   0.66358   0.93824   0.00000  Uiso   1.00
C248   C     0.41037   0.75808   0.95498   0.00000  Uiso   1.00
C249   C     0.44829   0.75315   0.01205   0.00000  Uiso   1.00
C250   C     0.48240   0.75505   0.93395   0.00000  Uiso   1.00
C251   C     0.34824   0.79757   0.99109   0.00000  Uiso   1.00
C252   C     0.33394   0.82585   0.07852   0.00000  Uiso   1.00
C253   C     0.31575   0.86100   0.03081   0.00000  Uiso   1.00
H254   H     0.35937   0.77440   0.68064   0.00000  Uiso   1.00
H255   H     0.31582   0.70895   0.64829   0.00000  Uiso   1.00
H256   H     0.43781   0.77171   0.64534   0.00000  Uiso   1.00
H257   H     0.32347   0.84439   0.71180   0.00000  Uiso   1.00
H258   H     0.26919   0.63347   0.66995   0.00000  Uiso   1.00
H259   H     0.52641   0.76581   0.66374   0.00000  Uiso   1.00
H260   H     0.28531   0.91908   0.80388   0.00000  Uiso   1.00
H261   H     0.37203   0.75197   0.12400   0.00000  Uiso   1.00
H262   H     0.32917   0.68529   0.11597   0.00000  Uiso   1.00
H263   H     0.45116   0.74804   0.11302   0.00000  Uiso   1.00
H264   H     0.33682   0.82073   0.17948   0.00000  Uiso   1.00
H265   H     0.28003   0.61426   0.04953   0.00000  Uiso   1.00
H266   H     0.53725   0.74660   0.04332   0.00000  Uiso   1.00
H267   H     0.29615   0.89987   0.18346   0.00000  Uiso   1.00
O268   O     0.24620   0.58040   0.84645   0.00000  Uiso   1.00
O269   O     0.58366   0.75403   0.83831   0.00000  Uiso   1.00
O270   O     0.26734   0.95512   0.02217   0.00000  Uiso   1.00
N271   N     0.27762   0.63810   0.76039   0.00000  Uiso   1.00
N272   N     0.51810   0.76183   0.75458   0.00000  Uiso   1.00
N273   N     0.29270   0.90513   0.88560   0.00000  Uiso   1.00
N274   N     0.28345   0.62777   0.96464   0.00000  Uiso   1.00
N275   N     0.52393   0.75149   0.95883   0.00000  Uiso   1.00
N276   N     0.29853   0.89480   0.08985   0.00000  Uiso   1.00
C277   C     0.26926   0.13773   0.28222   0.00000  Uiso   1.00
C278   C     0.23059   0.15964   0.32612   0.00000  Uiso   1.00
C279   C     0.20383   0.18131   0.24925   0.00000  Uiso   1.00
C280   C     0.17020   0.19914   0.30754   0.00000  Uiso   1.00
C281   C     0.11115   0.23371   0.35585   0.00000  Uiso   1.00
C282   C     0.26468   0.09336   0.32452   0.00000  Uiso   1.00
C283   C     0.26659   0.05930   0.24630   0.00000  Uiso   1.00
C284   C     0.26166   0.02134   0.30324   0.00000  Uiso   1.00
C285   C     0.25557   0.95300   0.34908   0.00000  Uiso   1.00
C286   C     0.30417   0.15549   0.36062   0.00000  Uiso   1.00
C287   C     0.33929   0.17365   0.31277   0.00000  Uiso   1.00
C288   C     0.36761   0.18799   0.40011   0.00000  Uiso   1.00
C289   C     0.42284   0.21611   0.50201   0.00000  Uiso   1.00
C290   C     0.25711   0.13087   0.52242   0.00000  Uiso   1.00
C291   C     0.22399   0.15591   0.45659   0.00000  Uiso   1.00
C292   C     0.19039   0.17372   0.51501   0.00000  Uiso   1.00
C293   C     0.16358   0.19541   0.43824   0.00000  Uiso   1.00
C294   C     0.25808   0.08963   0.45498   0.00000  Uiso   1.00
C295   C     0.25315   0.05171   0.51205   0.00000  Uiso   1.00
C296   C     0.25505   0.01760   0.43395   0.00000  Uiso   1.00
C297   C     0.29757   0.15176   0.49109   0.00000  Uiso   1.00
C298   C     0.32585   0.16606   0.57852   0.00000  Uiso   1.00
C299   C     0.36100   0.18425   0.53081   0.00000  Uiso   1.00
H300   H     0.27440   0.14063   0.18064   0.00000  Uiso   1.00
H301   H     0.20895   0.18418   0.14829   0.00000  Uiso   1.00
H302   H     0.27171   0.06219   0.14534   0.00000  Uiso   1.00
H303   H     0.34439   0.17653   0.21180   0.00000  Uiso   1.00
H304   H     0.13347   0.23081   0.16995   0.00000  Uiso   1.00
H305   H     0.26581   0.97359   0.16374   0.00000  Uiso   1.00
H306   H     0.41908   0.21469   0.30388   0.00000  Uiso   1.00
H307   H     0.25197   0.12797   0.62400   0.00000  Uiso   1.00
H308   H     0.18529   0.17083   0.61597   0.00000  Uiso   1.00
H309   H     0.24804   0.04884   0.61302   0.00000  Uiso   1.00
H310   H     0.32073   0.16318   0.67948   0.00000  Uiso   1.00
H311   H     0.11426   0.21997   0.54953   0.00000  Uiso   1.00
H312   H     0.24660   0.96275   0.54332   0.00000  Uiso   1.00
H313   H     0.39987   0.20385   0.68346   0.00000  Uiso   1.00
O314   O     0.08040   0.25380   0.34645   0.00000  Uiso   1.00
O315   O     0.25403   0.91634   0.33831   0.00000  Uiso   1.00
O316   O     0.45512   0.23266   0.52217   0.00000  Uiso   1.00
N317   N     0.13810   0.22238   0.26039   0.00000  Uiso   1.00
N318   N     0.26183   0.98190   0.25458   0.00000  Uiso   1.00
N319   N     0.40513   0.20730   0.38560   0.00000  Uiso   1.00
N320   N     0.12777   0.21655   0.46464   0.00000  Uiso   1.00
N321   N     0.25149   0.97607   0.45883   0.00000  Uiso   1.00
N322   N     0.39480   0.20147   0.58985   0.00000  Uiso   1.00
C323   C     0.73074   0.86227   0.28222   0.00000  Uiso   1.00
C324   C     0.76941   0.84036   0.32612   0.00000  Uiso   1.00
C325   C     0.79617   0.81869   0.24925   0.00000  Uiso   1.00
C326   C     0.82980   0.80086   0.30754   0.00000  Uiso   1.00
C327   C     0.88885   0.76629   0.35585   0.00000  Uiso   1.00
C328   C     0.73532   0.90664   0.32452   0.00000  Uiso   1.00
C329   C     0.73341   0.94070   0.24630   0.00000  Uiso   1.00
C330   C     0.73834   0.97866   0.30324   0.00000  Uiso   1.00
C331   C     0.74443   0.04700   0.34908   0.00000  Uiso   1.00
C332   C     0.69583   0.84451   0.36062   0.00000  Uiso   1.00
C333   C     0.66071   0.82635   0.31277   0.00000  Uiso   1.00
C334   C     0.63239   0.81201   0.40011   0.00000  Uiso   1.00
C335   C     0.57716   0.78389   0.50201   0.00000  Uiso   1.00
C336   C     0.74289   0.86913   0.52242   0.00000  Uiso   1.00
C337   C     0.77601   0.84409   0.45659   0.00000  Uiso   1.00
C338   C     0.80961   0.82628   0.51501   0.00000  Uiso   1.00
C339   C     0.83642   0.80459   0.43824   0.00000  Uiso   1.00
C340   C     0.74192   0.91037   0.45498   0.00000  Uiso   1.00
C341   C     0.74685   0.94829   0.51205   0.00000  Uiso   1.00
C342   C     0.74495   0.98240   0.43395   0.00000  Uiso   1.00
C343   C     0.70243   0.84824   0.49109   0.00000  Uiso   1.00
C344   C     0.67415   0.83394   0.57852   0.00000  Uiso   1.00
C345   C     0.63900   0.81575   0.53081   0.00000  Uiso   1.00
H346   H     0.72560   0.85937   0.18064   0.00000  Uiso   1.00
H347   H     0.79105   0.81582   0.14829   0.00000  Uiso   1.00
H348   H     0.72829   0.93781   0.14534   0.00000  Uiso   1.00
H349   H     0.65561   0.82347   0.21180   0.00000  Uiso   1.00
H350   H     0.86653   0.76919   0.16995   0.00000  Uiso   1.00
H351   H     0.73419   0.02641   0.16374   0.00000  Uiso   1.00
H352   H     0.58092   0.78531   0.30388   0.00000  Uiso   1.00
H353   H     0.74803   0.87203   0.62400   0.00000  Uiso   1.00
H354   H     0.81471   0.82917   0.61597   0.00000  Uiso   1.00
H355   H     0.75196   0.95116   0.61302   0.00000  Uiso   1.00
H356   H     0.67927   0.83682   0.67948   0.00000  Uiso   1.00
H357   H     0.88574   0.78003   0.54953   0.00000  Uiso   1.00
H358   H     0.75340   0.03725   0.54332   0.00000  Uiso   1.00
H359   H     0.60013   0.79615   0.68346   0.00000  Uiso   1.00
O360   O     0.91960   0.74620   0.34645   0.00000  Uiso   1.00
O361   O     0.74597   0.08366   0.33831   0.00000  Uiso   1.00
O362   O     0.54488   0.76734   0.52217   0.00000  Uiso   1.00
N363   N     0.86190   0.77762   0.26039   0.00000  Uiso   1.00
N364   N     0.73817   0.01810   0.25458   0.00000  Uiso   1.00
N365   N     0.59487   0.79270   0.38560   0.00000  Uiso   1.00
N366   N     0.87223   0.78345   0.46464   0.00000  Uiso   1.00
N367   N     0.74851   0.02393   0.45883   0.00000  Uiso   1.00
N368   N     0.60520   0.79853   0.58985   0.00000  Uiso   1.00
