data_job_05433
_audit_creation_date              2018-12-19
_audit_creation_method            'Materials Studio'
_symmetry_space_group_name_H-M    'P1'
_symmetry_Int_Tables_number       1
_symmetry_cell_setting            triclinic
loop_
_symmetry_equiv_pos_as_xyz
  x,y,z
_cell_length_a                    15.2259
_cell_length_b                    22.6314
_cell_length_c                    15.6836
_cell_angle_alpha                 90.0000
_cell_angle_beta                  90.0000
_cell_angle_gamma                 90.0000
loop_
_atom_site_label
_atom_site_type_symbol
_atom_site_fract_x
_atom_site_fract_y
_atom_site_fract_z
_atom_site_U_iso_or_equiv
_atom_site_adp_type
_atom_site_occupancy
C1     C     0.93114   0.20800   0.49039   0.00000  Uiso   1.00
C2     C     0.91271   0.15243   0.43839   0.00000  Uiso   1.00
C3     C     0.92894   0.14543   0.35191   0.00000  Uiso   1.00
C4     C     0.90746   0.09121   0.31614   0.00000  Uiso   1.00
C5     C     0.88435   0.01186   0.22793   0.00000  Uiso   1.00
C6     C     0.84397   0.22528   0.53125   0.00000  Uiso   1.00
C7     C     0.80241   0.27955   0.52285   0.00000  Uiso   1.00
C8     C     0.72307   0.28666   0.56527   0.00000  Uiso   1.00
C9     C     0.59325   0.32044   0.62128   0.00000  Uiso   1.00
C10    C     0.99082   0.18880   0.56340   0.00000  Uiso   1.00
C11    C     0.07272   0.21241   0.58204   0.00000  Uiso   1.00
C12    C     0.11701   0.18881   0.65154   0.00000  Uiso   1.00
C13    C     0.21520   0.16596   0.75745   0.00000  Uiso   1.00
C14    C     0.86414   0.12413   0.58067   0.00000  Uiso   1.00
C15    C     0.87632   0.10688   0.48743   0.00000  Uiso   1.00
C16    C     0.85482   0.05264   0.45179   0.00000  Uiso   1.00
C17    C     0.87101   0.04557   0.36526   0.00000  Uiso   1.00
C18    C     0.80758   0.17973   0.58029   0.00000  Uiso   1.00
C19    C     0.72828   0.18676   0.62273   0.00000  Uiso   1.00
C20    C     0.68661   0.24102   0.61439   0.00000  Uiso   1.00
C21    C     0.95443   0.14325   0.61243   0.00000  Uiso   1.00
C22    C     0.99860   0.11962   0.68192   0.00000  Uiso   1.00
C23    C     0.08055   0.14318   0.70066   0.00000  Uiso   1.00
H24    H     0.95947   0.24346   0.45222   0.00000  Uiso   1.00
H25    H     0.95710   0.18070   0.31398   0.00000  Uiso   1.00
H26    H     0.83059   0.31480   0.48491   0.00000  Uiso   1.00
H27    H     0.10086   0.24766   0.54409   0.00000  Uiso   1.00
H28    H     0.93839   0.09103   0.18234   0.00000  Uiso   1.00
H29    H     0.67165   0.37379   0.54277   0.00000  Uiso   1.00
H30    H     0.24158   0.23223   0.66755   0.00000  Uiso   1.00
H31    H     0.83581   0.08866   0.61885   0.00000  Uiso   1.00
H32    H     0.82666   0.01740   0.48975   0.00000  Uiso   1.00
H33    H     0.70014   0.15150   0.66067   0.00000  Uiso   1.00
H34    H     0.97042   0.08437   0.71985   0.00000  Uiso   1.00
H35    H     0.83252   0.95849   0.32499   0.00000  Uiso   1.00
H36    H     0.56578   0.24126   0.68543   0.00000  Uiso   1.00
H37    H     0.13570   0.09969   0.81021   0.00000  Uiso   1.00
O38    O     0.88163   0.98069   0.16573   0.00000  Uiso   1.00
O39    O     0.53170   0.35166   0.63861   0.00000  Uiso   1.00
O40    O     0.27942   0.16593   0.80232   0.00000  Uiso   1.00
N41    N     0.91475   0.06961   0.23363   0.00000  Uiso   1.00
N42    N     0.66536   0.33397   0.57060   0.00000  Uiso   1.00
N43    N     0.19817   0.20163   0.68728   0.00000  Uiso   1.00
N44    N     0.85778   0.99830   0.31039   0.00000  Uiso   1.00
N45    N     0.60839   0.26266   0.64736   0.00000  Uiso   1.00
N46    N     0.14121   0.13032   0.76404   0.00000  Uiso   1.00
C47    C     0.56886   0.79200   0.49039   0.00000  Uiso   1.00
C48    C     0.58729   0.84757   0.43839   0.00000  Uiso   1.00
C49    C     0.57106   0.85457   0.35191   0.00000  Uiso   1.00
C50    C     0.59254   0.90879   0.31614   0.00000  Uiso   1.00
C51    C     0.61565   0.98814   0.22793   0.00000  Uiso   1.00
C52    C     0.65603   0.77472   0.53125   0.00000  Uiso   1.00
C53    C     0.69759   0.72045   0.52285   0.00000  Uiso   1.00
C54    C     0.77693   0.71334   0.56527   0.00000  Uiso   1.00
C55    C     0.90675   0.67956   0.62128   0.00000  Uiso   1.00
C56    C     0.50918   0.81120   0.56340   0.00000  Uiso   1.00
C57    C     0.42728   0.78759   0.58204   0.00000  Uiso   1.00
C58    C     0.38299   0.81119   0.65154   0.00000  Uiso   1.00
C59    C     0.28480   0.83404   0.75745   0.00000  Uiso   1.00
C60    C     0.63586   0.87587   0.58067   0.00000  Uiso   1.00
C61    C     0.62368   0.89312   0.48743   0.00000  Uiso   1.00
C62    C     0.64518   0.94736   0.45179   0.00000  Uiso   1.00
C63    C     0.62899   0.95443   0.36526   0.00000  Uiso   1.00
C64    C     0.69242   0.82027   0.58029   0.00000  Uiso   1.00
C65    C     0.77172   0.81324   0.62273   0.00000  Uiso   1.00
C66    C     0.81339   0.75898   0.61439   0.00000  Uiso   1.00
C67    C     0.54557   0.85675   0.61243   0.00000  Uiso   1.00
C68    C     0.50140   0.88038   0.68192   0.00000  Uiso   1.00
C69    C     0.41945   0.85682   0.70066   0.00000  Uiso   1.00
H70    H     0.54053   0.75654   0.45222   0.00000  Uiso   1.00
H71    H     0.54290   0.81930   0.31398   0.00000  Uiso   1.00
H72    H     0.66941   0.68520   0.48491   0.00000  Uiso   1.00
H73    H     0.39914   0.75234   0.54409   0.00000  Uiso   1.00
H74    H     0.56161   0.90897   0.18234   0.00000  Uiso   1.00
H75    H     0.82835   0.62621   0.54277   0.00000  Uiso   1.00
H76    H     0.25842   0.76777   0.66755   0.00000  Uiso   1.00
H77    H     0.66419   0.91134   0.61885   0.00000  Uiso   1.00
H78    H     0.67334   0.98260   0.48975   0.00000  Uiso   1.00
H79    H     0.79986   0.84850   0.66067   0.00000  Uiso   1.00
H80    H     0.52958   0.91563   0.71985   0.00000  Uiso   1.00
H81    H     0.66748   0.04151   0.32499   0.00000  Uiso   1.00
H82    H     0.93422   0.75874   0.68543   0.00000  Uiso   1.00
H83    H     0.36430   0.90031   0.81021   0.00000  Uiso   1.00
O84    O     0.61837   0.01931   0.16573   0.00000  Uiso   1.00
O85    O     0.96830   0.64834   0.63861   0.00000  Uiso   1.00
O86    O     0.22058   0.83407   0.80232   0.00000  Uiso   1.00
N87    N     0.58525   0.93039   0.23363   0.00000  Uiso   1.00
N88    N     0.83464   0.66603   0.57060   0.00000  Uiso   1.00
N89    N     0.30183   0.79837   0.68728   0.00000  Uiso   1.00
N90    N     0.64222   0.00170   0.31039   0.00000  Uiso   1.00
N91    N     0.89161   0.73734   0.64736   0.00000  Uiso   1.00
N92    N     0.35879   0.86968   0.76404   0.00000  Uiso   1.00
C93    C     0.56886   0.70800   0.00961   0.00000  Uiso   1.00
C94    C     0.58729   0.65243   0.06161   0.00000  Uiso   1.00
C95    C     0.57106   0.64543   0.14809   0.00000  Uiso   1.00
C96    C     0.59254   0.59121   0.18386   0.00000  Uiso   1.00
C97    C     0.61565   0.51186   0.27207   0.00000  Uiso   1.00
C98    C     0.65603   0.72528   0.96875   0.00000  Uiso   1.00
C99    C     0.69759   0.77955   0.97715   0.00000  Uiso   1.00
C100   C     0.77693   0.78666   0.93473   0.00000  Uiso   1.00
C101   C     0.90675   0.82044   0.87872   0.00000  Uiso   1.00
C102   C     0.50918   0.68880   0.93660   0.00000  Uiso   1.00
C103   C     0.42728   0.71241   0.91796   0.00000  Uiso   1.00
C104   C     0.38299   0.68881   0.84846   0.00000  Uiso   1.00
C105   C     0.28480   0.66596   0.74255   0.00000  Uiso   1.00
C106   C     0.63586   0.62413   0.91933   0.00000  Uiso   1.00
C107   C     0.62368   0.60688   0.01257   0.00000  Uiso   1.00
C108   C     0.64518   0.55264   0.04821   0.00000  Uiso   1.00
C109   C     0.62899   0.54557   0.13474   0.00000  Uiso   1.00
C110   C     0.69242   0.67973   0.91971   0.00000  Uiso   1.00
C111   C     0.77172   0.68676   0.87727   0.00000  Uiso   1.00
C112   C     0.81339   0.74102   0.88561   0.00000  Uiso   1.00
C113   C     0.54557   0.64325   0.88757   0.00000  Uiso   1.00
C114   C     0.50140   0.61962   0.81808   0.00000  Uiso   1.00
C115   C     0.41945   0.64318   0.79934   0.00000  Uiso   1.00
H116   H     0.54053   0.74346   0.04778   0.00000  Uiso   1.00
H117   H     0.54290   0.68070   0.18602   0.00000  Uiso   1.00
H118   H     0.66941   0.81480   0.01509   0.00000  Uiso   1.00
H119   H     0.39914   0.74766   0.95591   0.00000  Uiso   1.00
H120   H     0.56161   0.59103   0.31766   0.00000  Uiso   1.00
H121   H     0.82835   0.87379   0.95723   0.00000  Uiso   1.00
H122   H     0.25842   0.73223   0.83245   0.00000  Uiso   1.00
H123   H     0.66419   0.58866   0.88115   0.00000  Uiso   1.00
H124   H     0.67334   0.51740   0.01025   0.00000  Uiso   1.00
H125   H     0.79986   0.65150   0.83933   0.00000  Uiso   1.00
H126   H     0.52958   0.58437   0.78015   0.00000  Uiso   1.00
H127   H     0.66748   0.45849   0.17501   0.00000  Uiso   1.00
H128   H     0.93422   0.74126   0.81457   0.00000  Uiso   1.00
H129   H     0.36430   0.59969   0.68979   0.00000  Uiso   1.00
O130   O     0.61837   0.48069   0.33427   0.00000  Uiso   1.00
O131   O     0.96830   0.85166   0.86139   0.00000  Uiso   1.00
O132   O     0.22058   0.66593   0.69768   0.00000  Uiso   1.00
N133   N     0.58525   0.56961   0.26637   0.00000  Uiso   1.00
N134   N     0.83464   0.83397   0.92940   0.00000  Uiso   1.00
N135   N     0.30183   0.70163   0.81272   0.00000  Uiso   1.00
N136   N     0.64222   0.49830   0.18961   0.00000  Uiso   1.00
N137   N     0.89161   0.76266   0.85264   0.00000  Uiso   1.00
N138   N     0.35879   0.63032   0.73596   0.00000  Uiso   1.00
C139   C     0.93114   0.29200   0.00961   0.00000  Uiso   1.00
C140   C     0.91271   0.34757   0.06161   0.00000  Uiso   1.00
C141   C     0.92894   0.35457   0.14809   0.00000  Uiso   1.00
C142   C     0.90746   0.40879   0.18386   0.00000  Uiso   1.00
C143   C     0.88435   0.48814   0.27207   0.00000  Uiso   1.00
C144   C     0.84397   0.27472   0.96875   0.00000  Uiso   1.00
C145   C     0.80241   0.22045   0.97715   0.00000  Uiso   1.00
C146   C     0.72307   0.21334   0.93473   0.00000  Uiso   1.00
C147   C     0.59325   0.17956   0.87872   0.00000  Uiso   1.00
C148   C     0.99082   0.31120   0.93660   0.00000  Uiso   1.00
C149   C     0.07272   0.28759   0.91796   0.00000  Uiso   1.00
C150   C     0.11701   0.31119   0.84846   0.00000  Uiso   1.00
C151   C     0.21520   0.33404   0.74255   0.00000  Uiso   1.00
C152   C     0.86414   0.37587   0.91933   0.00000  Uiso   1.00
C153   C     0.87632   0.39312   0.01257   0.00000  Uiso   1.00
C154   C     0.85482   0.44736   0.04821   0.00000  Uiso   1.00
C155   C     0.87101   0.45443   0.13474   0.00000  Uiso   1.00
C156   C     0.80758   0.32027   0.91971   0.00000  Uiso   1.00
C157   C     0.72828   0.31324   0.87727   0.00000  Uiso   1.00
C158   C     0.68661   0.25898   0.88561   0.00000  Uiso   1.00
C159   C     0.95443   0.35675   0.88757   0.00000  Uiso   1.00
C160   C     0.99860   0.38038   0.81808   0.00000  Uiso   1.00
C161   C     0.08055   0.35682   0.79934   0.00000  Uiso   1.00
H162   H     0.95947   0.25654   0.04778   0.00000  Uiso   1.00
H163   H     0.95710   0.31930   0.18602   0.00000  Uiso   1.00
H164   H     0.83059   0.18520   0.01509   0.00000  Uiso   1.00
H165   H     0.10086   0.25234   0.95591   0.00000  Uiso   1.00
H166   H     0.93839   0.40897   0.31766   0.00000  Uiso   1.00
H167   H     0.67165   0.12621   0.95723   0.00000  Uiso   1.00
H168   H     0.24158   0.26777   0.83245   0.00000  Uiso   1.00
H169   H     0.83581   0.41134   0.88115   0.00000  Uiso   1.00
H170   H     0.82666   0.48260   0.01025   0.00000  Uiso   1.00
H171   H     0.70014   0.34850   0.83933   0.00000  Uiso   1.00
H172   H     0.97042   0.41563   0.78015   0.00000  Uiso   1.00
H173   H     0.83252   0.54151   0.17501   0.00000  Uiso   1.00
H174   H     0.56578   0.25874   0.81457   0.00000  Uiso   1.00
H175   H     0.13570   0.40031   0.68979   0.00000  Uiso   1.00
O176   O     0.88163   0.51931   0.33427   0.00000  Uiso   1.00
O177   O     0.53170   0.14834   0.86139   0.00000  Uiso   1.00
O178   O     0.27942   0.33407   0.69768   0.00000  Uiso   1.00
N179   N     0.91475   0.43039   0.26637   0.00000  Uiso   1.00
N180   N     0.66536   0.16603   0.92940   0.00000  Uiso   1.00
N181   N     0.19817   0.29837   0.81272   0.00000  Uiso   1.00
N182   N     0.85778   0.50170   0.18961   0.00000  Uiso   1.00
N183   N     0.60839   0.23734   0.85264   0.00000  Uiso   1.00
N184   N     0.14121   0.36968   0.73596   0.00000  Uiso   1.00
C185   C     0.06886   0.79200   0.50961   0.00000  Uiso   1.00
C186   C     0.08729   0.84757   0.56161   0.00000  Uiso   1.00
C187   C     0.07106   0.85457   0.64809   0.00000  Uiso   1.00
C188   C     0.09254   0.90879   0.68386   0.00000  Uiso   1.00
C189   C     0.11565   0.98814   0.77207   0.00000  Uiso   1.00
C190   C     0.15603   0.77472   0.46875   0.00000  Uiso   1.00
C191   C     0.19759   0.72045   0.47715   0.00000  Uiso   1.00
C192   C     0.27693   0.71334   0.43473   0.00000  Uiso   1.00
C193   C     0.40675   0.67956   0.37872   0.00000  Uiso   1.00
C194   C     0.00918   0.81120   0.43660   0.00000  Uiso   1.00
C195   C     0.92728   0.78759   0.41796   0.00000  Uiso   1.00
C196   C     0.88299   0.81119   0.34846   0.00000  Uiso   1.00
C197   C     0.78480   0.83404   0.24255   0.00000  Uiso   1.00
C198   C     0.13586   0.87587   0.41933   0.00000  Uiso   1.00
C199   C     0.12368   0.89312   0.51257   0.00000  Uiso   1.00
C200   C     0.14518   0.94736   0.54821   0.00000  Uiso   1.00
C201   C     0.12899   0.95443   0.63474   0.00000  Uiso   1.00
C202   C     0.19242   0.82027   0.41971   0.00000  Uiso   1.00
C203   C     0.27172   0.81324   0.37727   0.00000  Uiso   1.00
C204   C     0.31339   0.75898   0.38561   0.00000  Uiso   1.00
C205   C     0.04557   0.85675   0.38757   0.00000  Uiso   1.00
C206   C     0.00140   0.88038   0.31808   0.00000  Uiso   1.00
C207   C     0.91945   0.85682   0.29934   0.00000  Uiso   1.00
H208   H     0.04053   0.75654   0.54778   0.00000  Uiso   1.00
H209   H     0.04290   0.81930   0.68602   0.00000  Uiso   1.00
H210   H     0.16941   0.68520   0.51509   0.00000  Uiso   1.00
H211   H     0.89914   0.75234   0.45591   0.00000  Uiso   1.00
H212   H     0.06161   0.90897   0.81766   0.00000  Uiso   1.00
H213   H     0.32835   0.62621   0.45723   0.00000  Uiso   1.00
H214   H     0.75842   0.76777   0.33245   0.00000  Uiso   1.00
H215   H     0.16419   0.91134   0.38115   0.00000  Uiso   1.00
H216   H     0.17334   0.98260   0.51025   0.00000  Uiso   1.00
H217   H     0.29986   0.84850   0.33933   0.00000  Uiso   1.00
H218   H     0.02958   0.91563   0.28015   0.00000  Uiso   1.00
H219   H     0.16748   0.04151   0.67501   0.00000  Uiso   1.00
H220   H     0.43422   0.75874   0.31457   0.00000  Uiso   1.00
H221   H     0.86430   0.90031   0.18979   0.00000  Uiso   1.00
O222   O     0.11837   0.01931   0.83427   0.00000  Uiso   1.00
O223   O     0.46830   0.64834   0.36139   0.00000  Uiso   1.00
O224   O     0.72058   0.83407   0.19768   0.00000  Uiso   1.00
N225   N     0.08525   0.93039   0.76637   0.00000  Uiso   1.00
N226   N     0.33464   0.66603   0.42940   0.00000  Uiso   1.00
N227   N     0.80183   0.79837   0.31272   0.00000  Uiso   1.00
N228   N     0.14222   0.00170   0.68961   0.00000  Uiso   1.00
N229   N     0.39161   0.73734   0.35264   0.00000  Uiso   1.00
N230   N     0.85879   0.86968   0.23596   0.00000  Uiso   1.00
C231   C     0.43114   0.20800   0.50961   0.00000  Uiso   1.00
C232   C     0.41271   0.15243   0.56161   0.00000  Uiso   1.00
C233   C     0.42894   0.14543   0.64809   0.00000  Uiso   1.00
C234   C     0.40746   0.09121   0.68386   0.00000  Uiso   1.00
C235   C     0.38435   0.01186   0.77207   0.00000  Uiso   1.00
C236   C     0.34397   0.22528   0.46875   0.00000  Uiso   1.00
C237   C     0.30241   0.27955   0.47715   0.00000  Uiso   1.00
C238   C     0.22307   0.28666   0.43473   0.00000  Uiso   1.00
C239   C     0.09325   0.32044   0.37872   0.00000  Uiso   1.00
C240   C     0.49082   0.18880   0.43660   0.00000  Uiso   1.00
C241   C     0.57272   0.21241   0.41796   0.00000  Uiso   1.00
C242   C     0.61701   0.18881   0.34846   0.00000  Uiso   1.00
C243   C     0.71520   0.16596   0.24255   0.00000  Uiso   1.00
C244   C     0.36414   0.12413   0.41933   0.00000  Uiso   1.00
C245   C     0.37632   0.10688   0.51257   0.00000  Uiso   1.00
C246   C     0.35482   0.05264   0.54821   0.00000  Uiso   1.00
C247   C     0.37101   0.04557   0.63474   0.00000  Uiso   1.00
C248   C     0.30758   0.17973   0.41971   0.00000  Uiso   1.00
C249   C     0.22828   0.18676   0.37727   0.00000  Uiso   1.00
C250   C     0.18661   0.24102   0.38561   0.00000  Uiso   1.00
C251   C     0.45443   0.14325   0.38757   0.00000  Uiso   1.00
C252   C     0.49860   0.11962   0.31808   0.00000  Uiso   1.00
C253   C     0.58055   0.14318   0.29934   0.00000  Uiso   1.00
H254   H     0.45947   0.24346   0.54778   0.00000  Uiso   1.00
H255   H     0.45710   0.18070   0.68602   0.00000  Uiso   1.00
H256   H     0.33059   0.31480   0.51509   0.00000  Uiso   1.00
H257   H     0.60086   0.24766   0.45591   0.00000  Uiso   1.00
H258   H     0.43839   0.09103   0.81766   0.00000  Uiso   1.00
H259   H     0.17165   0.37379   0.45723   0.00000  Uiso   1.00
H260   H     0.74158   0.23223   0.33245   0.00000  Uiso   1.00
H261   H     0.33581   0.08866   0.38115   0.00000  Uiso   1.00
H262   H     0.32666   0.01740   0.51025   0.00000  Uiso   1.00
H263   H     0.20014   0.15150   0.33933   0.00000  Uiso   1.00
H264   H     0.47042   0.08437   0.28015   0.00000  Uiso   1.00
H265   H     0.33252   0.95849   0.67501   0.00000  Uiso   1.00
H266   H     0.06578   0.24126   0.31457   0.00000  Uiso   1.00
H267   H     0.63570   0.09969   0.18979   0.00000  Uiso   1.00
O268   O     0.38163   0.98069   0.83427   0.00000  Uiso   1.00
O269   O     0.03170   0.35166   0.36139   0.00000  Uiso   1.00
O270   O     0.77942   0.16593   0.19768   0.00000  Uiso   1.00
N271   N     0.41475   0.06961   0.76637   0.00000  Uiso   1.00
N272   N     0.16536   0.33397   0.42940   0.00000  Uiso   1.00
N273   N     0.69817   0.20163   0.31272   0.00000  Uiso   1.00
N274   N     0.35778   0.99830   0.68961   0.00000  Uiso   1.00
N275   N     0.10839   0.26266   0.35264   0.00000  Uiso   1.00
N276   N     0.64121   0.13032   0.23596   0.00000  Uiso   1.00
C277   C     0.43114   0.29200   0.99039   0.00000  Uiso   1.00
C278   C     0.41271   0.34757   0.93839   0.00000  Uiso   1.00
C279   C     0.42894   0.35457   0.85191   0.00000  Uiso   1.00
C280   C     0.40746   0.40879   0.81614   0.00000  Uiso   1.00
C281   C     0.38435   0.48814   0.72793   0.00000  Uiso   1.00
C282   C     0.34397   0.27472   0.03125   0.00000  Uiso   1.00
C283   C     0.30241   0.22045   0.02285   0.00000  Uiso   1.00
C284   C     0.22307   0.21334   0.06527   0.00000  Uiso   1.00
C285   C     0.09325   0.17956   0.12128   0.00000  Uiso   1.00
C286   C     0.49082   0.31120   0.06340   0.00000  Uiso   1.00
C287   C     0.57272   0.28759   0.08204   0.00000  Uiso   1.00
C288   C     0.61701   0.31119   0.15154   0.00000  Uiso   1.00
C289   C     0.71520   0.33404   0.25745   0.00000  Uiso   1.00
C290   C     0.36414   0.37587   0.08067   0.00000  Uiso   1.00
C291   C     0.37632   0.39312   0.98743   0.00000  Uiso   1.00
C292   C     0.35482   0.44736   0.95179   0.00000  Uiso   1.00
C293   C     0.37101   0.45443   0.86526   0.00000  Uiso   1.00
C294   C     0.30758   0.32027   0.08029   0.00000  Uiso   1.00
C295   C     0.22828   0.31324   0.12273   0.00000  Uiso   1.00
C296   C     0.18661   0.25898   0.11439   0.00000  Uiso   1.00
C297   C     0.45443   0.35675   0.11243   0.00000  Uiso   1.00
C298   C     0.49860   0.38038   0.18192   0.00000  Uiso   1.00
C299   C     0.58055   0.35682   0.20066   0.00000  Uiso   1.00
H300   H     0.45947   0.25654   0.95222   0.00000  Uiso   1.00
H301   H     0.45710   0.31930   0.81398   0.00000  Uiso   1.00
H302   H     0.33059   0.18520   0.98491   0.00000  Uiso   1.00
H303   H     0.60086   0.25234   0.04409   0.00000  Uiso   1.00
H304   H     0.43839   0.40897   0.68234   0.00000  Uiso   1.00
H305   H     0.17165   0.12621   0.04277   0.00000  Uiso   1.00
H306   H     0.74158   0.26777   0.16755   0.00000  Uiso   1.00
H307   H     0.33581   0.41134   0.11885   0.00000  Uiso   1.00
H308   H     0.32666   0.48260   0.98975   0.00000  Uiso   1.00
H309   H     0.20014   0.34850   0.16067   0.00000  Uiso   1.00
H310   H     0.47042   0.41563   0.21985   0.00000  Uiso   1.00
H311   H     0.33252   0.54151   0.82499   0.00000  Uiso   1.00
H312   H     0.06578   0.25874   0.18543   0.00000  Uiso   1.00
H313   H     0.63570   0.40031   0.31021   0.00000  Uiso   1.00
O314   O     0.38163   0.51931   0.66573   0.00000  Uiso   1.00
O315   O     0.03170   0.14834   0.13861   0.00000  Uiso   1.00
O316   O     0.77942   0.33407   0.30232   0.00000  Uiso   1.00
N317   N     0.41475   0.43039   0.73363   0.00000  Uiso   1.00
N318   N     0.16536   0.16603   0.07060   0.00000  Uiso   1.00
N319   N     0.69817   0.29837   0.18728   0.00000  Uiso   1.00
N320   N     0.35778   0.50170   0.81039   0.00000  Uiso   1.00
N321   N     0.10839   0.23734   0.14736   0.00000  Uiso   1.00
N322   N     0.64121   0.36968   0.26404   0.00000  Uiso   1.00
C323   C     0.06886   0.70800   0.99039   0.00000  Uiso   1.00
C324   C     0.08729   0.65243   0.93839   0.00000  Uiso   1.00
C325   C     0.07106   0.64543   0.85191   0.00000  Uiso   1.00
C326   C     0.09254   0.59121   0.81614   0.00000  Uiso   1.00
C327   C     0.11565   0.51186   0.72793   0.00000  Uiso   1.00
C328   C     0.15603   0.72528   0.03125   0.00000  Uiso   1.00
C329   C     0.19759   0.77955   0.02285   0.00000  Uiso   1.00
C330   C     0.27693   0.78666   0.06527   0.00000  Uiso   1.00
C331   C     0.40675   0.82044   0.12128   0.00000  Uiso   1.00
C332   C     0.00918   0.68880   0.06340   0.00000  Uiso   1.00
C333   C     0.92728   0.71241   0.08204   0.00000  Uiso   1.00
C334   C     0.88299   0.68881   0.15154   0.00000  Uiso   1.00
C335   C     0.78480   0.66596   0.25745   0.00000  Uiso   1.00
C336   C     0.13586   0.62413   0.08067   0.00000  Uiso   1.00
C337   C     0.12368   0.60688   0.98743   0.00000  Uiso   1.00
C338   C     0.14518   0.55264   0.95179   0.00000  Uiso   1.00
C339   C     0.12899   0.54557   0.86526   0.00000  Uiso   1.00
C340   C     0.19242   0.67973   0.08029   0.00000  Uiso   1.00
C341   C     0.27172   0.68676   0.12273   0.00000  Uiso   1.00
C342   C     0.31339   0.74102   0.11439   0.00000  Uiso   1.00
C343   C     0.04557   0.64325   0.11243   0.00000  Uiso   1.00
C344   C     0.00140   0.61962   0.18192   0.00000  Uiso   1.00
C345   C     0.91945   0.64318   0.20066   0.00000  Uiso   1.00
H346   H     0.04053   0.74346   0.95222   0.00000  Uiso   1.00
H347   H     0.04290   0.68070   0.81398   0.00000  Uiso   1.00
H348   H     0.16941   0.81480   0.98491   0.00000  Uiso   1.00
H349   H     0.89914   0.74766   0.04409   0.00000  Uiso   1.00
H350   H     0.06161   0.59103   0.68234   0.00000  Uiso   1.00
H351   H     0.32835   0.87379   0.04277   0.00000  Uiso   1.00
H352   H     0.75842   0.73223   0.16755   0.00000  Uiso   1.00
H353   H     0.16419   0.58866   0.11885   0.00000  Uiso   1.00
H354   H     0.17334   0.51740   0.98975   0.00000  Uiso   1.00
H355   H     0.29986   0.65150   0.16067   0.00000  Uiso   1.00
H356   H     0.02958   0.58437   0.21985   0.00000  Uiso   1.00
H357   H     0.16748   0.45849   0.82499   0.00000  Uiso   1.00
H358   H     0.43422   0.74126   0.18543   0.00000  Uiso   1.00
H359   H     0.86430   0.59969   0.31021   0.00000  Uiso   1.00
O360   O     0.11837   0.48069   0.66573   0.00000  Uiso   1.00
O361   O     0.46830   0.85166   0.13861   0.00000  Uiso   1.00
O362   O     0.72058   0.66593   0.30232   0.00000  Uiso   1.00
N363   N     0.08525   0.56961   0.73363   0.00000  Uiso   1.00
N364   N     0.33464   0.83397   0.07060   0.00000  Uiso   1.00
N365   N     0.80183   0.70163   0.18728   0.00000  Uiso   1.00
N366   N     0.14222   0.49830   0.81039   0.00000  Uiso   1.00
N367   N     0.39161   0.76266   0.14736   0.00000  Uiso   1.00
N368   N     0.85879   0.63032   0.26404   0.00000  Uiso   1.00
