data_job_03469
_audit_creation_date              2018-12-19
_audit_creation_method            'Materials Studio'
_symmetry_space_group_name_H-M    'P1'
_symmetry_Int_Tables_number       1
_symmetry_cell_setting            triclinic
loop_
_symmetry_equiv_pos_as_xyz
  x,y,z
_cell_length_a                    10.8918
_cell_length_b                    24.8137
_cell_length_c                    17.2698
_cell_angle_alpha                 90.0000
_cell_angle_beta                  136.5053
_cell_angle_gamma                 90.0000
loop_
_atom_site_label
_atom_site_type_symbol
_atom_site_fract_x
_atom_site_fract_y
_atom_site_fract_z
_atom_site_U_iso_or_equiv
_atom_site_adp_type
_atom_site_occupancy
C1     C     0.31976   0.13457   0.50323   0.00000  Uiso   1.00
C2     C     0.42302   0.11553   0.62146   0.00000  Uiso   1.00
C3     C     0.59841   0.09764   0.70210   0.00000  Uiso   1.00
C4     C     0.66872   0.08195   0.80514   0.00000  Uiso   1.00
C5     C     0.84447   0.05202   0.98543   0.00000  Uiso   1.00
C6     C     0.15291   0.09953   0.42288   0.00000  Uiso   1.00
C7     C     0.10120   0.06820   0.33655   0.00000  Uiso   1.00
C8     C     0.94412   0.03904   0.27242   0.00000  Uiso   1.00
C9     C     0.70047   0.98432   0.14436   0.00000  Uiso   1.00
C10    C     0.25519   0.19136   0.49249   0.00000  Uiso   1.00
C11    C     0.28941   0.23724   0.46465   0.00000  Uiso   1.00
C12    C     0.21841   0.28540   0.45910   0.00000  Uiso   1.00
C13    C     0.13355   0.37324   0.43911   0.00000  Uiso   1.00
C14    C     0.13274   0.13852   0.54283   0.00000  Uiso   1.00
C15    C     0.32143   0.11767   0.64296   0.00000  Uiso   1.00
C16    C     0.39150   0.10200   0.74592   0.00000  Uiso   1.00
C17    C     0.56696   0.08410   0.82670   0.00000  Uiso   1.00
C18    C     0.05133   0.10167   0.44439   0.00000  Uiso   1.00
C19    C     0.89429   0.07256   0.38036   0.00000  Uiso   1.00
C20    C     0.84236   0.04119   0.29397   0.00000  Uiso   1.00
C21    C     0.15361   0.19350   0.51400   0.00000  Uiso   1.00
C22    C     0.08251   0.24160   0.50848   0.00000  Uiso   1.00
C23    C     0.11664   0.28754   0.48065   0.00000  Uiso   1.00
H24    H     0.39883   0.13290   0.48648   0.00000  Uiso   1.00
H25    H     0.67697   0.09598   0.68542   0.00000  Uiso   1.00
H26    H     0.17983   0.06655   0.31992   0.00000  Uiso   1.00
H27    H     0.36803   0.23556   0.44801   0.00000  Uiso   1.00
H28    H     0.94051   0.05598   0.91545   0.00000  Uiso   1.00
H29    H     0.89224   0.99393   0.14475   0.00000  Uiso   1.00
H30    H     0.28908   0.35033   0.41485   0.00000  Uiso   1.00
H31    H     0.05365   0.14019   0.55958   0.00000  Uiso   1.00
H32    H     0.31286   0.10367   0.76254   0.00000  Uiso   1.00
H33    H     0.81571   0.07423   0.39703   0.00000  Uiso   1.00
H34    H     0.00391   0.24324   0.52513   0.00000  Uiso   1.00
H35    H     0.64498   0.06221   0.97804   0.00000  Uiso   1.00
H36    H     0.59670   0.00017   0.20733   0.00000  Uiso   1.00
H37    H     0.99355   0.35656   0.47744   0.00000  Uiso   1.00
O38    O     0.96947   0.03492   0.07893   0.00000  Uiso   1.00
O39    O     0.59415   0.95353   0.06778   0.00000  Uiso   1.00
O40    O     0.11482   0.42111   0.42216   0.00000  Uiso   1.00
N41    N     0.83540   0.06247   0.90234   0.00000  Uiso   1.00
N42    N     0.85534   0.00445   0.18179   0.00000  Uiso   1.00
N43    N     0.22632   0.33765   0.43428   0.00000  Uiso   1.00
N44    N     0.67638   0.06582   0.93602   0.00000  Uiso   1.00
N45    N     0.69632   0.00781   0.21547   0.00000  Uiso   1.00
N46    N     0.06730   0.34100   0.46796   0.00000  Uiso   1.00
C47    C     0.68024   0.63457   0.99677   0.00000  Uiso   1.00
C48    C     0.57698   0.61553   0.87854   0.00000  Uiso   1.00
C49    C     0.40159   0.59764   0.79790   0.00000  Uiso   1.00
C50    C     0.33128   0.58195   0.69486   0.00000  Uiso   1.00
C51    C     0.15553   0.55202   0.51457   0.00000  Uiso   1.00
C52    C     0.84709   0.59953   0.07712   0.00000  Uiso   1.00
C53    C     0.89880   0.56820   0.16345   0.00000  Uiso   1.00
C54    C     0.05588   0.53904   0.22758   0.00000  Uiso   1.00
C55    C     0.29953   0.48432   0.35564   0.00000  Uiso   1.00
C56    C     0.74481   0.69136   0.00751   0.00000  Uiso   1.00
C57    C     0.71059   0.73724   0.03535   0.00000  Uiso   1.00
C58    C     0.78159   0.78540   0.04090   0.00000  Uiso   1.00
C59    C     0.86645   0.87324   0.06089   0.00000  Uiso   1.00
C60    C     0.86726   0.63852   0.95717   0.00000  Uiso   1.00
C61    C     0.67857   0.61767   0.85704   0.00000  Uiso   1.00
C62    C     0.60850   0.60200   0.75408   0.00000  Uiso   1.00
C63    C     0.43304   0.58410   0.67330   0.00000  Uiso   1.00
C64    C     0.94867   0.60167   0.05561   0.00000  Uiso   1.00
C65    C     0.10571   0.57256   0.11964   0.00000  Uiso   1.00
C66    C     0.15764   0.54119   0.20603   0.00000  Uiso   1.00
C67    C     0.84639   0.69350   0.98600   0.00000  Uiso   1.00
C68    C     0.91749   0.74160   0.99152   0.00000  Uiso   1.00
C69    C     0.88336   0.78754   0.01935   0.00000  Uiso   1.00
H70    H     0.60117   0.63290   0.01352   0.00000  Uiso   1.00
H71    H     0.32303   0.59598   0.81458   0.00000  Uiso   1.00
H72    H     0.82017   0.56655   0.18008   0.00000  Uiso   1.00
H73    H     0.63197   0.73556   0.05199   0.00000  Uiso   1.00
H74    H     0.05949   0.55598   0.58455   0.00000  Uiso   1.00
H75    H     0.10776   0.49393   0.35525   0.00000  Uiso   1.00
H76    H     0.71092   0.85033   0.08515   0.00000  Uiso   1.00
H77    H     0.94635   0.64019   0.94042   0.00000  Uiso   1.00
H78    H     0.68714   0.60367   0.73746   0.00000  Uiso   1.00
H79    H     0.18429   0.57423   0.10297   0.00000  Uiso   1.00
H80    H     0.99609   0.74324   0.97487   0.00000  Uiso   1.00
H81    H     0.35502   0.56221   0.52196   0.00000  Uiso   1.00
H82    H     0.40330   0.50017   0.29267   0.00000  Uiso   1.00
H83    H     0.00645   0.85656   0.02256   0.00000  Uiso   1.00
O84    O     0.03053   0.53492   0.42107   0.00000  Uiso   1.00
O85    O     0.40585   0.45353   0.43222   0.00000  Uiso   1.00
O86    O     0.88518   0.92111   0.07784   0.00000  Uiso   1.00
N87    N     0.16460   0.56247   0.59766   0.00000  Uiso   1.00
N88    N     0.14466   0.50445   0.31821   0.00000  Uiso   1.00
N89    N     0.77368   0.83765   0.06572   0.00000  Uiso   1.00
N90    N     0.32362   0.56582   0.56398   0.00000  Uiso   1.00
N91    N     0.30368   0.50781   0.28453   0.00000  Uiso   1.00
N92    N     0.93270   0.84100   0.03204   0.00000  Uiso   1.00
C93    C     0.68024   0.86543   0.49677   0.00000  Uiso   1.00
C94    C     0.57698   0.88447   0.37854   0.00000  Uiso   1.00
C95    C     0.40159   0.90236   0.29790   0.00000  Uiso   1.00
C96    C     0.33128   0.91805   0.19486   0.00000  Uiso   1.00
C97    C     0.15553   0.94798   0.01457   0.00000  Uiso   1.00
C98    C     0.84709   0.90047   0.57712   0.00000  Uiso   1.00
C99    C     0.89880   0.93180   0.66345   0.00000  Uiso   1.00
C100   C     0.05588   0.96096   0.72758   0.00000  Uiso   1.00
C101   C     0.29953   0.01568   0.85564   0.00000  Uiso   1.00
C102   C     0.74481   0.80864   0.50751   0.00000  Uiso   1.00
C103   C     0.71059   0.76276   0.53535   0.00000  Uiso   1.00
C104   C     0.78159   0.71460   0.54090   0.00000  Uiso   1.00
C105   C     0.86645   0.62676   0.56089   0.00000  Uiso   1.00
C106   C     0.86726   0.86148   0.45717   0.00000  Uiso   1.00
C107   C     0.67857   0.88233   0.35704   0.00000  Uiso   1.00
C108   C     0.60850   0.89800   0.25408   0.00000  Uiso   1.00
C109   C     0.43304   0.91590   0.17330   0.00000  Uiso   1.00
C110   C     0.94867   0.89833   0.55561   0.00000  Uiso   1.00
C111   C     0.10571   0.92744   0.61964   0.00000  Uiso   1.00
C112   C     0.15764   0.95881   0.70603   0.00000  Uiso   1.00
C113   C     0.84639   0.80650   0.48600   0.00000  Uiso   1.00
C114   C     0.91749   0.75840   0.49152   0.00000  Uiso   1.00
C115   C     0.88336   0.71246   0.51935   0.00000  Uiso   1.00
H116   H     0.60117   0.86710   0.51352   0.00000  Uiso   1.00
H117   H     0.32303   0.90402   0.31458   0.00000  Uiso   1.00
H118   H     0.82017   0.93345   0.68008   0.00000  Uiso   1.00
H119   H     0.63197   0.76444   0.55199   0.00000  Uiso   1.00
H120   H     0.05949   0.94402   0.08455   0.00000  Uiso   1.00
H121   H     0.10776   0.00607   0.85525   0.00000  Uiso   1.00
H122   H     0.71092   0.64967   0.58515   0.00000  Uiso   1.00
H123   H     0.94635   0.85981   0.44042   0.00000  Uiso   1.00
H124   H     0.68714   0.89633   0.23746   0.00000  Uiso   1.00
H125   H     0.18429   0.92577   0.60297   0.00000  Uiso   1.00
H126   H     0.99609   0.75676   0.47487   0.00000  Uiso   1.00
H127   H     0.35502   0.93779   0.02196   0.00000  Uiso   1.00
H128   H     0.40330   0.99983   0.79267   0.00000  Uiso   1.00
H129   H     0.00645   0.64344   0.52256   0.00000  Uiso   1.00
O130   O     0.03053   0.96508   0.92107   0.00000  Uiso   1.00
O131   O     0.40585   0.04647   0.93222   0.00000  Uiso   1.00
O132   O     0.88518   0.57889   0.57784   0.00000  Uiso   1.00
N133   N     0.16460   0.93753   0.09766   0.00000  Uiso   1.00
N134   N     0.14466   0.99555   0.81821   0.00000  Uiso   1.00
N135   N     0.77368   0.66235   0.56572   0.00000  Uiso   1.00
N136   N     0.32362   0.93418   0.06398   0.00000  Uiso   1.00
N137   N     0.30368   0.99219   0.78453   0.00000  Uiso   1.00
N138   N     0.93270   0.65900   0.53204   0.00000  Uiso   1.00
C139   C     0.31976   0.36543   0.00323   0.00000  Uiso   1.00
C140   C     0.42302   0.38447   0.12146   0.00000  Uiso   1.00
C141   C     0.59841   0.40236   0.20210   0.00000  Uiso   1.00
C142   C     0.66872   0.41805   0.30514   0.00000  Uiso   1.00
C143   C     0.84447   0.44798   0.48543   0.00000  Uiso   1.00
C144   C     0.15291   0.40047   0.92288   0.00000  Uiso   1.00
C145   C     0.10120   0.43180   0.83655   0.00000  Uiso   1.00
C146   C     0.94412   0.46096   0.77242   0.00000  Uiso   1.00
C147   C     0.70047   0.51568   0.64436   0.00000  Uiso   1.00
C148   C     0.25519   0.30864   0.99249   0.00000  Uiso   1.00
C149   C     0.28941   0.26276   0.96465   0.00000  Uiso   1.00
C150   C     0.21841   0.21460   0.95910   0.00000  Uiso   1.00
C151   C     0.13355   0.12676   0.93911   0.00000  Uiso   1.00
C152   C     0.13274   0.36148   0.04283   0.00000  Uiso   1.00
C153   C     0.32143   0.38233   0.14296   0.00000  Uiso   1.00
C154   C     0.39150   0.39800   0.24592   0.00000  Uiso   1.00
C155   C     0.56696   0.41590   0.32670   0.00000  Uiso   1.00
C156   C     0.05133   0.39833   0.94439   0.00000  Uiso   1.00
C157   C     0.89429   0.42744   0.88036   0.00000  Uiso   1.00
C158   C     0.84236   0.45881   0.79397   0.00000  Uiso   1.00
C159   C     0.15361   0.30650   0.01400   0.00000  Uiso   1.00
C160   C     0.08251   0.25840   0.00848   0.00000  Uiso   1.00
C161   C     0.11664   0.21246   0.98065   0.00000  Uiso   1.00
H162   H     0.39883   0.36710   0.98648   0.00000  Uiso   1.00
H163   H     0.67697   0.40402   0.18542   0.00000  Uiso   1.00
H164   H     0.17983   0.43345   0.81992   0.00000  Uiso   1.00
H165   H     0.36803   0.26444   0.94801   0.00000  Uiso   1.00
H166   H     0.94051   0.44402   0.41545   0.00000  Uiso   1.00
H167   H     0.89224   0.50607   0.64475   0.00000  Uiso   1.00
H168   H     0.28908   0.14967   0.91485   0.00000  Uiso   1.00
H169   H     0.05365   0.35981   0.05958   0.00000  Uiso   1.00
H170   H     0.31286   0.39633   0.26254   0.00000  Uiso   1.00
H171   H     0.81571   0.42577   0.89703   0.00000  Uiso   1.00
H172   H     0.00391   0.25676   0.02513   0.00000  Uiso   1.00
H173   H     0.64498   0.43779   0.47804   0.00000  Uiso   1.00
H174   H     0.59670   0.49983   0.70733   0.00000  Uiso   1.00
H175   H     0.99355   0.14344   0.97744   0.00000  Uiso   1.00
O176   O     0.96947   0.46508   0.57893   0.00000  Uiso   1.00
O177   O     0.59415   0.54647   0.56778   0.00000  Uiso   1.00
O178   O     0.11482   0.07889   0.92216   0.00000  Uiso   1.00
N179   N     0.83540   0.43753   0.40234   0.00000  Uiso   1.00
N180   N     0.85534   0.49555   0.68179   0.00000  Uiso   1.00
N181   N     0.22632   0.16235   0.93428   0.00000  Uiso   1.00
N182   N     0.67638   0.43418   0.43602   0.00000  Uiso   1.00
N183   N     0.69632   0.49219   0.71547   0.00000  Uiso   1.00
N184   N     0.06730   0.15900   0.96796   0.00000  Uiso   1.00
