data_job_03695
_audit_creation_date              2018-12-19
_audit_creation_method            'Materials Studio'
_symmetry_space_group_name_H-M    'P1'
_symmetry_Int_Tables_number       1
_symmetry_cell_setting            triclinic
loop_
_symmetry_equiv_pos_as_xyz
  x,y,z
_cell_length_a                    16.9858
_cell_length_b                    17.0540
_cell_length_c                    22.6133
_cell_angle_alpha                 90.0000
_cell_angle_beta                  134.3702
_cell_angle_gamma                 90.0000
loop_
_atom_site_label
_atom_site_type_symbol
_atom_site_fract_x
_atom_site_fract_y
_atom_site_fract_z
_atom_site_U_iso_or_equiv
_atom_site_adp_type
_atom_site_occupancy
C1     C     0.58890   0.30125   0.45645   0.00000  Uiso   1.00
C2     C     0.47982   0.34250   0.41139   0.00000  Uiso   1.00
C3     C     0.41246   0.37719   0.33389   0.00000  Uiso   1.00
C4     C     0.31608   0.41193   0.30338   0.00000  Uiso   1.00
C5     C     0.15098   0.47601   0.22652   0.00000  Uiso   1.00
C6     C     0.67450   0.34249   0.53973   0.00000  Uiso   1.00
C7     C     0.77083   0.37716   0.57014   0.00000  Uiso   1.00
C8     C     0.83833   0.41188   0.64768   0.00000  Uiso   1.00
C9     C     0.97552   0.47589   0.77009   0.00000  Uiso   1.00
C10    C     0.57716   0.21878   0.47555   0.00000  Uiso   1.00
C11    C     0.59167   0.14943   0.45203   0.00000  Uiso   1.00
C12    C     0.57724   0.07998   0.47555   0.00000  Uiso   1.00
C13    C     0.56329   0.95191   0.49832   0.00000  Uiso   1.00
C14    C     0.53750   0.30125   0.54008   0.00000  Uiso   1.00
C15    C     0.45190   0.34250   0.45681   0.00000  Uiso   1.00
C16    C     0.35559   0.37719   0.42641   0.00000  Uiso   1.00
C17    C     0.28810   0.41193   0.34889   0.00000  Uiso   1.00
C18    C     0.64658   0.34249   0.58515   0.00000  Uiso   1.00
C19    C     0.71396   0.37716   0.66266   0.00000  Uiso   1.00
C20    C     0.81037   0.41188   0.69319   0.00000  Uiso   1.00
C21    C     0.54923   0.21877   0.52098   0.00000  Uiso   1.00
C22    C     0.53479   0.14943   0.54455   0.00000  Uiso   1.00
C23    C     0.54928   0.07998   0.52106   0.00000  Uiso   1.00
H24    H     0.61064   0.30126   0.42109   0.00000  Uiso   1.00
H25    H     0.43410   0.37719   0.29876   0.00000  Uiso   1.00
H26    H     0.79242   0.37714   0.53498   0.00000  Uiso   1.00
H27    H     0.61328   0.14945   0.41688   0.00000  Uiso   1.00
H28    H     0.22609   0.46140   0.18318   0.00000  Uiso   1.00
H29    H     0.98163   0.46128   0.68127   0.00000  Uiso   1.00
H30    H     0.60389   0.98114   0.43224   0.00000  Uiso   1.00
H31    H     0.51576   0.30125   0.57545   0.00000  Uiso   1.00
H32    H     0.33401   0.37718   0.46158   0.00000  Uiso   1.00
H33    H     0.69233   0.37714   0.69780   0.00000  Uiso   1.00
H34    H     0.51319   0.14945   0.57970   0.00000  Uiso   1.00
H35    H     0.14485   0.46139   0.31533   0.00000  Uiso   1.00
H36    H     0.90040   0.46128   0.81342   0.00000  Uiso   1.00
H37    H     0.52265   0.98114   0.56439   0.00000  Uiso   1.00
O38    O     0.06764   0.51137   0.17158   0.00000  Uiso   1.00
O39    O     0.05890   0.51120   0.82506   0.00000  Uiso   1.00
O40    O     0.56329   0.88127   0.49833   0.00000  Uiso   1.00
N41    N     0.23190   0.45096   0.22990   0.00000  Uiso   1.00
N42    N     0.93828   0.45087   0.69558   0.00000  Uiso   1.00
N43    N     0.58515   0.00197   0.46277   0.00000  Uiso   1.00
N44    N     0.18819   0.45096   0.30101   0.00000  Uiso   1.00
N45    N     0.89457   0.45087   0.76669   0.00000  Uiso   1.00
N46    N     0.54144   0.00197   0.53388   0.00000  Uiso   1.00
C47    C     0.08890   0.80125   0.45645   0.00000  Uiso   1.00
C48    C     0.97982   0.84250   0.41139   0.00000  Uiso   1.00
C49    C     0.91246   0.87719   0.33389   0.00000  Uiso   1.00
C50    C     0.81608   0.91193   0.30338   0.00000  Uiso   1.00
C51    C     0.65098   0.97601   0.22652   0.00000  Uiso   1.00
C52    C     0.17450   0.84249   0.53973   0.00000  Uiso   1.00
C53    C     0.27083   0.87716   0.57014   0.00000  Uiso   1.00
C54    C     0.33833   0.91188   0.64768   0.00000  Uiso   1.00
C55    C     0.47552   0.97589   0.77009   0.00000  Uiso   1.00
C56    C     0.07716   0.71878   0.47555   0.00000  Uiso   1.00
C57    C     0.09167   0.64943   0.45203   0.00000  Uiso   1.00
C58    C     0.07724   0.57998   0.47555   0.00000  Uiso   1.00
C59    C     0.06329   0.45191   0.49832   0.00000  Uiso   1.00
C60    C     0.03750   0.80125   0.54008   0.00000  Uiso   1.00
C61    C     0.95190   0.84250   0.45681   0.00000  Uiso   1.00
C62    C     0.85559   0.87719   0.42641   0.00000  Uiso   1.00
C63    C     0.78810   0.91193   0.34889   0.00000  Uiso   1.00
C64    C     0.14658   0.84249   0.58515   0.00000  Uiso   1.00
C65    C     0.21396   0.87716   0.66266   0.00000  Uiso   1.00
C66    C     0.31037   0.91188   0.69319   0.00000  Uiso   1.00
C67    C     0.04923   0.71877   0.52098   0.00000  Uiso   1.00
C68    C     0.03479   0.64943   0.54455   0.00000  Uiso   1.00
C69    C     0.04928   0.57998   0.52106   0.00000  Uiso   1.00
H70    H     0.11064   0.80126   0.42109   0.00000  Uiso   1.00
H71    H     0.93410   0.87719   0.29876   0.00000  Uiso   1.00
H72    H     0.29242   0.87714   0.53498   0.00000  Uiso   1.00
H73    H     0.11328   0.64945   0.41688   0.00000  Uiso   1.00
H74    H     0.72609   0.96140   0.18318   0.00000  Uiso   1.00
H75    H     0.48163   0.96128   0.68127   0.00000  Uiso   1.00
H76    H     0.10389   0.48114   0.43224   0.00000  Uiso   1.00
H77    H     0.01576   0.80125   0.57545   0.00000  Uiso   1.00
H78    H     0.83401   0.87718   0.46158   0.00000  Uiso   1.00
H79    H     0.19233   0.87714   0.69780   0.00000  Uiso   1.00
H80    H     0.01319   0.64945   0.57970   0.00000  Uiso   1.00
H81    H     0.64485   0.96139   0.31533   0.00000  Uiso   1.00
H82    H     0.40040   0.96128   0.81342   0.00000  Uiso   1.00
H83    H     0.02265   0.48114   0.56439   0.00000  Uiso   1.00
O84    O     0.56764   0.01137   0.17158   0.00000  Uiso   1.00
O85    O     0.55890   0.01120   0.82506   0.00000  Uiso   1.00
O86    O     0.06329   0.38127   0.49833   0.00000  Uiso   1.00
N87    N     0.73190   0.95096   0.22990   0.00000  Uiso   1.00
N88    N     0.43828   0.95087   0.69558   0.00000  Uiso   1.00
N89    N     0.08515   0.50197   0.46277   0.00000  Uiso   1.00
N90    N     0.68819   0.95096   0.30101   0.00000  Uiso   1.00
N91    N     0.39457   0.95087   0.76669   0.00000  Uiso   1.00
N92    N     0.04144   0.50197   0.53388   0.00000  Uiso   1.00
C93    C     0.58890   0.69875   0.95645   0.00000  Uiso   1.00
C94    C     0.47982   0.65750   0.91139   0.00000  Uiso   1.00
C95    C     0.41246   0.62281   0.83389   0.00000  Uiso   1.00
C96    C     0.31608   0.58807   0.80338   0.00000  Uiso   1.00
C97    C     0.15098   0.52399   0.72652   0.00000  Uiso   1.00
C98    C     0.67450   0.65751   0.03973   0.00000  Uiso   1.00
C99    C     0.77083   0.62284   0.07014   0.00000  Uiso   1.00
C100   C     0.83833   0.58812   0.14768   0.00000  Uiso   1.00
C101   C     0.97552   0.52411   0.27009   0.00000  Uiso   1.00
C102   C     0.57716   0.78122   0.97555   0.00000  Uiso   1.00
C103   C     0.59167   0.85057   0.95203   0.00000  Uiso   1.00
C104   C     0.57724   0.92002   0.97555   0.00000  Uiso   1.00
C105   C     0.56329   0.04809   0.99832   0.00000  Uiso   1.00
C106   C     0.53750   0.69875   0.04008   0.00000  Uiso   1.00
C107   C     0.45190   0.65750   0.95681   0.00000  Uiso   1.00
C108   C     0.35559   0.62281   0.92641   0.00000  Uiso   1.00
C109   C     0.28810   0.58807   0.84889   0.00000  Uiso   1.00
C110   C     0.64658   0.65751   0.08515   0.00000  Uiso   1.00
C111   C     0.71396   0.62284   0.16266   0.00000  Uiso   1.00
C112   C     0.81037   0.58812   0.19319   0.00000  Uiso   1.00
C113   C     0.54923   0.78123   0.02098   0.00000  Uiso   1.00
C114   C     0.53479   0.85057   0.04455   0.00000  Uiso   1.00
C115   C     0.54928   0.92002   0.02106   0.00000  Uiso   1.00
H116   H     0.61064   0.69874   0.92109   0.00000  Uiso   1.00
H117   H     0.43410   0.62281   0.79876   0.00000  Uiso   1.00
H118   H     0.79242   0.62286   0.03498   0.00000  Uiso   1.00
H119   H     0.61328   0.85055   0.91688   0.00000  Uiso   1.00
H120   H     0.22609   0.53860   0.68318   0.00000  Uiso   1.00
H121   H     0.98163   0.53872   0.18127   0.00000  Uiso   1.00
H122   H     0.60389   0.01886   0.93224   0.00000  Uiso   1.00
H123   H     0.51576   0.69875   0.07545   0.00000  Uiso   1.00
H124   H     0.33401   0.62282   0.96158   0.00000  Uiso   1.00
H125   H     0.69233   0.62286   0.19780   0.00000  Uiso   1.00
H126   H     0.51319   0.85055   0.07970   0.00000  Uiso   1.00
H127   H     0.14485   0.53861   0.81533   0.00000  Uiso   1.00
H128   H     0.90040   0.53872   0.31342   0.00000  Uiso   1.00
H129   H     0.52265   0.01886   0.06439   0.00000  Uiso   1.00
O130   O     0.06764   0.48863   0.67158   0.00000  Uiso   1.00
O131   O     0.05890   0.48880   0.32506   0.00000  Uiso   1.00
O132   O     0.56329   0.11873   0.99833   0.00000  Uiso   1.00
N133   N     0.23190   0.54904   0.72990   0.00000  Uiso   1.00
N134   N     0.93828   0.54913   0.19558   0.00000  Uiso   1.00
N135   N     0.58515   0.99803   0.96277   0.00000  Uiso   1.00
N136   N     0.18819   0.54904   0.80101   0.00000  Uiso   1.00
N137   N     0.89457   0.54913   0.26669   0.00000  Uiso   1.00
N138   N     0.54144   0.99803   0.03388   0.00000  Uiso   1.00
C139   C     0.08890   0.19875   0.95645   0.00000  Uiso   1.00
C140   C     0.97982   0.15750   0.91139   0.00000  Uiso   1.00
C141   C     0.91246   0.12281   0.83389   0.00000  Uiso   1.00
C142   C     0.81608   0.08807   0.80338   0.00000  Uiso   1.00
C143   C     0.65098   0.02399   0.72652   0.00000  Uiso   1.00
C144   C     0.17450   0.15751   0.03973   0.00000  Uiso   1.00
C145   C     0.27083   0.12284   0.07014   0.00000  Uiso   1.00
C146   C     0.33833   0.08812   0.14768   0.00000  Uiso   1.00
C147   C     0.47552   0.02411   0.27009   0.00000  Uiso   1.00
C148   C     0.07716   0.28122   0.97555   0.00000  Uiso   1.00
C149   C     0.09167   0.35057   0.95203   0.00000  Uiso   1.00
C150   C     0.07724   0.42002   0.97555   0.00000  Uiso   1.00
C151   C     0.06329   0.54809   0.99832   0.00000  Uiso   1.00
C152   C     0.03750   0.19875   0.04008   0.00000  Uiso   1.00
C153   C     0.95190   0.15750   0.95681   0.00000  Uiso   1.00
C154   C     0.85559   0.12281   0.92641   0.00000  Uiso   1.00
C155   C     0.78810   0.08807   0.84889   0.00000  Uiso   1.00
C156   C     0.14658   0.15751   0.08515   0.00000  Uiso   1.00
C157   C     0.21396   0.12284   0.16266   0.00000  Uiso   1.00
C158   C     0.31037   0.08812   0.19319   0.00000  Uiso   1.00
C159   C     0.04923   0.28123   0.02098   0.00000  Uiso   1.00
C160   C     0.03479   0.35057   0.04455   0.00000  Uiso   1.00
C161   C     0.04928   0.42002   0.02106   0.00000  Uiso   1.00
H162   H     0.11064   0.19874   0.92109   0.00000  Uiso   1.00
H163   H     0.93410   0.12281   0.79876   0.00000  Uiso   1.00
H164   H     0.29242   0.12286   0.03498   0.00000  Uiso   1.00
H165   H     0.11328   0.35055   0.91688   0.00000  Uiso   1.00
H166   H     0.72609   0.03860   0.68318   0.00000  Uiso   1.00
H167   H     0.48163   0.03872   0.18127   0.00000  Uiso   1.00
H168   H     0.10389   0.51886   0.93224   0.00000  Uiso   1.00
H169   H     0.01576   0.19875   0.07545   0.00000  Uiso   1.00
H170   H     0.83401   0.12282   0.96158   0.00000  Uiso   1.00
H171   H     0.19233   0.12286   0.19780   0.00000  Uiso   1.00
H172   H     0.01319   0.35055   0.07970   0.00000  Uiso   1.00
H173   H     0.64485   0.03861   0.81533   0.00000  Uiso   1.00
H174   H     0.40040   0.03872   0.31342   0.00000  Uiso   1.00
H175   H     0.02265   0.51886   0.06439   0.00000  Uiso   1.00
O176   O     0.56764   0.98863   0.67158   0.00000  Uiso   1.00
O177   O     0.55890   0.98880   0.32506   0.00000  Uiso   1.00
O178   O     0.06329   0.61873   0.99833   0.00000  Uiso   1.00
N179   N     0.73190   0.04904   0.72990   0.00000  Uiso   1.00
N180   N     0.43828   0.04913   0.19558   0.00000  Uiso   1.00
N181   N     0.08515   0.49803   0.96277   0.00000  Uiso   1.00
N182   N     0.68819   0.04904   0.80101   0.00000  Uiso   1.00
N183   N     0.39457   0.04913   0.26669   0.00000  Uiso   1.00
N184   N     0.04144   0.49803   0.03388   0.00000  Uiso   1.00
