data_job_02507
_audit_creation_date              2018-12-19
_audit_creation_method            'Materials Studio'
_symmetry_space_group_name_H-M    'P1'
_symmetry_Int_Tables_number       1
_symmetry_cell_setting            triclinic
loop_
_symmetry_equiv_pos_as_xyz
  x,y,z
_cell_length_a                    36.2448
_cell_length_b                    36.2448
_cell_length_c                    7.2446
_cell_angle_alpha                 90.0000
_cell_angle_beta                  90.0000
_cell_angle_gamma                 90.0000
loop_
_atom_site_label
_atom_site_type_symbol
_atom_site_fract_x
_atom_site_fract_y
_atom_site_fract_z
_atom_site_U_iso_or_equiv
_atom_site_adp_type
_atom_site_occupancy
C1     C     0.29181   0.35124   0.92865   0.00000  Uiso   1.00
C2     C     0.32676   0.33519   0.84327   0.00000  Uiso   1.00
C3     C     0.35665   0.32109   0.94002   0.00000  Uiso   1.00
C4     C     0.38598   0.30770   0.83655   0.00000  Uiso   1.00
C5     C     0.44034   0.28269   0.73338   0.00000  Uiso   1.00
C6     C     0.28814   0.39018   0.85114   0.00000  Uiso   1.00
C7     C     0.28555   0.42231   0.95451   0.00000  Uiso   1.00
C8     C     0.28236   0.45522   0.85766   0.00000  Uiso   1.00
C9     C     0.27673   0.51558   0.76671   0.00000  Uiso   1.00
C10    C     0.25981   0.32923   0.84771   0.00000  Uiso   1.00
C11    C     0.23340   0.31012   0.94819   0.00000  Uiso   1.00
C12    C     0.20636   0.29171   0.84844   0.00000  Uiso   1.00
C13    C     0.15675   0.25744   0.75216   0.00000  Uiso   1.00
C14    C     0.29075   0.35253   0.57285   0.00000  Uiso   1.00
C15    C     0.32618   0.33589   0.65001   0.00000  Uiso   1.00
C16    C     0.35548   0.32252   0.54637   0.00000  Uiso   1.00
C17    C     0.38540   0.30840   0.64295   0.00000  Uiso   1.00
C18    C     0.28756   0.39088   0.65789   0.00000  Uiso   1.00
C19    C     0.28438   0.42375   0.56086   0.00000  Uiso   1.00
C20    C     0.28179   0.45592   0.66405   0.00000  Uiso   1.00
C21    C     0.25924   0.32993   0.65445   0.00000  Uiso   1.00
C22    C     0.23223   0.31155   0.55453   0.00000  Uiso   1.00
C23    C     0.20578   0.29242   0.65484   0.00000  Uiso   1.00
H24    H     0.29226   0.35069   0.07910   0.00000  Uiso   1.00
H25    H     0.35708   0.32055   0.08958   0.00000  Uiso   1.00
H26    H     0.28599   0.42176   0.10406   0.00000  Uiso   1.00
H27    H     0.23385   0.30959   0.09773   0.00000  Uiso   1.00
H28    H     0.42871   0.28746   0.01596   0.00000  Uiso   1.00
H29    H     0.27879   0.50086   0.04651   0.00000  Uiso   1.00
H30    H     0.16884   0.26432   0.03317   0.00000  Uiso   1.00
H31    H     0.29030   0.35308   0.42239   0.00000  Uiso   1.00
H32    H     0.35503   0.32307   0.39682   0.00000  Uiso   1.00
H33    H     0.28393   0.42428   0.41131   0.00000  Uiso   1.00
H34    H     0.23179   0.31210   0.40498   0.00000  Uiso   1.00
H35    H     0.42704   0.28951   0.45369   0.00000  Uiso   1.00
H36    H     0.27712   0.50291   0.48424   0.00000  Uiso   1.00
H37    H     0.16717   0.26636   0.47090   0.00000  Uiso   1.00
O38    O     0.47049   0.26871   0.72986   0.00000  Uiso   1.00
O39    O     0.27379   0.54868   0.76994   0.00000  Uiso   1.00
O40    O     0.12955   0.23834   0.75244   0.00000  Uiso   1.00
N41    N     0.41943   0.29205   0.88714   0.00000  Uiso   1.00
N42    N     0.27927   0.49157   0.91570   0.00000  Uiso   1.00
N43    N     0.17647   0.27043   0.90323   0.00000  Uiso   1.00
N44    N     0.41853   0.29315   0.58459   0.00000  Uiso   1.00
N45    N     0.27837   0.49267   0.61315   0.00000  Uiso   1.00
N46    N     0.17557   0.27153   0.60068   0.00000  Uiso   1.00
C47    C     0.70819   0.64876   0.92865   0.00000  Uiso   1.00
C48    C     0.67324   0.66481   0.84327   0.00000  Uiso   1.00
C49    C     0.64335   0.67891   0.94002   0.00000  Uiso   1.00
C50    C     0.61402   0.69230   0.83655   0.00000  Uiso   1.00
C51    C     0.55966   0.71731   0.73338   0.00000  Uiso   1.00
C52    C     0.71186   0.60982   0.85114   0.00000  Uiso   1.00
C53    C     0.71445   0.57769   0.95451   0.00000  Uiso   1.00
C54    C     0.71764   0.54478   0.85766   0.00000  Uiso   1.00
C55    C     0.72327   0.48442   0.76671   0.00000  Uiso   1.00
C56    C     0.74019   0.67077   0.84771   0.00000  Uiso   1.00
C57    C     0.76660   0.68988   0.94819   0.00000  Uiso   1.00
C58    C     0.79364   0.70829   0.84844   0.00000  Uiso   1.00
C59    C     0.84325   0.74256   0.75216   0.00000  Uiso   1.00
C60    C     0.70925   0.64747   0.57285   0.00000  Uiso   1.00
C61    C     0.67382   0.66411   0.65001   0.00000  Uiso   1.00
C62    C     0.64452   0.67748   0.54637   0.00000  Uiso   1.00
C63    C     0.61460   0.69160   0.64295   0.00000  Uiso   1.00
C64    C     0.71244   0.60912   0.65789   0.00000  Uiso   1.00
C65    C     0.71562   0.57625   0.56086   0.00000  Uiso   1.00
C66    C     0.71821   0.54408   0.66405   0.00000  Uiso   1.00
C67    C     0.74076   0.67007   0.65445   0.00000  Uiso   1.00
C68    C     0.76777   0.68845   0.55453   0.00000  Uiso   1.00
C69    C     0.79422   0.70758   0.65484   0.00000  Uiso   1.00
H70    H     0.70774   0.64931   0.07910   0.00000  Uiso   1.00
H71    H     0.64292   0.67945   0.08958   0.00000  Uiso   1.00
H72    H     0.71401   0.57824   0.10406   0.00000  Uiso   1.00
H73    H     0.76615   0.69041   0.09773   0.00000  Uiso   1.00
H74    H     0.57129   0.71254   0.01596   0.00000  Uiso   1.00
H75    H     0.72121   0.49914   0.04651   0.00000  Uiso   1.00
H76    H     0.83116   0.73568   0.03317   0.00000  Uiso   1.00
H77    H     0.70970   0.64692   0.42239   0.00000  Uiso   1.00
H78    H     0.64497   0.67693   0.39682   0.00000  Uiso   1.00
H79    H     0.71607   0.57572   0.41131   0.00000  Uiso   1.00
H80    H     0.76821   0.68790   0.40498   0.00000  Uiso   1.00
H81    H     0.57296   0.71049   0.45369   0.00000  Uiso   1.00
H82    H     0.72288   0.49709   0.48424   0.00000  Uiso   1.00
H83    H     0.83283   0.73364   0.47090   0.00000  Uiso   1.00
O84    O     0.52951   0.73129   0.72986   0.00000  Uiso   1.00
O85    O     0.72621   0.45132   0.76994   0.00000  Uiso   1.00
O86    O     0.87045   0.76166   0.75244   0.00000  Uiso   1.00
N87    N     0.58057   0.70795   0.88714   0.00000  Uiso   1.00
N88    N     0.72073   0.50843   0.91570   0.00000  Uiso   1.00
N89    N     0.82353   0.72957   0.90323   0.00000  Uiso   1.00
N90    N     0.58147   0.70685   0.58459   0.00000  Uiso   1.00
N91    N     0.72163   0.50733   0.61315   0.00000  Uiso   1.00
N92    N     0.82443   0.72847   0.60068   0.00000  Uiso   1.00
C93    C     0.14876   0.79181   0.92865   0.00000  Uiso   1.00
C94    C     0.16481   0.82676   0.84327   0.00000  Uiso   1.00
C95    C     0.17891   0.85665   0.94002   0.00000  Uiso   1.00
C96    C     0.19230   0.88598   0.83655   0.00000  Uiso   1.00
C97    C     0.21731   0.94034   0.73338   0.00000  Uiso   1.00
C98    C     0.10982   0.78814   0.85114   0.00000  Uiso   1.00
C99    C     0.07769   0.78555   0.95451   0.00000  Uiso   1.00
C100   C     0.04478   0.78236   0.85766   0.00000  Uiso   1.00
C101   C     0.98442   0.77673   0.76671   0.00000  Uiso   1.00
C102   C     0.17077   0.75981   0.84771   0.00000  Uiso   1.00
C103   C     0.18988   0.73340   0.94819   0.00000  Uiso   1.00
C104   C     0.20829   0.70636   0.84844   0.00000  Uiso   1.00
C105   C     0.24256   0.65675   0.75216   0.00000  Uiso   1.00
C106   C     0.14747   0.79075   0.57285   0.00000  Uiso   1.00
C107   C     0.16411   0.82618   0.65001   0.00000  Uiso   1.00
C108   C     0.17748   0.85548   0.54637   0.00000  Uiso   1.00
C109   C     0.19160   0.88540   0.64295   0.00000  Uiso   1.00
C110   C     0.10912   0.78756   0.65789   0.00000  Uiso   1.00
C111   C     0.07625   0.78438   0.56086   0.00000  Uiso   1.00
C112   C     0.04408   0.78179   0.66405   0.00000  Uiso   1.00
C113   C     0.17007   0.75924   0.65445   0.00000  Uiso   1.00
C114   C     0.18845   0.73223   0.55453   0.00000  Uiso   1.00
C115   C     0.20758   0.70578   0.65484   0.00000  Uiso   1.00
H116   H     0.14931   0.79226   0.07910   0.00000  Uiso   1.00
H117   H     0.17945   0.85708   0.08958   0.00000  Uiso   1.00
H118   H     0.07824   0.78599   0.10406   0.00000  Uiso   1.00
H119   H     0.19041   0.73385   0.09773   0.00000  Uiso   1.00
H120   H     0.21254   0.92871   0.01596   0.00000  Uiso   1.00
H121   H     0.99914   0.77879   0.04651   0.00000  Uiso   1.00
H122   H     0.23568   0.66884   0.03317   0.00000  Uiso   1.00
H123   H     0.14692   0.79030   0.42239   0.00000  Uiso   1.00
H124   H     0.17693   0.85503   0.39682   0.00000  Uiso   1.00
H125   H     0.07572   0.78393   0.41131   0.00000  Uiso   1.00
H126   H     0.18790   0.73179   0.40498   0.00000  Uiso   1.00
H127   H     0.21049   0.92704   0.45369   0.00000  Uiso   1.00
H128   H     0.99709   0.77712   0.48424   0.00000  Uiso   1.00
H129   H     0.23364   0.66717   0.47090   0.00000  Uiso   1.00
O130   O     0.23129   0.97049   0.72986   0.00000  Uiso   1.00
O131   O     0.95132   0.77379   0.76994   0.00000  Uiso   1.00
O132   O     0.26166   0.62955   0.75244   0.00000  Uiso   1.00
N133   N     0.20795   0.91943   0.88714   0.00000  Uiso   1.00
N134   N     0.00843   0.77927   0.91570   0.00000  Uiso   1.00
N135   N     0.22957   0.67647   0.90323   0.00000  Uiso   1.00
N136   N     0.20685   0.91853   0.58459   0.00000  Uiso   1.00
N137   N     0.00733   0.77837   0.61315   0.00000  Uiso   1.00
N138   N     0.22847   0.67557   0.60068   0.00000  Uiso   1.00
C139   C     0.85124   0.20819   0.92865   0.00000  Uiso   1.00
C140   C     0.83519   0.17324   0.84327   0.00000  Uiso   1.00
C141   C     0.82109   0.14335   0.94002   0.00000  Uiso   1.00
C142   C     0.80770   0.11402   0.83655   0.00000  Uiso   1.00
C143   C     0.78269   0.05966   0.73338   0.00000  Uiso   1.00
C144   C     0.89018   0.21186   0.85114   0.00000  Uiso   1.00
C145   C     0.92231   0.21445   0.95451   0.00000  Uiso   1.00
C146   C     0.95522   0.21764   0.85766   0.00000  Uiso   1.00
C147   C     0.01558   0.22327   0.76671   0.00000  Uiso   1.00
C148   C     0.82923   0.24019   0.84771   0.00000  Uiso   1.00
C149   C     0.81012   0.26660   0.94819   0.00000  Uiso   1.00
C150   C     0.79171   0.29364   0.84844   0.00000  Uiso   1.00
C151   C     0.75744   0.34325   0.75216   0.00000  Uiso   1.00
C152   C     0.85253   0.20925   0.57285   0.00000  Uiso   1.00
C153   C     0.83589   0.17382   0.65001   0.00000  Uiso   1.00
C154   C     0.82252   0.14452   0.54637   0.00000  Uiso   1.00
C155   C     0.80840   0.11460   0.64295   0.00000  Uiso   1.00
C156   C     0.89088   0.21244   0.65789   0.00000  Uiso   1.00
C157   C     0.92375   0.21562   0.56086   0.00000  Uiso   1.00
C158   C     0.95592   0.21821   0.66405   0.00000  Uiso   1.00
C159   C     0.82993   0.24076   0.65445   0.00000  Uiso   1.00
C160   C     0.81155   0.26777   0.55453   0.00000  Uiso   1.00
C161   C     0.79242   0.29422   0.65484   0.00000  Uiso   1.00
H162   H     0.85069   0.20774   0.07910   0.00000  Uiso   1.00
H163   H     0.82055   0.14292   0.08958   0.00000  Uiso   1.00
H164   H     0.92176   0.21401   0.10406   0.00000  Uiso   1.00
H165   H     0.80959   0.26615   0.09773   0.00000  Uiso   1.00
H166   H     0.78746   0.07129   0.01596   0.00000  Uiso   1.00
H167   H     0.00086   0.22121   0.04651   0.00000  Uiso   1.00
H168   H     0.76432   0.33116   0.03317   0.00000  Uiso   1.00
H169   H     0.85308   0.20970   0.42239   0.00000  Uiso   1.00
H170   H     0.82307   0.14497   0.39682   0.00000  Uiso   1.00
H171   H     0.92428   0.21607   0.41131   0.00000  Uiso   1.00
H172   H     0.81210   0.26821   0.40498   0.00000  Uiso   1.00
H173   H     0.78951   0.07296   0.45369   0.00000  Uiso   1.00
H174   H     0.00291   0.22288   0.48424   0.00000  Uiso   1.00
H175   H     0.76636   0.33283   0.47090   0.00000  Uiso   1.00
O176   O     0.76871   0.02951   0.72986   0.00000  Uiso   1.00
O177   O     0.04868   0.22621   0.76994   0.00000  Uiso   1.00
O178   O     0.73834   0.37045   0.75244   0.00000  Uiso   1.00
N179   N     0.79205   0.08057   0.88714   0.00000  Uiso   1.00
N180   N     0.99157   0.22073   0.91570   0.00000  Uiso   1.00
N181   N     0.77043   0.32353   0.90323   0.00000  Uiso   1.00
N182   N     0.79315   0.08147   0.58459   0.00000  Uiso   1.00
N183   N     0.99267   0.22163   0.61315   0.00000  Uiso   1.00
N184   N     0.77153   0.32443   0.60068   0.00000  Uiso   1.00
C185   C     0.20819   0.14876   0.07135   0.00000  Uiso   1.00
C186   C     0.17324   0.16481   0.15673   0.00000  Uiso   1.00
C187   C     0.14335   0.17891   0.05998   0.00000  Uiso   1.00
C188   C     0.11402   0.19230   0.16345   0.00000  Uiso   1.00
C189   C     0.05966   0.21731   0.26662   0.00000  Uiso   1.00
C190   C     0.21186   0.10982   0.14886   0.00000  Uiso   1.00
C191   C     0.21445   0.07769   0.04549   0.00000  Uiso   1.00
C192   C     0.21764   0.04478   0.14234   0.00000  Uiso   1.00
C193   C     0.22327   0.98442   0.23329   0.00000  Uiso   1.00
C194   C     0.24019   0.17077   0.15229   0.00000  Uiso   1.00
C195   C     0.26660   0.18988   0.05181   0.00000  Uiso   1.00
C196   C     0.29364   0.20829   0.15156   0.00000  Uiso   1.00
C197   C     0.34325   0.24256   0.24784   0.00000  Uiso   1.00
C198   C     0.20925   0.14747   0.42715   0.00000  Uiso   1.00
C199   C     0.17382   0.16411   0.34999   0.00000  Uiso   1.00
C200   C     0.14452   0.17748   0.45363   0.00000  Uiso   1.00
C201   C     0.11460   0.19160   0.35705   0.00000  Uiso   1.00
C202   C     0.21244   0.10912   0.34211   0.00000  Uiso   1.00
C203   C     0.21562   0.07625   0.43914   0.00000  Uiso   1.00
C204   C     0.21821   0.04408   0.33595   0.00000  Uiso   1.00
C205   C     0.24076   0.17007   0.34555   0.00000  Uiso   1.00
C206   C     0.26777   0.18845   0.44547   0.00000  Uiso   1.00
C207   C     0.29422   0.20758   0.34516   0.00000  Uiso   1.00
H208   H     0.20774   0.14931   0.92090   0.00000  Uiso   1.00
H209   H     0.14292   0.17945   0.91042   0.00000  Uiso   1.00
H210   H     0.21401   0.07824   0.89594   0.00000  Uiso   1.00
H211   H     0.26615   0.19041   0.90227   0.00000  Uiso   1.00
H212   H     0.07129   0.21254   0.98404   0.00000  Uiso   1.00
H213   H     0.22121   0.99914   0.95349   0.00000  Uiso   1.00
H214   H     0.33116   0.23568   0.96683   0.00000  Uiso   1.00
H215   H     0.20970   0.14692   0.57761   0.00000  Uiso   1.00
H216   H     0.14497   0.17693   0.60318   0.00000  Uiso   1.00
H217   H     0.21607   0.07572   0.58869   0.00000  Uiso   1.00
H218   H     0.26821   0.18790   0.59502   0.00000  Uiso   1.00
H219   H     0.07296   0.21049   0.54631   0.00000  Uiso   1.00
H220   H     0.22288   0.99709   0.51576   0.00000  Uiso   1.00
H221   H     0.33283   0.23364   0.52910   0.00000  Uiso   1.00
O222   O     0.02951   0.23129   0.27014   0.00000  Uiso   1.00
O223   O     0.22621   0.95132   0.23006   0.00000  Uiso   1.00
O224   O     0.37045   0.26166   0.24756   0.00000  Uiso   1.00
N225   N     0.08057   0.20795   0.11286   0.00000  Uiso   1.00
N226   N     0.22073   0.00843   0.08430   0.00000  Uiso   1.00
N227   N     0.32353   0.22957   0.09677   0.00000  Uiso   1.00
N228   N     0.08147   0.20685   0.41541   0.00000  Uiso   1.00
N229   N     0.22163   0.00733   0.38685   0.00000  Uiso   1.00
N230   N     0.32443   0.22847   0.39932   0.00000  Uiso   1.00
C231   C     0.79181   0.85124   0.07135   0.00000  Uiso   1.00
C232   C     0.82676   0.83519   0.15673   0.00000  Uiso   1.00
C233   C     0.85665   0.82109   0.05998   0.00000  Uiso   1.00
C234   C     0.88598   0.80770   0.16345   0.00000  Uiso   1.00
C235   C     0.94034   0.78269   0.26662   0.00000  Uiso   1.00
C236   C     0.78814   0.89018   0.14886   0.00000  Uiso   1.00
C237   C     0.78555   0.92231   0.04549   0.00000  Uiso   1.00
C238   C     0.78236   0.95522   0.14234   0.00000  Uiso   1.00
C239   C     0.77673   0.01558   0.23329   0.00000  Uiso   1.00
C240   C     0.75981   0.82923   0.15229   0.00000  Uiso   1.00
C241   C     0.73340   0.81012   0.05181   0.00000  Uiso   1.00
C242   C     0.70636   0.79171   0.15156   0.00000  Uiso   1.00
C243   C     0.65675   0.75744   0.24784   0.00000  Uiso   1.00
C244   C     0.79075   0.85253   0.42715   0.00000  Uiso   1.00
C245   C     0.82618   0.83589   0.34999   0.00000  Uiso   1.00
C246   C     0.85548   0.82252   0.45363   0.00000  Uiso   1.00
C247   C     0.88540   0.80840   0.35705   0.00000  Uiso   1.00
C248   C     0.78756   0.89088   0.34211   0.00000  Uiso   1.00
C249   C     0.78438   0.92375   0.43914   0.00000  Uiso   1.00
C250   C     0.78179   0.95592   0.33595   0.00000  Uiso   1.00
C251   C     0.75924   0.82993   0.34555   0.00000  Uiso   1.00
C252   C     0.73223   0.81155   0.44547   0.00000  Uiso   1.00
C253   C     0.70578   0.79242   0.34516   0.00000  Uiso   1.00
H254   H     0.79226   0.85069   0.92090   0.00000  Uiso   1.00
H255   H     0.85708   0.82055   0.91042   0.00000  Uiso   1.00
H256   H     0.78599   0.92176   0.89594   0.00000  Uiso   1.00
H257   H     0.73385   0.80959   0.90227   0.00000  Uiso   1.00
H258   H     0.92871   0.78746   0.98404   0.00000  Uiso   1.00
H259   H     0.77879   0.00086   0.95349   0.00000  Uiso   1.00
H260   H     0.66884   0.76432   0.96683   0.00000  Uiso   1.00
H261   H     0.79030   0.85308   0.57761   0.00000  Uiso   1.00
H262   H     0.85503   0.82307   0.60318   0.00000  Uiso   1.00
H263   H     0.78393   0.92428   0.58869   0.00000  Uiso   1.00
H264   H     0.73179   0.81210   0.59502   0.00000  Uiso   1.00
H265   H     0.92704   0.78951   0.54631   0.00000  Uiso   1.00
H266   H     0.77712   0.00291   0.51576   0.00000  Uiso   1.00
H267   H     0.66717   0.76636   0.52910   0.00000  Uiso   1.00
O268   O     0.97049   0.76871   0.27014   0.00000  Uiso   1.00
O269   O     0.77379   0.04868   0.23006   0.00000  Uiso   1.00
O270   O     0.62955   0.73834   0.24756   0.00000  Uiso   1.00
N271   N     0.91943   0.79205   0.11286   0.00000  Uiso   1.00
N272   N     0.77927   0.99157   0.08430   0.00000  Uiso   1.00
N273   N     0.67647   0.77043   0.09677   0.00000  Uiso   1.00
N274   N     0.91853   0.79315   0.41541   0.00000  Uiso   1.00
N275   N     0.77837   0.99267   0.38685   0.00000  Uiso   1.00
N276   N     0.67557   0.77153   0.39932   0.00000  Uiso   1.00
C277   C     0.35124   0.70819   0.07135   0.00000  Uiso   1.00
C278   C     0.33519   0.67324   0.15673   0.00000  Uiso   1.00
C279   C     0.32109   0.64335   0.05998   0.00000  Uiso   1.00
C280   C     0.30770   0.61402   0.16345   0.00000  Uiso   1.00
C281   C     0.28269   0.55966   0.26662   0.00000  Uiso   1.00
C282   C     0.39018   0.71186   0.14886   0.00000  Uiso   1.00
C283   C     0.42231   0.71445   0.04549   0.00000  Uiso   1.00
C284   C     0.45522   0.71764   0.14234   0.00000  Uiso   1.00
C285   C     0.51558   0.72327   0.23329   0.00000  Uiso   1.00
C286   C     0.32923   0.74019   0.15229   0.00000  Uiso   1.00
C287   C     0.31012   0.76660   0.05181   0.00000  Uiso   1.00
C288   C     0.29171   0.79364   0.15156   0.00000  Uiso   1.00
C289   C     0.25744   0.84325   0.24784   0.00000  Uiso   1.00
C290   C     0.35253   0.70925   0.42715   0.00000  Uiso   1.00
C291   C     0.33589   0.67382   0.34999   0.00000  Uiso   1.00
C292   C     0.32252   0.64452   0.45363   0.00000  Uiso   1.00
C293   C     0.30840   0.61460   0.35705   0.00000  Uiso   1.00
C294   C     0.39088   0.71244   0.34211   0.00000  Uiso   1.00
C295   C     0.42375   0.71562   0.43914   0.00000  Uiso   1.00
C296   C     0.45592   0.71821   0.33595   0.00000  Uiso   1.00
C297   C     0.32993   0.74076   0.34555   0.00000  Uiso   1.00
C298   C     0.31155   0.76777   0.44547   0.00000  Uiso   1.00
C299   C     0.29242   0.79422   0.34516   0.00000  Uiso   1.00
H300   H     0.35069   0.70774   0.92090   0.00000  Uiso   1.00
H301   H     0.32055   0.64292   0.91042   0.00000  Uiso   1.00
H302   H     0.42176   0.71401   0.89594   0.00000  Uiso   1.00
H303   H     0.30959   0.76615   0.90227   0.00000  Uiso   1.00
H304   H     0.28746   0.57129   0.98404   0.00000  Uiso   1.00
H305   H     0.50086   0.72121   0.95349   0.00000  Uiso   1.00
H306   H     0.26432   0.83116   0.96683   0.00000  Uiso   1.00
H307   H     0.35308   0.70970   0.57761   0.00000  Uiso   1.00
H308   H     0.32307   0.64497   0.60318   0.00000  Uiso   1.00
H309   H     0.42428   0.71607   0.58869   0.00000  Uiso   1.00
H310   H     0.31210   0.76821   0.59502   0.00000  Uiso   1.00
H311   H     0.28951   0.57296   0.54631   0.00000  Uiso   1.00
H312   H     0.50291   0.72288   0.51576   0.00000  Uiso   1.00
H313   H     0.26636   0.83283   0.52910   0.00000  Uiso   1.00
O314   O     0.26871   0.52951   0.27014   0.00000  Uiso   1.00
O315   O     0.54868   0.72621   0.23006   0.00000  Uiso   1.00
O316   O     0.23834   0.87045   0.24756   0.00000  Uiso   1.00
N317   N     0.29205   0.58057   0.11286   0.00000  Uiso   1.00
N318   N     0.49157   0.72073   0.08430   0.00000  Uiso   1.00
N319   N     0.27043   0.82353   0.09677   0.00000  Uiso   1.00
N320   N     0.29315   0.58147   0.41541   0.00000  Uiso   1.00
N321   N     0.49267   0.72163   0.38685   0.00000  Uiso   1.00
N322   N     0.27153   0.82443   0.39932   0.00000  Uiso   1.00
C323   C     0.64876   0.29181   0.07135   0.00000  Uiso   1.00
C324   C     0.66481   0.32676   0.15673   0.00000  Uiso   1.00
C325   C     0.67891   0.35665   0.05998   0.00000  Uiso   1.00
C326   C     0.69230   0.38598   0.16345   0.00000  Uiso   1.00
C327   C     0.71731   0.44034   0.26662   0.00000  Uiso   1.00
C328   C     0.60982   0.28814   0.14886   0.00000  Uiso   1.00
C329   C     0.57769   0.28555   0.04549   0.00000  Uiso   1.00
C330   C     0.54478   0.28236   0.14234   0.00000  Uiso   1.00
C331   C     0.48442   0.27673   0.23329   0.00000  Uiso   1.00
C332   C     0.67077   0.25981   0.15229   0.00000  Uiso   1.00
C333   C     0.68988   0.23340   0.05181   0.00000  Uiso   1.00
C334   C     0.70829   0.20636   0.15156   0.00000  Uiso   1.00
C335   C     0.74256   0.15675   0.24784   0.00000  Uiso   1.00
C336   C     0.64747   0.29075   0.42715   0.00000  Uiso   1.00
C337   C     0.66411   0.32618   0.34999   0.00000  Uiso   1.00
C338   C     0.67748   0.35548   0.45363   0.00000  Uiso   1.00
C339   C     0.69160   0.38540   0.35705   0.00000  Uiso   1.00
C340   C     0.60912   0.28756   0.34211   0.00000  Uiso   1.00
C341   C     0.57625   0.28438   0.43914   0.00000  Uiso   1.00
C342   C     0.54408   0.28179   0.33595   0.00000  Uiso   1.00
C343   C     0.67007   0.25924   0.34555   0.00000  Uiso   1.00
C344   C     0.68845   0.23223   0.44547   0.00000  Uiso   1.00
C345   C     0.70758   0.20578   0.34516   0.00000  Uiso   1.00
H346   H     0.64931   0.29226   0.92090   0.00000  Uiso   1.00
H347   H     0.67945   0.35708   0.91042   0.00000  Uiso   1.00
H348   H     0.57824   0.28599   0.89594   0.00000  Uiso   1.00
H349   H     0.69041   0.23385   0.90227   0.00000  Uiso   1.00
H350   H     0.71254   0.42871   0.98404   0.00000  Uiso   1.00
H351   H     0.49914   0.27879   0.95349   0.00000  Uiso   1.00
H352   H     0.73568   0.16884   0.96683   0.00000  Uiso   1.00
H353   H     0.64692   0.29030   0.57761   0.00000  Uiso   1.00
H354   H     0.67693   0.35503   0.60318   0.00000  Uiso   1.00
H355   H     0.57572   0.28393   0.58869   0.00000  Uiso   1.00
H356   H     0.68790   0.23179   0.59502   0.00000  Uiso   1.00
H357   H     0.71049   0.42704   0.54631   0.00000  Uiso   1.00
H358   H     0.49709   0.27712   0.51576   0.00000  Uiso   1.00
H359   H     0.73364   0.16717   0.52910   0.00000  Uiso   1.00
O360   O     0.73129   0.47049   0.27014   0.00000  Uiso   1.00
O361   O     0.45132   0.27379   0.23006   0.00000  Uiso   1.00
O362   O     0.76166   0.12955   0.24756   0.00000  Uiso   1.00
N363   N     0.70795   0.41943   0.11286   0.00000  Uiso   1.00
N364   N     0.50843   0.27927   0.08430   0.00000  Uiso   1.00
N365   N     0.72957   0.17647   0.09677   0.00000  Uiso   1.00
N366   N     0.70685   0.41853   0.41541   0.00000  Uiso   1.00
N367   N     0.50733   0.27837   0.38685   0.00000  Uiso   1.00
N368   N     0.72847   0.17557   0.39932   0.00000  Uiso   1.00
