data_job_02817
_audit_creation_date              2018-12-19
_audit_creation_method            'Materials Studio'
_symmetry_space_group_name_H-M    'P1'
_symmetry_Int_Tables_number       1
_symmetry_cell_setting            triclinic
loop_
_symmetry_equiv_pos_as_xyz
  x,y,z
_cell_length_a                    20.7293
_cell_length_b                    14.0331
_cell_length_c                    42.8512
_cell_angle_alpha                 90.0000
_cell_angle_beta                  131.6523
_cell_angle_gamma                 90.0000
loop_
_atom_site_label
_atom_site_type_symbol
_atom_site_fract_x
_atom_site_fract_y
_atom_site_fract_z
_atom_site_U_iso_or_equiv
_atom_site_adp_type
_atom_site_occupancy
C1     C     0.41857   0.23193   0.32813   0.00000  Uiso   1.00
C2     C     0.50796   0.20985   0.34381   0.00000  Uiso   1.00
C3     C     0.53713   0.23302   0.32352   0.00000  Uiso   1.00
C4     C     0.62099   0.20660   0.34300   0.00000  Uiso   1.00
C5     C     0.75175   0.17955   0.36150   0.00000  Uiso   1.00
C6     C     0.38078   0.13662   0.32625   0.00000  Uiso   1.00
C7     C     0.30302   0.09823   0.29120   0.00000  Uiso   1.00
C8     C     0.27982   0.01016   0.29590   0.00000  Uiso   1.00
C9     C     0.21310   0.86946   0.28714   0.00000  Uiso   1.00
C10    C     0.43349   0.28891   0.36274   0.00000  Uiso   1.00
C11    C     0.40004   0.37856   0.35837   0.00000  Uiso   1.00
C12    C     0.42120   0.41870   0.39378   0.00000  Uiso   1.00
C13    C     0.43632   0.51446   0.44169   0.00000  Uiso   1.00
C14    C     0.51562   0.14380   0.39878   0.00000  Uiso   1.00
C15    C     0.56066   0.16198   0.38219   0.00000  Uiso   1.00
C16    C     0.64451   0.13551   0.40170   0.00000  Uiso   1.00
C17    C     0.67380   0.15864   0.38145   0.00000  Uiso   1.00
C18    C     0.43349   0.08875   0.36462   0.00000  Uiso   1.00
C19    C     0.41040   0.00072   0.36937   0.00000  Uiso   1.00
C20    C     0.33263   0.96220   0.33434   0.00000  Uiso   1.00
C21    C     0.48620   0.24105   0.40112   0.00000  Uiso   1.00
C22    C     0.50741   0.28105   0.43654   0.00000  Uiso   1.00
C23    C     0.47400   0.37075   0.43223   0.00000  Uiso   1.00
H24    H     0.37753   0.26920   0.29825   0.00000  Uiso   1.00
H25    H     0.49632   0.27006   0.29382   0.00000  Uiso   1.00
H26    H     0.26224   0.13530   0.26151   0.00000  Uiso   1.00
H27    H     0.35925   0.41558   0.32867   0.00000  Uiso   1.00
H28    H     0.65125   0.24988   0.30583   0.00000  Uiso   1.00
H29    H     0.15767   0.96573   0.23770   0.00000  Uiso   1.00
H30    H     0.36222   0.55678   0.37932   0.00000  Uiso   1.00
H31    H     0.55666   0.10653   0.42866   0.00000  Uiso   1.00
H32    H     0.68528   0.09847   0.43140   0.00000  Uiso   1.00
H33    H     0.45120   0.96370   0.39908   0.00000  Uiso   1.00
H34    H     0.54821   0.24399   0.46624   0.00000  Uiso   1.00
H35    H     0.80462   0.11060   0.41749   0.00000  Uiso   1.00
H36    H     0.31104   0.82646   0.34936   0.00000  Uiso   1.00
H37    H     0.51559   0.41750   0.49097   0.00000  Uiso   1.00
O38    O     0.80930   0.17785   0.36110   0.00000  Uiso   1.00
O39    O     0.16174   0.80507   0.27171   0.00000  Uiso   1.00
O40    O     0.43011   0.58050   0.45751   0.00000  Uiso   1.00
N41    N     0.66970   0.21822   0.33174   0.00000  Uiso   1.00
N42    N     0.20824   0.95256   0.26804   0.00000  Uiso   1.00
N43    N     0.39946   0.50512   0.40043   0.00000  Uiso   1.00
N44    N     0.75223   0.14328   0.39183   0.00000  Uiso   1.00
N45    N     0.29077   0.87761   0.32812   0.00000  Uiso   1.00
N46    N     0.48199   0.43018   0.46052   0.00000  Uiso   1.00
C47    C     0.91857   0.73193   0.32813   0.00000  Uiso   1.00
C48    C     0.00796   0.70985   0.34381   0.00000  Uiso   1.00
C49    C     0.03713   0.73302   0.32352   0.00000  Uiso   1.00
C50    C     0.12099   0.70660   0.34300   0.00000  Uiso   1.00
C51    C     0.25175   0.67955   0.36150   0.00000  Uiso   1.00
C52    C     0.88078   0.63662   0.32625   0.00000  Uiso   1.00
C53    C     0.80302   0.59823   0.29120   0.00000  Uiso   1.00
C54    C     0.77982   0.51016   0.29590   0.00000  Uiso   1.00
C55    C     0.71310   0.36946   0.28714   0.00000  Uiso   1.00
C56    C     0.93349   0.78891   0.36274   0.00000  Uiso   1.00
C57    C     0.90004   0.87856   0.35837   0.00000  Uiso   1.00
C58    C     0.92120   0.91870   0.39378   0.00000  Uiso   1.00
C59    C     0.93632   0.01446   0.44169   0.00000  Uiso   1.00
C60    C     0.01562   0.64380   0.39878   0.00000  Uiso   1.00
C61    C     0.06066   0.66198   0.38219   0.00000  Uiso   1.00
C62    C     0.14451   0.63551   0.40170   0.00000  Uiso   1.00
C63    C     0.17380   0.65864   0.38145   0.00000  Uiso   1.00
C64    C     0.93349   0.58875   0.36462   0.00000  Uiso   1.00
C65    C     0.91040   0.50072   0.36937   0.00000  Uiso   1.00
C66    C     0.83263   0.46220   0.33434   0.00000  Uiso   1.00
C67    C     0.98620   0.74105   0.40112   0.00000  Uiso   1.00
C68    C     0.00741   0.78105   0.43654   0.00000  Uiso   1.00
C69    C     0.97400   0.87075   0.43223   0.00000  Uiso   1.00
H70    H     0.87753   0.76920   0.29825   0.00000  Uiso   1.00
H71    H     0.99632   0.77006   0.29382   0.00000  Uiso   1.00
H72    H     0.76224   0.63530   0.26151   0.00000  Uiso   1.00
H73    H     0.85925   0.91558   0.32867   0.00000  Uiso   1.00
H74    H     0.15125   0.74988   0.30583   0.00000  Uiso   1.00
H75    H     0.65767   0.46573   0.23770   0.00000  Uiso   1.00
H76    H     0.86222   0.05678   0.37932   0.00000  Uiso   1.00
H77    H     0.05666   0.60653   0.42866   0.00000  Uiso   1.00
H78    H     0.18528   0.59847   0.43140   0.00000  Uiso   1.00
H79    H     0.95120   0.46370   0.39908   0.00000  Uiso   1.00
H80    H     0.04821   0.74399   0.46624   0.00000  Uiso   1.00
H81    H     0.30462   0.61060   0.41749   0.00000  Uiso   1.00
H82    H     0.81104   0.32646   0.34936   0.00000  Uiso   1.00
H83    H     0.01559   0.91750   0.49097   0.00000  Uiso   1.00
O84    O     0.30930   0.67785   0.36110   0.00000  Uiso   1.00
O85    O     0.66174   0.30507   0.27171   0.00000  Uiso   1.00
O86    O     0.93011   0.08050   0.45751   0.00000  Uiso   1.00
N87    N     0.16970   0.71822   0.33174   0.00000  Uiso   1.00
N88    N     0.70824   0.45256   0.26804   0.00000  Uiso   1.00
N89    N     0.89946   0.00512   0.40043   0.00000  Uiso   1.00
N90    N     0.25223   0.64328   0.39183   0.00000  Uiso   1.00
N91    N     0.79077   0.37761   0.32812   0.00000  Uiso   1.00
N92    N     0.98199   0.93018   0.46052   0.00000  Uiso   1.00
C93    C     0.58143   0.23193   0.17187   0.00000  Uiso   1.00
C94    C     0.49204   0.20985   0.15619   0.00000  Uiso   1.00
C95    C     0.46287   0.23302   0.17648   0.00000  Uiso   1.00
C96    C     0.37901   0.20660   0.15700   0.00000  Uiso   1.00
C97    C     0.24825   0.17955   0.13850   0.00000  Uiso   1.00
C98    C     0.61922   0.13662   0.17375   0.00000  Uiso   1.00
C99    C     0.69698   0.09823   0.20880   0.00000  Uiso   1.00
C100   C     0.72018   0.01016   0.20410   0.00000  Uiso   1.00
C101   C     0.78690   0.86946   0.21286   0.00000  Uiso   1.00
C102   C     0.56651   0.28891   0.13726   0.00000  Uiso   1.00
C103   C     0.59996   0.37856   0.14163   0.00000  Uiso   1.00
C104   C     0.57880   0.41870   0.10622   0.00000  Uiso   1.00
C105   C     0.56368   0.51446   0.05831   0.00000  Uiso   1.00
C106   C     0.48438   0.14380   0.10122   0.00000  Uiso   1.00
C107   C     0.43934   0.16198   0.11781   0.00000  Uiso   1.00
C108   C     0.35549   0.13551   0.09830   0.00000  Uiso   1.00
C109   C     0.32620   0.15864   0.11855   0.00000  Uiso   1.00
C110   C     0.56651   0.08875   0.13538   0.00000  Uiso   1.00
C111   C     0.58960   0.00072   0.13063   0.00000  Uiso   1.00
C112   C     0.66737   0.96220   0.16566   0.00000  Uiso   1.00
C113   C     0.51380   0.24105   0.09888   0.00000  Uiso   1.00
C114   C     0.49259   0.28105   0.06346   0.00000  Uiso   1.00
C115   C     0.52600   0.37075   0.06777   0.00000  Uiso   1.00
H116   H     0.62247   0.26920   0.20175   0.00000  Uiso   1.00
H117   H     0.50368   0.27006   0.20618   0.00000  Uiso   1.00
H118   H     0.73776   0.13530   0.23849   0.00000  Uiso   1.00
H119   H     0.64075   0.41558   0.17133   0.00000  Uiso   1.00
H120   H     0.34875   0.24988   0.19417   0.00000  Uiso   1.00
H121   H     0.84233   0.96573   0.26230   0.00000  Uiso   1.00
H122   H     0.63778   0.55678   0.12068   0.00000  Uiso   1.00
H123   H     0.44334   0.10653   0.07134   0.00000  Uiso   1.00
H124   H     0.31472   0.09847   0.06860   0.00000  Uiso   1.00
H125   H     0.54880   0.96370   0.10092   0.00000  Uiso   1.00
H126   H     0.45179   0.24399   0.03376   0.00000  Uiso   1.00
H127   H     0.19538   0.11060   0.08251   0.00000  Uiso   1.00
H128   H     0.68896   0.82646   0.15064   0.00000  Uiso   1.00
H129   H     0.48441   0.41750   0.00903   0.00000  Uiso   1.00
O130   O     0.19070   0.17785   0.13890   0.00000  Uiso   1.00
O131   O     0.83826   0.80507   0.22829   0.00000  Uiso   1.00
O132   O     0.56989   0.58050   0.04249   0.00000  Uiso   1.00
N133   N     0.33030   0.21822   0.16826   0.00000  Uiso   1.00
N134   N     0.79176   0.95256   0.23196   0.00000  Uiso   1.00
N135   N     0.60054   0.50512   0.09957   0.00000  Uiso   1.00
N136   N     0.24777   0.14328   0.10817   0.00000  Uiso   1.00
N137   N     0.70923   0.87761   0.17188   0.00000  Uiso   1.00
N138   N     0.51801   0.43018   0.03948   0.00000  Uiso   1.00
C139   C     0.08143   0.73193   0.17187   0.00000  Uiso   1.00
C140   C     0.99204   0.70985   0.15619   0.00000  Uiso   1.00
C141   C     0.96287   0.73302   0.17648   0.00000  Uiso   1.00
C142   C     0.87901   0.70660   0.15700   0.00000  Uiso   1.00
C143   C     0.74825   0.67955   0.13850   0.00000  Uiso   1.00
C144   C     0.11922   0.63662   0.17375   0.00000  Uiso   1.00
C145   C     0.19698   0.59823   0.20880   0.00000  Uiso   1.00
C146   C     0.22018   0.51016   0.20410   0.00000  Uiso   1.00
C147   C     0.28690   0.36946   0.21286   0.00000  Uiso   1.00
C148   C     0.06651   0.78891   0.13726   0.00000  Uiso   1.00
C149   C     0.09996   0.87856   0.14163   0.00000  Uiso   1.00
C150   C     0.07880   0.91870   0.10622   0.00000  Uiso   1.00
C151   C     0.06368   0.01446   0.05831   0.00000  Uiso   1.00
C152   C     0.98438   0.64380   0.10122   0.00000  Uiso   1.00
C153   C     0.93934   0.66198   0.11781   0.00000  Uiso   1.00
C154   C     0.85549   0.63551   0.09830   0.00000  Uiso   1.00
C155   C     0.82620   0.65864   0.11855   0.00000  Uiso   1.00
C156   C     0.06651   0.58875   0.13538   0.00000  Uiso   1.00
C157   C     0.08960   0.50072   0.13063   0.00000  Uiso   1.00
C158   C     0.16737   0.46220   0.16566   0.00000  Uiso   1.00
C159   C     0.01380   0.74105   0.09888   0.00000  Uiso   1.00
C160   C     0.99259   0.78105   0.06346   0.00000  Uiso   1.00
C161   C     0.02600   0.87075   0.06777   0.00000  Uiso   1.00
H162   H     0.12247   0.76920   0.20175   0.00000  Uiso   1.00
H163   H     0.00368   0.77006   0.20618   0.00000  Uiso   1.00
H164   H     0.23776   0.63530   0.23849   0.00000  Uiso   1.00
H165   H     0.14075   0.91558   0.17133   0.00000  Uiso   1.00
H166   H     0.84875   0.74988   0.19417   0.00000  Uiso   1.00
H167   H     0.34233   0.46573   0.26230   0.00000  Uiso   1.00
H168   H     0.13778   0.05678   0.12068   0.00000  Uiso   1.00
H169   H     0.94334   0.60653   0.07134   0.00000  Uiso   1.00
H170   H     0.81472   0.59847   0.06860   0.00000  Uiso   1.00
H171   H     0.04880   0.46370   0.10092   0.00000  Uiso   1.00
H172   H     0.95179   0.74399   0.03376   0.00000  Uiso   1.00
H173   H     0.69538   0.61060   0.08251   0.00000  Uiso   1.00
H174   H     0.18896   0.32646   0.15064   0.00000  Uiso   1.00
H175   H     0.98441   0.91750   0.00903   0.00000  Uiso   1.00
O176   O     0.69070   0.67785   0.13890   0.00000  Uiso   1.00
O177   O     0.33826   0.30507   0.22829   0.00000  Uiso   1.00
O178   O     0.06989   0.08050   0.04249   0.00000  Uiso   1.00
N179   N     0.83030   0.71822   0.16826   0.00000  Uiso   1.00
N180   N     0.29176   0.45256   0.23196   0.00000  Uiso   1.00
N181   N     0.10054   0.00512   0.09957   0.00000  Uiso   1.00
N182   N     0.74777   0.64328   0.10817   0.00000  Uiso   1.00
N183   N     0.20923   0.37761   0.17188   0.00000  Uiso   1.00
N184   N     0.01801   0.93018   0.03948   0.00000  Uiso   1.00
C185   C     0.58143   0.76807   0.67187   0.00000  Uiso   1.00
C186   C     0.49204   0.79015   0.65619   0.00000  Uiso   1.00
C187   C     0.46287   0.76698   0.67648   0.00000  Uiso   1.00
C188   C     0.37901   0.79340   0.65700   0.00000  Uiso   1.00
C189   C     0.24825   0.82045   0.63850   0.00000  Uiso   1.00
C190   C     0.61922   0.86338   0.67375   0.00000  Uiso   1.00
C191   C     0.69698   0.90177   0.70880   0.00000  Uiso   1.00
C192   C     0.72018   0.98984   0.70410   0.00000  Uiso   1.00
C193   C     0.78690   0.13054   0.71286   0.00000  Uiso   1.00
C194   C     0.56651   0.71109   0.63726   0.00000  Uiso   1.00
C195   C     0.59996   0.62144   0.64163   0.00000  Uiso   1.00
C196   C     0.57880   0.58130   0.60622   0.00000  Uiso   1.00
C197   C     0.56368   0.48554   0.55831   0.00000  Uiso   1.00
C198   C     0.48438   0.85620   0.60122   0.00000  Uiso   1.00
C199   C     0.43934   0.83802   0.61781   0.00000  Uiso   1.00
C200   C     0.35549   0.86449   0.59830   0.00000  Uiso   1.00
C201   C     0.32620   0.84136   0.61855   0.00000  Uiso   1.00
C202   C     0.56651   0.91125   0.63538   0.00000  Uiso   1.00
C203   C     0.58960   0.99928   0.63063   0.00000  Uiso   1.00
C204   C     0.66737   0.03780   0.66566   0.00000  Uiso   1.00
C205   C     0.51380   0.75895   0.59888   0.00000  Uiso   1.00
C206   C     0.49259   0.71895   0.56346   0.00000  Uiso   1.00
C207   C     0.52600   0.62925   0.56777   0.00000  Uiso   1.00
H208   H     0.62247   0.73080   0.70175   0.00000  Uiso   1.00
H209   H     0.50368   0.72994   0.70618   0.00000  Uiso   1.00
H210   H     0.73776   0.86470   0.73849   0.00000  Uiso   1.00
H211   H     0.64075   0.58442   0.67133   0.00000  Uiso   1.00
H212   H     0.34875   0.75012   0.69417   0.00000  Uiso   1.00
H213   H     0.84233   0.03427   0.76230   0.00000  Uiso   1.00
H214   H     0.63778   0.44322   0.62068   0.00000  Uiso   1.00
H215   H     0.44334   0.89347   0.57134   0.00000  Uiso   1.00
H216   H     0.31472   0.90153   0.56860   0.00000  Uiso   1.00
H217   H     0.54880   0.03630   0.60092   0.00000  Uiso   1.00
H218   H     0.45179   0.75601   0.53376   0.00000  Uiso   1.00
H219   H     0.19538   0.88940   0.58251   0.00000  Uiso   1.00
H220   H     0.68896   0.17354   0.65064   0.00000  Uiso   1.00
H221   H     0.48441   0.58250   0.50903   0.00000  Uiso   1.00
O222   O     0.19070   0.82215   0.63890   0.00000  Uiso   1.00
O223   O     0.83826   0.19493   0.72829   0.00000  Uiso   1.00
O224   O     0.56989   0.41950   0.54249   0.00000  Uiso   1.00
N225   N     0.33030   0.78178   0.66826   0.00000  Uiso   1.00
N226   N     0.79176   0.04744   0.73196   0.00000  Uiso   1.00
N227   N     0.60054   0.49488   0.59957   0.00000  Uiso   1.00
N228   N     0.24777   0.85672   0.60817   0.00000  Uiso   1.00
N229   N     0.70923   0.12239   0.67188   0.00000  Uiso   1.00
N230   N     0.51801   0.56982   0.53948   0.00000  Uiso   1.00
C231   C     0.08143   0.26807   0.67187   0.00000  Uiso   1.00
C232   C     0.99204   0.29015   0.65619   0.00000  Uiso   1.00
C233   C     0.96287   0.26698   0.67648   0.00000  Uiso   1.00
C234   C     0.87901   0.29340   0.65700   0.00000  Uiso   1.00
C235   C     0.74825   0.32045   0.63850   0.00000  Uiso   1.00
C236   C     0.11922   0.36338   0.67375   0.00000  Uiso   1.00
C237   C     0.19698   0.40177   0.70880   0.00000  Uiso   1.00
C238   C     0.22018   0.48984   0.70410   0.00000  Uiso   1.00
C239   C     0.28690   0.63054   0.71286   0.00000  Uiso   1.00
C240   C     0.06651   0.21109   0.63726   0.00000  Uiso   1.00
C241   C     0.09996   0.12144   0.64163   0.00000  Uiso   1.00
C242   C     0.07880   0.08130   0.60622   0.00000  Uiso   1.00
C243   C     0.06368   0.98554   0.55831   0.00000  Uiso   1.00
C244   C     0.98438   0.35620   0.60122   0.00000  Uiso   1.00
C245   C     0.93934   0.33802   0.61781   0.00000  Uiso   1.00
C246   C     0.85549   0.36449   0.59830   0.00000  Uiso   1.00
C247   C     0.82620   0.34136   0.61855   0.00000  Uiso   1.00
C248   C     0.06651   0.41125   0.63538   0.00000  Uiso   1.00
C249   C     0.08960   0.49928   0.63063   0.00000  Uiso   1.00
C250   C     0.16737   0.53780   0.66566   0.00000  Uiso   1.00
C251   C     0.01380   0.25895   0.59888   0.00000  Uiso   1.00
C252   C     0.99259   0.21895   0.56346   0.00000  Uiso   1.00
C253   C     0.02600   0.12925   0.56777   0.00000  Uiso   1.00
H254   H     0.12247   0.23080   0.70175   0.00000  Uiso   1.00
H255   H     0.00368   0.22994   0.70618   0.00000  Uiso   1.00
H256   H     0.23776   0.36470   0.73849   0.00000  Uiso   1.00
H257   H     0.14075   0.08442   0.67133   0.00000  Uiso   1.00
H258   H     0.84875   0.25012   0.69417   0.00000  Uiso   1.00
H259   H     0.34233   0.53427   0.76230   0.00000  Uiso   1.00
H260   H     0.13778   0.94322   0.62068   0.00000  Uiso   1.00
H261   H     0.94334   0.39347   0.57134   0.00000  Uiso   1.00
H262   H     0.81472   0.40153   0.56860   0.00000  Uiso   1.00
H263   H     0.04880   0.53630   0.60092   0.00000  Uiso   1.00
H264   H     0.95179   0.25601   0.53376   0.00000  Uiso   1.00
H265   H     0.69538   0.38940   0.58251   0.00000  Uiso   1.00
H266   H     0.18896   0.67354   0.65064   0.00000  Uiso   1.00
H267   H     0.98441   0.08250   0.50903   0.00000  Uiso   1.00
O268   O     0.69070   0.32215   0.63890   0.00000  Uiso   1.00
O269   O     0.33826   0.69493   0.72829   0.00000  Uiso   1.00
O270   O     0.06989   0.91950   0.54249   0.00000  Uiso   1.00
N271   N     0.83030   0.28178   0.66826   0.00000  Uiso   1.00
N272   N     0.29176   0.54744   0.73196   0.00000  Uiso   1.00
N273   N     0.10054   0.99488   0.59957   0.00000  Uiso   1.00
N274   N     0.74777   0.35672   0.60817   0.00000  Uiso   1.00
N275   N     0.20923   0.62239   0.67188   0.00000  Uiso   1.00
N276   N     0.01801   0.06982   0.53948   0.00000  Uiso   1.00
C277   C     0.41857   0.76807   0.82813   0.00000  Uiso   1.00
C278   C     0.50796   0.79015   0.84381   0.00000  Uiso   1.00
C279   C     0.53713   0.76698   0.82352   0.00000  Uiso   1.00
C280   C     0.62099   0.79340   0.84300   0.00000  Uiso   1.00
C281   C     0.75175   0.82045   0.86150   0.00000  Uiso   1.00
C282   C     0.38078   0.86338   0.82625   0.00000  Uiso   1.00
C283   C     0.30302   0.90177   0.79120   0.00000  Uiso   1.00
C284   C     0.27982   0.98984   0.79590   0.00000  Uiso   1.00
C285   C     0.21310   0.13054   0.78714   0.00000  Uiso   1.00
C286   C     0.43349   0.71109   0.86274   0.00000  Uiso   1.00
C287   C     0.40004   0.62144   0.85837   0.00000  Uiso   1.00
C288   C     0.42120   0.58130   0.89378   0.00000  Uiso   1.00
C289   C     0.43632   0.48554   0.94169   0.00000  Uiso   1.00
C290   C     0.51562   0.85620   0.89878   0.00000  Uiso   1.00
C291   C     0.56066   0.83802   0.88219   0.00000  Uiso   1.00
C292   C     0.64451   0.86449   0.90170   0.00000  Uiso   1.00
C293   C     0.67380   0.84136   0.88145   0.00000  Uiso   1.00
C294   C     0.43349   0.91125   0.86462   0.00000  Uiso   1.00
C295   C     0.41040   0.99928   0.86937   0.00000  Uiso   1.00
C296   C     0.33263   0.03780   0.83434   0.00000  Uiso   1.00
C297   C     0.48620   0.75895   0.90112   0.00000  Uiso   1.00
C298   C     0.50741   0.71895   0.93654   0.00000  Uiso   1.00
C299   C     0.47400   0.62925   0.93223   0.00000  Uiso   1.00
H300   H     0.37753   0.73080   0.79825   0.00000  Uiso   1.00
H301   H     0.49632   0.72994   0.79382   0.00000  Uiso   1.00
H302   H     0.26224   0.86470   0.76151   0.00000  Uiso   1.00
H303   H     0.35925   0.58442   0.82867   0.00000  Uiso   1.00
H304   H     0.65125   0.75012   0.80583   0.00000  Uiso   1.00
H305   H     0.15767   0.03427   0.73770   0.00000  Uiso   1.00
H306   H     0.36222   0.44322   0.87932   0.00000  Uiso   1.00
H307   H     0.55666   0.89347   0.92866   0.00000  Uiso   1.00
H308   H     0.68528   0.90153   0.93140   0.00000  Uiso   1.00
H309   H     0.45120   0.03630   0.89908   0.00000  Uiso   1.00
H310   H     0.54821   0.75601   0.96624   0.00000  Uiso   1.00
H311   H     0.80462   0.88940   0.91749   0.00000  Uiso   1.00
H312   H     0.31104   0.17354   0.84936   0.00000  Uiso   1.00
H313   H     0.51559   0.58250   0.99097   0.00000  Uiso   1.00
O314   O     0.80930   0.82215   0.86110   0.00000  Uiso   1.00
O315   O     0.16174   0.19493   0.77171   0.00000  Uiso   1.00
O316   O     0.43011   0.41950   0.95751   0.00000  Uiso   1.00
N317   N     0.66970   0.78178   0.83174   0.00000  Uiso   1.00
N318   N     0.20824   0.04744   0.76804   0.00000  Uiso   1.00
N319   N     0.39946   0.49488   0.90043   0.00000  Uiso   1.00
N320   N     0.75223   0.85672   0.89183   0.00000  Uiso   1.00
N321   N     0.29077   0.12239   0.82812   0.00000  Uiso   1.00
N322   N     0.48199   0.56982   0.96052   0.00000  Uiso   1.00
C323   C     0.91857   0.26807   0.82813   0.00000  Uiso   1.00
C324   C     0.00796   0.29015   0.84381   0.00000  Uiso   1.00
C325   C     0.03713   0.26698   0.82352   0.00000  Uiso   1.00
C326   C     0.12099   0.29340   0.84300   0.00000  Uiso   1.00
C327   C     0.25175   0.32045   0.86150   0.00000  Uiso   1.00
C328   C     0.88078   0.36338   0.82625   0.00000  Uiso   1.00
C329   C     0.80302   0.40177   0.79120   0.00000  Uiso   1.00
C330   C     0.77982   0.48984   0.79590   0.00000  Uiso   1.00
C331   C     0.71310   0.63054   0.78714   0.00000  Uiso   1.00
C332   C     0.93349   0.21109   0.86274   0.00000  Uiso   1.00
C333   C     0.90004   0.12144   0.85837   0.00000  Uiso   1.00
C334   C     0.92120   0.08130   0.89378   0.00000  Uiso   1.00
C335   C     0.93632   0.98554   0.94169   0.00000  Uiso   1.00
C336   C     0.01562   0.35620   0.89878   0.00000  Uiso   1.00
C337   C     0.06066   0.33802   0.88219   0.00000  Uiso   1.00
C338   C     0.14451   0.36449   0.90170   0.00000  Uiso   1.00
C339   C     0.17380   0.34136   0.88145   0.00000  Uiso   1.00
C340   C     0.93349   0.41125   0.86462   0.00000  Uiso   1.00
C341   C     0.91040   0.49928   0.86937   0.00000  Uiso   1.00
C342   C     0.83263   0.53780   0.83434   0.00000  Uiso   1.00
C343   C     0.98620   0.25895   0.90112   0.00000  Uiso   1.00
C344   C     0.00741   0.21895   0.93654   0.00000  Uiso   1.00
C345   C     0.97400   0.12925   0.93223   0.00000  Uiso   1.00
H346   H     0.87753   0.23080   0.79825   0.00000  Uiso   1.00
H347   H     0.99632   0.22994   0.79382   0.00000  Uiso   1.00
H348   H     0.76224   0.36470   0.76151   0.00000  Uiso   1.00
H349   H     0.85925   0.08442   0.82867   0.00000  Uiso   1.00
H350   H     0.15125   0.25012   0.80583   0.00000  Uiso   1.00
H351   H     0.65767   0.53427   0.73770   0.00000  Uiso   1.00
H352   H     0.86222   0.94322   0.87932   0.00000  Uiso   1.00
H353   H     0.05666   0.39347   0.92866   0.00000  Uiso   1.00
H354   H     0.18528   0.40153   0.93140   0.00000  Uiso   1.00
H355   H     0.95120   0.53630   0.89908   0.00000  Uiso   1.00
H356   H     0.04821   0.25601   0.96624   0.00000  Uiso   1.00
H357   H     0.30462   0.38940   0.91749   0.00000  Uiso   1.00
H358   H     0.81104   0.67354   0.84936   0.00000  Uiso   1.00
H359   H     0.01559   0.08250   0.99097   0.00000  Uiso   1.00
O360   O     0.30930   0.32215   0.86110   0.00000  Uiso   1.00
O361   O     0.66174   0.69493   0.77171   0.00000  Uiso   1.00
O362   O     0.93011   0.91950   0.95751   0.00000  Uiso   1.00
N363   N     0.16970   0.28178   0.83174   0.00000  Uiso   1.00
N364   N     0.70824   0.54744   0.76804   0.00000  Uiso   1.00
N365   N     0.89946   0.99488   0.90043   0.00000  Uiso   1.00
N366   N     0.25223   0.35672   0.89183   0.00000  Uiso   1.00
N367   N     0.79077   0.62239   0.82812   0.00000  Uiso   1.00
N368   N     0.98199   0.06982   0.96052   0.00000  Uiso   1.00
