data_job_05486
_audit_creation_date              2018-12-19
_audit_creation_method            'Materials Studio'
_symmetry_space_group_name_H-M    'P1'
_symmetry_Int_Tables_number       1
_symmetry_cell_setting            triclinic
loop_
_symmetry_equiv_pos_as_xyz
  x,y,z
_cell_length_a                    26.3310
_cell_length_b                    14.7289
_cell_length_c                    21.7034
_cell_angle_alpha                 90.0000
_cell_angle_beta                  140.2146
_cell_angle_gamma                 90.0000
loop_
_atom_site_label
_atom_site_type_symbol
_atom_site_fract_x
_atom_site_fract_y
_atom_site_fract_z
_atom_site_U_iso_or_equiv
_atom_site_adp_type
_atom_site_occupancy
C1     C     0.86973   0.95605   0.08163   0.00000  Uiso   1.00
C2     C     0.82644   0.89698   0.99436   0.00000  Uiso   1.00
C3     C     0.83743   0.80442   0.99624   0.00000  Uiso   1.00
C4     C     0.79211   0.76273   0.90866   0.00000  Uiso   1.00
C5     C     0.73319   0.66354   0.78629   0.00000  Uiso   1.00
C6     C     0.90886   0.03206   0.08133   0.00000  Uiso   1.00
C7     C     0.98915   0.05307   0.15634   0.00000  Uiso   1.00
C8     C     0.01322   0.12511   0.14198   0.00000  Uiso   1.00
C9     C     0.08225   0.23567   0.15466   0.00000  Uiso   1.00
C10    C     0.80534   0.00117   0.06032   0.00000  Uiso   1.00
C11    C     0.79860   0.99625   0.11768   0.00000  Uiso   1.00
C12    C     0.73551   0.04230   0.08564   0.00000  Uiso   1.00
C13    C     0.64381   0.10491   0.06571   0.00000  Uiso   1.00
C14    C     0.76970   0.04661   0.92276   0.00000  Uiso   1.00
C15    C     0.77211   0.94617   0.90807   0.00000  Uiso   1.00
C16    C     0.72676   0.90462   0.82047   0.00000  Uiso   1.00
C17    C     0.73768   0.81201   0.82222   0.00000  Uiso   1.00
C18    C     0.85453   0.08125   0.99505   0.00000  Uiso   1.00
C19    C     0.87848   0.15327   0.98058   0.00000  Uiso   1.00
C20    C     0.95879   0.17439   0.05554   0.00000  Uiso   1.00
C21    C     0.75101   0.05037   0.97403   0.00000  Uiso   1.00
C22    C     0.68792   0.09644   0.94191   0.00000  Uiso   1.00
C23    C     0.68108   0.09158   0.99920   0.00000  Uiso   1.00
H24    H     0.91203   0.91775   0.14881   0.00000  Uiso   1.00
H25    H     0.87949   0.76637   0.06303   0.00000  Uiso   1.00
H26    H     0.03118   0.01500   0.22311   0.00000  Uiso   1.00
H27    H     0.84065   0.95817   0.18445   0.00000  Uiso   1.00
H28    H     0.81947   0.62024   0.92988   0.00000  Uiso   1.00
H29    H     0.13932   0.14449   0.26743   0.00000  Uiso   1.00
H30    H     0.73756   0.02468   0.18591   0.00000  Uiso   1.00
H31    H     0.72740   0.08492   0.85558   0.00000  Uiso   1.00
H32    H     0.68472   0.94271   0.75371   0.00000  Uiso   1.00
H33    H     0.83642   0.19133   0.91379   0.00000  Uiso   1.00
H34    H     0.64589   0.13450   0.87513   0.00000  Uiso   1.00
H35    H     0.66139   0.76336   0.67883   0.00000  Uiso   1.00
H36    H     0.98125   0.28762   0.01638   0.00000  Uiso   1.00
H37    H     0.57948   0.16779   0.93486   0.00000  Uiso   1.00
O38    O     0.71570   0.59524   0.74263   0.00000  Uiso   1.00
O39    O     0.13534   0.28305   0.18550   0.00000  Uiso   1.00
O40    O     0.60823   0.12584   0.07854   0.00000  Uiso   1.00
N41    N     0.78811   0.67344   0.88477   0.00000  Uiso   1.00
N42    N     0.08716   0.16357   0.20036   0.00000  Uiso   1.00
N43    N     0.71155   0.05157   0.12416   0.00000  Uiso   1.00
N44    N     0.70305   0.75045   0.74968   0.00000  Uiso   1.00
N45    N     0.00210   0.24058   0.06527   0.00000  Uiso   1.00
N46    N     0.62649   0.12858   0.98907   0.00000  Uiso   1.00
C47    C     0.36973   0.45605   0.08163   0.00000  Uiso   1.00
C48    C     0.32644   0.39698   0.99436   0.00000  Uiso   1.00
C49    C     0.33743   0.30442   0.99624   0.00000  Uiso   1.00
C50    C     0.29211   0.26273   0.90866   0.00000  Uiso   1.00
C51    C     0.23319   0.16354   0.78629   0.00000  Uiso   1.00
C52    C     0.40886   0.53206   0.08133   0.00000  Uiso   1.00
C53    C     0.48915   0.55307   0.15634   0.00000  Uiso   1.00
C54    C     0.51322   0.62511   0.14198   0.00000  Uiso   1.00
C55    C     0.58225   0.73567   0.15466   0.00000  Uiso   1.00
C56    C     0.30534   0.50117   0.06032   0.00000  Uiso   1.00
C57    C     0.29860   0.49625   0.11768   0.00000  Uiso   1.00
C58    C     0.23551   0.54230   0.08564   0.00000  Uiso   1.00
C59    C     0.14381   0.60491   0.06571   0.00000  Uiso   1.00
C60    C     0.26970   0.54661   0.92276   0.00000  Uiso   1.00
C61    C     0.27211   0.44617   0.90807   0.00000  Uiso   1.00
C62    C     0.22676   0.40462   0.82047   0.00000  Uiso   1.00
C63    C     0.23768   0.31201   0.82222   0.00000  Uiso   1.00
C64    C     0.35453   0.58125   0.99505   0.00000  Uiso   1.00
C65    C     0.37848   0.65327   0.98058   0.00000  Uiso   1.00
C66    C     0.45879   0.67439   0.05554   0.00000  Uiso   1.00
C67    C     0.25101   0.55037   0.97403   0.00000  Uiso   1.00
C68    C     0.18792   0.59644   0.94191   0.00000  Uiso   1.00
C69    C     0.18108   0.59158   0.99920   0.00000  Uiso   1.00
H70    H     0.41203   0.41775   0.14881   0.00000  Uiso   1.00
H71    H     0.37949   0.26637   0.06303   0.00000  Uiso   1.00
H72    H     0.53118   0.51500   0.22311   0.00000  Uiso   1.00
H73    H     0.34065   0.45817   0.18445   0.00000  Uiso   1.00
H74    H     0.31947   0.12024   0.92988   0.00000  Uiso   1.00
H75    H     0.63932   0.64449   0.26743   0.00000  Uiso   1.00
H76    H     0.23756   0.52468   0.18591   0.00000  Uiso   1.00
H77    H     0.22740   0.58492   0.85558   0.00000  Uiso   1.00
H78    H     0.18472   0.44271   0.75371   0.00000  Uiso   1.00
H79    H     0.33642   0.69133   0.91379   0.00000  Uiso   1.00
H80    H     0.14589   0.63450   0.87513   0.00000  Uiso   1.00
H81    H     0.16139   0.26336   0.67883   0.00000  Uiso   1.00
H82    H     0.48125   0.78762   0.01638   0.00000  Uiso   1.00
H83    H     0.07948   0.66779   0.93486   0.00000  Uiso   1.00
O84    O     0.21570   0.09524   0.74263   0.00000  Uiso   1.00
O85    O     0.63534   0.78305   0.18550   0.00000  Uiso   1.00
O86    O     0.10823   0.62584   0.07854   0.00000  Uiso   1.00
N87    N     0.28811   0.17344   0.88477   0.00000  Uiso   1.00
N88    N     0.58716   0.66357   0.20036   0.00000  Uiso   1.00
N89    N     0.21155   0.55157   0.12416   0.00000  Uiso   1.00
N90    N     0.20305   0.25045   0.74968   0.00000  Uiso   1.00
N91    N     0.50210   0.74058   0.06527   0.00000  Uiso   1.00
N92    N     0.12649   0.62858   0.98907   0.00000  Uiso   1.00
C93    C     0.13027   0.95605   0.41837   0.00000  Uiso   1.00
C94    C     0.17356   0.89698   0.50564   0.00000  Uiso   1.00
C95    C     0.16257   0.80442   0.50376   0.00000  Uiso   1.00
C96    C     0.20789   0.76273   0.59134   0.00000  Uiso   1.00
C97    C     0.26681   0.66354   0.71371   0.00000  Uiso   1.00
C98    C     0.09114   0.03206   0.41867   0.00000  Uiso   1.00
C99    C     0.01085   0.05307   0.34366   0.00000  Uiso   1.00
C100   C     0.98678   0.12511   0.35802   0.00000  Uiso   1.00
C101   C     0.91775   0.23567   0.34534   0.00000  Uiso   1.00
C102   C     0.19466   0.00117   0.43968   0.00000  Uiso   1.00
C103   C     0.20140   0.99625   0.38232   0.00000  Uiso   1.00
C104   C     0.26449   0.04230   0.41436   0.00000  Uiso   1.00
C105   C     0.35619   0.10491   0.43429   0.00000  Uiso   1.00
C106   C     0.23030   0.04661   0.57724   0.00000  Uiso   1.00
C107   C     0.22789   0.94617   0.59193   0.00000  Uiso   1.00
C108   C     0.27324   0.90462   0.67953   0.00000  Uiso   1.00
C109   C     0.26232   0.81201   0.67778   0.00000  Uiso   1.00
C110   C     0.14547   0.08125   0.50495   0.00000  Uiso   1.00
C111   C     0.12152   0.15327   0.51942   0.00000  Uiso   1.00
C112   C     0.04121   0.17439   0.44446   0.00000  Uiso   1.00
C113   C     0.24899   0.05037   0.52597   0.00000  Uiso   1.00
C114   C     0.31208   0.09644   0.55809   0.00000  Uiso   1.00
C115   C     0.31892   0.09158   0.50080   0.00000  Uiso   1.00
H116   H     0.08797   0.91775   0.35119   0.00000  Uiso   1.00
H117   H     0.12051   0.76637   0.43697   0.00000  Uiso   1.00
H118   H     0.96882   0.01500   0.27689   0.00000  Uiso   1.00
H119   H     0.15935   0.95817   0.31555   0.00000  Uiso   1.00
H120   H     0.18053   0.62024   0.57012   0.00000  Uiso   1.00
H121   H     0.86068   0.14449   0.23257   0.00000  Uiso   1.00
H122   H     0.26244   0.02468   0.31409   0.00000  Uiso   1.00
H123   H     0.27260   0.08492   0.64442   0.00000  Uiso   1.00
H124   H     0.31528   0.94271   0.74629   0.00000  Uiso   1.00
H125   H     0.16358   0.19133   0.58621   0.00000  Uiso   1.00
H126   H     0.35411   0.13450   0.62487   0.00000  Uiso   1.00
H127   H     0.33861   0.76336   0.82117   0.00000  Uiso   1.00
H128   H     0.01875   0.28762   0.48362   0.00000  Uiso   1.00
H129   H     0.42052   0.16779   0.56514   0.00000  Uiso   1.00
O130   O     0.28430   0.59524   0.75737   0.00000  Uiso   1.00
O131   O     0.86466   0.28305   0.31450   0.00000  Uiso   1.00
O132   O     0.39177   0.12584   0.42146   0.00000  Uiso   1.00
N133   N     0.21189   0.67344   0.61523   0.00000  Uiso   1.00
N134   N     0.91284   0.16357   0.29964   0.00000  Uiso   1.00
N135   N     0.28845   0.05157   0.37584   0.00000  Uiso   1.00
N136   N     0.29695   0.75045   0.75032   0.00000  Uiso   1.00
N137   N     0.99790   0.24058   0.43473   0.00000  Uiso   1.00
N138   N     0.37351   0.12858   0.51093   0.00000  Uiso   1.00
C139   C     0.63027   0.45605   0.41837   0.00000  Uiso   1.00
C140   C     0.67356   0.39698   0.50564   0.00000  Uiso   1.00
C141   C     0.66257   0.30442   0.50376   0.00000  Uiso   1.00
C142   C     0.70789   0.26273   0.59134   0.00000  Uiso   1.00
C143   C     0.76681   0.16354   0.71371   0.00000  Uiso   1.00
C144   C     0.59114   0.53206   0.41867   0.00000  Uiso   1.00
C145   C     0.51085   0.55307   0.34366   0.00000  Uiso   1.00
C146   C     0.48678   0.62511   0.35802   0.00000  Uiso   1.00
C147   C     0.41775   0.73567   0.34534   0.00000  Uiso   1.00
C148   C     0.69466   0.50117   0.43968   0.00000  Uiso   1.00
C149   C     0.70140   0.49625   0.38232   0.00000  Uiso   1.00
C150   C     0.76449   0.54230   0.41436   0.00000  Uiso   1.00
C151   C     0.85619   0.60491   0.43429   0.00000  Uiso   1.00
C152   C     0.73030   0.54661   0.57724   0.00000  Uiso   1.00
C153   C     0.72789   0.44617   0.59193   0.00000  Uiso   1.00
C154   C     0.77324   0.40462   0.67953   0.00000  Uiso   1.00
C155   C     0.76232   0.31201   0.67778   0.00000  Uiso   1.00
C156   C     0.64547   0.58125   0.50495   0.00000  Uiso   1.00
C157   C     0.62152   0.65327   0.51942   0.00000  Uiso   1.00
C158   C     0.54121   0.67439   0.44446   0.00000  Uiso   1.00
C159   C     0.74899   0.55037   0.52597   0.00000  Uiso   1.00
C160   C     0.81208   0.59644   0.55809   0.00000  Uiso   1.00
C161   C     0.81892   0.59158   0.50080   0.00000  Uiso   1.00
H162   H     0.58797   0.41775   0.35119   0.00000  Uiso   1.00
H163   H     0.62051   0.26637   0.43697   0.00000  Uiso   1.00
H164   H     0.46882   0.51500   0.27689   0.00000  Uiso   1.00
H165   H     0.65935   0.45817   0.31555   0.00000  Uiso   1.00
H166   H     0.68053   0.12024   0.57012   0.00000  Uiso   1.00
H167   H     0.36068   0.64449   0.23257   0.00000  Uiso   1.00
H168   H     0.76244   0.52468   0.31409   0.00000  Uiso   1.00
H169   H     0.77260   0.58492   0.64442   0.00000  Uiso   1.00
H170   H     0.81528   0.44271   0.74629   0.00000  Uiso   1.00
H171   H     0.66358   0.69133   0.58621   0.00000  Uiso   1.00
H172   H     0.85411   0.63450   0.62487   0.00000  Uiso   1.00
H173   H     0.83861   0.26336   0.82117   0.00000  Uiso   1.00
H174   H     0.51875   0.78762   0.48362   0.00000  Uiso   1.00
H175   H     0.92052   0.66779   0.56514   0.00000  Uiso   1.00
O176   O     0.78430   0.09524   0.75737   0.00000  Uiso   1.00
O177   O     0.36466   0.78305   0.31450   0.00000  Uiso   1.00
O178   O     0.89177   0.62584   0.42146   0.00000  Uiso   1.00
N179   N     0.71189   0.17344   0.61523   0.00000  Uiso   1.00
N180   N     0.41284   0.66357   0.29964   0.00000  Uiso   1.00
N181   N     0.78845   0.55157   0.37584   0.00000  Uiso   1.00
N182   N     0.79695   0.25045   0.75032   0.00000  Uiso   1.00
N183   N     0.49790   0.74058   0.43473   0.00000  Uiso   1.00
N184   N     0.87351   0.62858   0.51093   0.00000  Uiso   1.00
C185   C     0.13027   0.04395   0.91837   0.00000  Uiso   1.00
C186   C     0.17356   0.10302   0.00564   0.00000  Uiso   1.00
C187   C     0.16257   0.19558   0.00376   0.00000  Uiso   1.00
C188   C     0.20789   0.23727   0.09134   0.00000  Uiso   1.00
C189   C     0.26681   0.33646   0.21371   0.00000  Uiso   1.00
C190   C     0.09114   0.96794   0.91867   0.00000  Uiso   1.00
C191   C     0.01085   0.94693   0.84366   0.00000  Uiso   1.00
C192   C     0.98678   0.87489   0.85802   0.00000  Uiso   1.00
C193   C     0.91775   0.76433   0.84534   0.00000  Uiso   1.00
C194   C     0.19466   0.99883   0.93968   0.00000  Uiso   1.00
C195   C     0.20140   0.00375   0.88232   0.00000  Uiso   1.00
C196   C     0.26449   0.95770   0.91436   0.00000  Uiso   1.00
C197   C     0.35619   0.89509   0.93429   0.00000  Uiso   1.00
C198   C     0.23030   0.95339   0.07724   0.00000  Uiso   1.00
C199   C     0.22789   0.05383   0.09193   0.00000  Uiso   1.00
C200   C     0.27324   0.09538   0.17953   0.00000  Uiso   1.00
C201   C     0.26232   0.18799   0.17778   0.00000  Uiso   1.00
C202   C     0.14547   0.91875   0.00495   0.00000  Uiso   1.00
C203   C     0.12152   0.84673   0.01942   0.00000  Uiso   1.00
C204   C     0.04121   0.82561   0.94446   0.00000  Uiso   1.00
C205   C     0.24899   0.94963   0.02597   0.00000  Uiso   1.00
C206   C     0.31208   0.90356   0.05809   0.00000  Uiso   1.00
C207   C     0.31892   0.90842   0.00080   0.00000  Uiso   1.00
H208   H     0.08797   0.08225   0.85119   0.00000  Uiso   1.00
H209   H     0.12051   0.23363   0.93697   0.00000  Uiso   1.00
H210   H     0.96882   0.98500   0.77689   0.00000  Uiso   1.00
H211   H     0.15935   0.04183   0.81555   0.00000  Uiso   1.00
H212   H     0.18053   0.37976   0.07012   0.00000  Uiso   1.00
H213   H     0.86068   0.85551   0.73257   0.00000  Uiso   1.00
H214   H     0.26244   0.97532   0.81409   0.00000  Uiso   1.00
H215   H     0.27260   0.91508   0.14442   0.00000  Uiso   1.00
H216   H     0.31528   0.05729   0.24629   0.00000  Uiso   1.00
H217   H     0.16358   0.80867   0.08621   0.00000  Uiso   1.00
H218   H     0.35411   0.86550   0.12487   0.00000  Uiso   1.00
H219   H     0.33861   0.23664   0.32117   0.00000  Uiso   1.00
H220   H     0.01875   0.71238   0.98362   0.00000  Uiso   1.00
H221   H     0.42052   0.83221   0.06514   0.00000  Uiso   1.00
O222   O     0.28430   0.40476   0.25737   0.00000  Uiso   1.00
O223   O     0.86466   0.71695   0.81450   0.00000  Uiso   1.00
O224   O     0.39177   0.87416   0.92146   0.00000  Uiso   1.00
N225   N     0.21189   0.32656   0.11523   0.00000  Uiso   1.00
N226   N     0.91284   0.83643   0.79964   0.00000  Uiso   1.00
N227   N     0.28845   0.94843   0.87584   0.00000  Uiso   1.00
N228   N     0.29695   0.24955   0.25032   0.00000  Uiso   1.00
N229   N     0.99790   0.75942   0.93473   0.00000  Uiso   1.00
N230   N     0.37351   0.87142   0.01093   0.00000  Uiso   1.00
C231   C     0.63027   0.54395   0.91837   0.00000  Uiso   1.00
C232   C     0.67356   0.60302   0.00564   0.00000  Uiso   1.00
C233   C     0.66257   0.69558   0.00376   0.00000  Uiso   1.00
C234   C     0.70789   0.73727   0.09134   0.00000  Uiso   1.00
C235   C     0.76681   0.83646   0.21371   0.00000  Uiso   1.00
C236   C     0.59114   0.46794   0.91867   0.00000  Uiso   1.00
C237   C     0.51085   0.44693   0.84366   0.00000  Uiso   1.00
C238   C     0.48678   0.37489   0.85802   0.00000  Uiso   1.00
C239   C     0.41775   0.26433   0.84534   0.00000  Uiso   1.00
C240   C     0.69466   0.49883   0.93968   0.00000  Uiso   1.00
C241   C     0.70140   0.50375   0.88232   0.00000  Uiso   1.00
C242   C     0.76449   0.45770   0.91436   0.00000  Uiso   1.00
C243   C     0.85619   0.39509   0.93429   0.00000  Uiso   1.00
C244   C     0.73030   0.45339   0.07724   0.00000  Uiso   1.00
C245   C     0.72789   0.55383   0.09193   0.00000  Uiso   1.00
C246   C     0.77324   0.59538   0.17953   0.00000  Uiso   1.00
C247   C     0.76232   0.68799   0.17778   0.00000  Uiso   1.00
C248   C     0.64547   0.41875   0.00495   0.00000  Uiso   1.00
C249   C     0.62152   0.34673   0.01942   0.00000  Uiso   1.00
C250   C     0.54121   0.32561   0.94446   0.00000  Uiso   1.00
C251   C     0.74899   0.44963   0.02597   0.00000  Uiso   1.00
C252   C     0.81208   0.40356   0.05809   0.00000  Uiso   1.00
C253   C     0.81892   0.40842   0.00080   0.00000  Uiso   1.00
H254   H     0.58797   0.58225   0.85119   0.00000  Uiso   1.00
H255   H     0.62051   0.73363   0.93697   0.00000  Uiso   1.00
H256   H     0.46882   0.48500   0.77689   0.00000  Uiso   1.00
H257   H     0.65935   0.54183   0.81555   0.00000  Uiso   1.00
H258   H     0.68053   0.87976   0.07012   0.00000  Uiso   1.00
H259   H     0.36068   0.35551   0.73257   0.00000  Uiso   1.00
H260   H     0.76244   0.47532   0.81409   0.00000  Uiso   1.00
H261   H     0.77260   0.41508   0.14442   0.00000  Uiso   1.00
H262   H     0.81528   0.55729   0.24629   0.00000  Uiso   1.00
H263   H     0.66358   0.30867   0.08621   0.00000  Uiso   1.00
H264   H     0.85411   0.36550   0.12487   0.00000  Uiso   1.00
H265   H     0.83861   0.73664   0.32117   0.00000  Uiso   1.00
H266   H     0.51875   0.21238   0.98362   0.00000  Uiso   1.00
H267   H     0.92052   0.33221   0.06514   0.00000  Uiso   1.00
O268   O     0.78430   0.90476   0.25737   0.00000  Uiso   1.00
O269   O     0.36466   0.21695   0.81450   0.00000  Uiso   1.00
O270   O     0.89177   0.37416   0.92146   0.00000  Uiso   1.00
N271   N     0.71189   0.82656   0.11523   0.00000  Uiso   1.00
N272   N     0.41284   0.33643   0.79964   0.00000  Uiso   1.00
N273   N     0.78845   0.44843   0.87584   0.00000  Uiso   1.00
N274   N     0.79695   0.74955   0.25032   0.00000  Uiso   1.00
N275   N     0.49790   0.25942   0.93473   0.00000  Uiso   1.00
N276   N     0.87351   0.37142   0.01093   0.00000  Uiso   1.00
C277   C     0.86973   0.04395   0.58163   0.00000  Uiso   1.00
C278   C     0.82644   0.10302   0.49436   0.00000  Uiso   1.00
C279   C     0.83743   0.19558   0.49624   0.00000  Uiso   1.00
C280   C     0.79211   0.23727   0.40866   0.00000  Uiso   1.00
C281   C     0.73319   0.33646   0.28629   0.00000  Uiso   1.00
C282   C     0.90886   0.96794   0.58133   0.00000  Uiso   1.00
C283   C     0.98915   0.94693   0.65634   0.00000  Uiso   1.00
C284   C     0.01322   0.87489   0.64198   0.00000  Uiso   1.00
C285   C     0.08225   0.76433   0.65466   0.00000  Uiso   1.00
C286   C     0.80534   0.99883   0.56032   0.00000  Uiso   1.00
C287   C     0.79860   0.00375   0.61768   0.00000  Uiso   1.00
C288   C     0.73551   0.95770   0.58564   0.00000  Uiso   1.00
C289   C     0.64381   0.89509   0.56571   0.00000  Uiso   1.00
C290   C     0.76970   0.95339   0.42276   0.00000  Uiso   1.00
C291   C     0.77211   0.05383   0.40807   0.00000  Uiso   1.00
C292   C     0.72676   0.09538   0.32047   0.00000  Uiso   1.00
C293   C     0.73768   0.18799   0.32222   0.00000  Uiso   1.00
C294   C     0.85453   0.91875   0.49505   0.00000  Uiso   1.00
C295   C     0.87848   0.84673   0.48058   0.00000  Uiso   1.00
C296   C     0.95879   0.82561   0.55554   0.00000  Uiso   1.00
C297   C     0.75101   0.94963   0.47403   0.00000  Uiso   1.00
C298   C     0.68792   0.90356   0.44191   0.00000  Uiso   1.00
C299   C     0.68108   0.90842   0.49920   0.00000  Uiso   1.00
H300   H     0.91203   0.08225   0.64881   0.00000  Uiso   1.00
H301   H     0.87949   0.23363   0.56303   0.00000  Uiso   1.00
H302   H     0.03118   0.98500   0.72311   0.00000  Uiso   1.00
H303   H     0.84065   0.04183   0.68445   0.00000  Uiso   1.00
H304   H     0.81947   0.37976   0.42988   0.00000  Uiso   1.00
H305   H     0.13932   0.85551   0.76743   0.00000  Uiso   1.00
H306   H     0.73756   0.97532   0.68591   0.00000  Uiso   1.00
H307   H     0.72740   0.91508   0.35558   0.00000  Uiso   1.00
H308   H     0.68472   0.05729   0.25371   0.00000  Uiso   1.00
H309   H     0.83642   0.80867   0.41379   0.00000  Uiso   1.00
H310   H     0.64589   0.86550   0.37513   0.00000  Uiso   1.00
H311   H     0.66139   0.23664   0.17883   0.00000  Uiso   1.00
H312   H     0.98125   0.71238   0.51638   0.00000  Uiso   1.00
H313   H     0.57948   0.83221   0.43486   0.00000  Uiso   1.00
O314   O     0.71570   0.40476   0.24263   0.00000  Uiso   1.00
O315   O     0.13534   0.71695   0.68550   0.00000  Uiso   1.00
O316   O     0.60823   0.87416   0.57854   0.00000  Uiso   1.00
N317   N     0.78811   0.32656   0.38477   0.00000  Uiso   1.00
N318   N     0.08716   0.83643   0.70036   0.00000  Uiso   1.00
N319   N     0.71155   0.94843   0.62416   0.00000  Uiso   1.00
N320   N     0.70305   0.24955   0.24968   0.00000  Uiso   1.00
N321   N     0.00210   0.75942   0.56527   0.00000  Uiso   1.00
N322   N     0.62649   0.87142   0.48907   0.00000  Uiso   1.00
C323   C     0.36973   0.54395   0.58163   0.00000  Uiso   1.00
C324   C     0.32644   0.60302   0.49436   0.00000  Uiso   1.00
C325   C     0.33743   0.69558   0.49624   0.00000  Uiso   1.00
C326   C     0.29211   0.73727   0.40866   0.00000  Uiso   1.00
C327   C     0.23319   0.83646   0.28629   0.00000  Uiso   1.00
C328   C     0.40886   0.46794   0.58133   0.00000  Uiso   1.00
C329   C     0.48915   0.44693   0.65634   0.00000  Uiso   1.00
C330   C     0.51322   0.37489   0.64198   0.00000  Uiso   1.00
C331   C     0.58225   0.26433   0.65466   0.00000  Uiso   1.00
C332   C     0.30534   0.49883   0.56032   0.00000  Uiso   1.00
C333   C     0.29860   0.50375   0.61768   0.00000  Uiso   1.00
C334   C     0.23551   0.45770   0.58564   0.00000  Uiso   1.00
C335   C     0.14381   0.39509   0.56571   0.00000  Uiso   1.00
C336   C     0.26970   0.45339   0.42276   0.00000  Uiso   1.00
C337   C     0.27211   0.55383   0.40807   0.00000  Uiso   1.00
C338   C     0.22676   0.59538   0.32047   0.00000  Uiso   1.00
C339   C     0.23768   0.68799   0.32222   0.00000  Uiso   1.00
C340   C     0.35453   0.41875   0.49505   0.00000  Uiso   1.00
C341   C     0.37848   0.34673   0.48058   0.00000  Uiso   1.00
C342   C     0.45879   0.32561   0.55554   0.00000  Uiso   1.00
C343   C     0.25101   0.44963   0.47403   0.00000  Uiso   1.00
C344   C     0.18792   0.40356   0.44191   0.00000  Uiso   1.00
C345   C     0.18108   0.40842   0.49920   0.00000  Uiso   1.00
H346   H     0.41203   0.58225   0.64881   0.00000  Uiso   1.00
H347   H     0.37949   0.73363   0.56303   0.00000  Uiso   1.00
H348   H     0.53118   0.48500   0.72311   0.00000  Uiso   1.00
H349   H     0.34065   0.54183   0.68445   0.00000  Uiso   1.00
H350   H     0.31947   0.87976   0.42988   0.00000  Uiso   1.00
H351   H     0.63932   0.35551   0.76743   0.00000  Uiso   1.00
H352   H     0.23756   0.47532   0.68591   0.00000  Uiso   1.00
H353   H     0.22740   0.41508   0.35558   0.00000  Uiso   1.00
H354   H     0.18472   0.55729   0.25371   0.00000  Uiso   1.00
H355   H     0.33642   0.30867   0.41379   0.00000  Uiso   1.00
H356   H     0.14589   0.36550   0.37513   0.00000  Uiso   1.00
H357   H     0.16139   0.73664   0.17883   0.00000  Uiso   1.00
H358   H     0.48125   0.21238   0.51638   0.00000  Uiso   1.00
H359   H     0.07948   0.33221   0.43486   0.00000  Uiso   1.00
O360   O     0.21570   0.90476   0.24263   0.00000  Uiso   1.00
O361   O     0.63534   0.21695   0.68550   0.00000  Uiso   1.00
O362   O     0.10823   0.37416   0.57854   0.00000  Uiso   1.00
N363   N     0.28811   0.82656   0.38477   0.00000  Uiso   1.00
N364   N     0.58716   0.33643   0.70036   0.00000  Uiso   1.00
N365   N     0.21155   0.44843   0.62416   0.00000  Uiso   1.00
N366   N     0.20305   0.74955   0.24968   0.00000  Uiso   1.00
N367   N     0.50210   0.25942   0.56527   0.00000  Uiso   1.00
N368   N     0.12649   0.37142   0.48907   0.00000  Uiso   1.00
