data_job_00054
_audit_creation_date              2018-12-19
_audit_creation_method            'Materials Studio'
_symmetry_space_group_name_H-M    'P1'
_symmetry_Int_Tables_number       1
_symmetry_cell_setting            triclinic
loop_
_symmetry_equiv_pos_as_xyz
  x,y,z
_cell_length_a                    7.2271
_cell_length_b                    12.3517
_cell_length_c                    20.9502
_cell_angle_alpha                 78.6862
_cell_angle_beta                  90.0060
_cell_angle_gamma                 73.0054
loop_
_atom_site_label
_atom_site_type_symbol
_atom_site_fract_x
_atom_site_fract_y
_atom_site_fract_z
_atom_site_U_iso_or_equiv
_atom_site_adp_type
_atom_site_occupancy
C1     C     0.49400   0.15517   0.17369   0.00000  Uiso   1.00
C2     C     0.61810   0.06994   0.13565   0.00000  Uiso   1.00
C3     C     0.55349   0.99823   0.10367   0.00000  Uiso   1.00
C4     C     0.68966   0.92647   0.07165   0.00000  Uiso   1.00
C5     C     0.85292   0.79409   0.01260   0.00000  Uiso   1.00
C6     C     0.59178   0.12262   0.24215   0.00000  Uiso   1.00
C7     C     0.50501   0.09522   0.29971   0.00000  Uiso   1.00
C8     C     0.61902   0.06782   0.35735   0.00000  Uiso   1.00
C9     C     0.74135   0.01731   0.46365   0.00000  Uiso   1.00
C10    C     0.51657   0.27299   0.14329   0.00000  Uiso   1.00
C11    C     0.36657   0.37204   0.11774   0.00000  Uiso   1.00
C12    C     0.41725   0.47125   0.09215   0.00000  Uiso   1.00
C13    C     0.42282   0.65420   0.04496   0.00000  Uiso   1.00
C14    C     0.85072   0.15524   0.17369   0.00000  Uiso   1.00
C15    C     0.81186   0.06998   0.13565   0.00000  Uiso   1.00
C16    C     0.94816   0.99831   0.10367   0.00000  Uiso   1.00
C17    C     0.88376   0.92651   0.07164   0.00000  Uiso   1.00
C18    C     0.78552   0.12266   0.24215   0.00000  Uiso   1.00
C19    C     0.89968   0.09530   0.29971   0.00000  Uiso   1.00
C20    C     0.81312   0.06786   0.35735   0.00000  Uiso   1.00
C21    C     0.71033   0.27303   0.14328   0.00000  Uiso   1.00
C22    C     0.76125   0.37211   0.11774   0.00000  Uiso   1.00
C23    C     0.61136   0.47128   0.09215   0.00000  Uiso   1.00
H24    H     0.34315   0.15514   0.17369   0.00000  Uiso   1.00
H25    H     0.40354   0.99822   0.10368   0.00000  Uiso   1.00
H26    H     0.35507   0.09521   0.29970   0.00000  Uiso   1.00
H27    H     0.21665   0.37197   0.11775   0.00000  Uiso   1.00
H28    H     0.55595   0.82424   0.02608   0.00000  Uiso   1.00
H29    H     0.45372   0.02878   0.43939   0.00000  Uiso   1.00
H30    H     0.16184   0.61239   0.05572   0.00000  Uiso   1.00
H31    H     0.00157   0.15527   0.17369   0.00000  Uiso   1.00
H32    H     0.09809   0.99836   0.10368   0.00000  Uiso   1.00
H33    H     0.04961   0.09535   0.29970   0.00000  Uiso   1.00
H34    H     0.91120   0.37211   0.11775   0.00000  Uiso   1.00
H35    H     0.11968   0.82434   0.02608   0.00000  Uiso   1.00
H36    H     0.01744   0.02889   0.43939   0.00000  Uiso   1.00
H37    H     0.72557   0.61250   0.05572   0.00000  Uiso   1.00
O38    O     0.88944   0.72104   0.98004   0.00000  Uiso   1.00
O39    O     0.75530   0.98942   0.52228   0.00000  Uiso   1.00
O40    O     0.37237   0.75509   0.01891   0.00000  Uiso   1.00
N41    N     0.67537   0.84581   0.03568   0.00000  Uiso   1.00
N42    N     0.57980   0.03703   0.42210   0.00000  Uiso   1.00
N43    N     0.30691   0.58267   0.06341   0.00000  Uiso   1.00
N44    N     0.97871   0.84587   0.03568   0.00000  Uiso   1.00
N45    N     0.88313   0.03709   0.42210   0.00000  Uiso   1.00
N46    N     0.61025   0.58272   0.06341   0.00000  Uiso   1.00
C47    C     0.50600   0.84483   0.82631   0.00000  Uiso   1.00
C48    C     0.38190   0.93006   0.86435   0.00000  Uiso   1.00
C49    C     0.44651   0.00177   0.89633   0.00000  Uiso   1.00
C50    C     0.31034   0.07353   0.92835   0.00000  Uiso   1.00
C51    C     0.14708   0.20591   0.98740   0.00000  Uiso   1.00
C52    C     0.40822   0.87738   0.75785   0.00000  Uiso   1.00
C53    C     0.49499   0.90478   0.70029   0.00000  Uiso   1.00
C54    C     0.38098   0.93218   0.64265   0.00000  Uiso   1.00
C55    C     0.25865   0.98269   0.53635   0.00000  Uiso   1.00
C56    C     0.48343   0.72701   0.85671   0.00000  Uiso   1.00
C57    C     0.63343   0.62796   0.88226   0.00000  Uiso   1.00
C58    C     0.58275   0.52875   0.90785   0.00000  Uiso   1.00
C59    C     0.57718   0.34580   0.95504   0.00000  Uiso   1.00
C60    C     0.14928   0.84476   0.82631   0.00000  Uiso   1.00
C61    C     0.18814   0.93002   0.86435   0.00000  Uiso   1.00
C62    C     0.05184   0.00169   0.89633   0.00000  Uiso   1.00
C63    C     0.11624   0.07349   0.92836   0.00000  Uiso   1.00
C64    C     0.21448   0.87734   0.75785   0.00000  Uiso   1.00
C65    C     0.10032   0.90470   0.70029   0.00000  Uiso   1.00
C66    C     0.18688   0.93214   0.64265   0.00000  Uiso   1.00
C67    C     0.28967   0.72697   0.85672   0.00000  Uiso   1.00
C68    C     0.23875   0.62789   0.88226   0.00000  Uiso   1.00
C69    C     0.38864   0.52872   0.90785   0.00000  Uiso   1.00
H70    H     0.65685   0.84486   0.82631   0.00000  Uiso   1.00
H71    H     0.59646   0.00178   0.89632   0.00000  Uiso   1.00
H72    H     0.64493   0.90479   0.70030   0.00000  Uiso   1.00
H73    H     0.78335   0.62803   0.88225   0.00000  Uiso   1.00
H74    H     0.44405   0.17576   0.97392   0.00000  Uiso   1.00
H75    H     0.54628   0.97122   0.56061   0.00000  Uiso   1.00
H76    H     0.83816   0.38761   0.94428   0.00000  Uiso   1.00
H77    H     0.99843   0.84473   0.82631   0.00000  Uiso   1.00
H78    H     0.90191   0.00164   0.89632   0.00000  Uiso   1.00
H79    H     0.95039   0.90465   0.70030   0.00000  Uiso   1.00
H80    H     0.08880   0.62789   0.88225   0.00000  Uiso   1.00
H81    H     0.88032   0.17566   0.97392   0.00000  Uiso   1.00
H82    H     0.98256   0.97111   0.56061   0.00000  Uiso   1.00
H83    H     0.27443   0.38750   0.94428   0.00000  Uiso   1.00
O84    O     0.11056   0.27896   0.01996   0.00000  Uiso   1.00
O85    O     0.24470   0.01058   0.47772   0.00000  Uiso   1.00
O86    O     0.62763   0.24491   0.98109   0.00000  Uiso   1.00
N87    N     0.32463   0.15419   0.96432   0.00000  Uiso   1.00
N88    N     0.42020   0.96297   0.57790   0.00000  Uiso   1.00
N89    N     0.69309   0.41733   0.93659   0.00000  Uiso   1.00
N90    N     0.02129   0.15413   0.96432   0.00000  Uiso   1.00
N91    N     0.11687   0.96291   0.57790   0.00000  Uiso   1.00
N92    N     0.38975   0.41728   0.93659   0.00000  Uiso   1.00
