data_job_01844
_audit_creation_date              2018-12-19
_audit_creation_method            'Materials Studio'
_symmetry_space_group_name_H-M    'P1'
_symmetry_Int_Tables_number       1
_symmetry_cell_setting            triclinic
loop_
_symmetry_equiv_pos_as_xyz
  x,y,z
_cell_length_a                    12.2909
_cell_length_b                    25.0848
_cell_length_c                    7.5262
_cell_angle_alpha                 90.0000
_cell_angle_beta                  90.0000
_cell_angle_gamma                 90.0000
loop_
_atom_site_label
_atom_site_type_symbol
_atom_site_fract_x
_atom_site_fract_y
_atom_site_fract_z
_atom_site_U_iso_or_equiv
_atom_site_adp_type
_atom_site_occupancy
C1     C     0.28032   0.60523   0.01457   0.00000  Uiso   1.00
C2     C     0.37480   0.60215   0.88365   0.00000  Uiso   1.00
C3     C     0.48300   0.61285   0.92243   0.00000  Uiso   1.00
C4     C     0.55715   0.60777   0.78430   0.00000  Uiso   1.00
C5     C     0.70886   0.60533   0.60696   0.00000  Uiso   1.00
C6     C     0.19832   0.64378   0.93328   0.00000  Uiso   1.00
C7     C     0.15813   0.68949   0.01382   0.00000  Uiso   1.00
C8     C     0.08371   0.71946   0.91746   0.00000  Uiso   1.00
C9     C     0.96137   0.78164   0.81724   0.00000  Uiso   1.00
C10    C     0.22622   0.55053   0.01139   0.00000  Uiso   1.00
C11    C     0.20945   0.51784   0.15761   0.00000  Uiso   1.00
C12    C     0.15849   0.46930   0.12703   0.00000  Uiso   1.00
C13    C     0.07947   0.38669   0.14808   0.00000  Uiso   1.00
C14    C     0.21959   0.57717   0.70028   0.00000  Uiso   1.00
C15    C     0.34181   0.58691   0.71294   0.00000  Uiso   1.00
C16    C     0.41582   0.58181   0.57471   0.00000  Uiso   1.00
C17    C     0.52411   0.59251   0.61328   0.00000  Uiso   1.00
C18    C     0.16534   0.62855   0.76258   0.00000  Uiso   1.00
C19    C     0.09095   0.65845   0.66609   0.00000  Uiso   1.00
C20    C     0.05066   0.70420   0.74645   0.00000  Uiso   1.00
C21    C     0.19324   0.53529   0.84068   0.00000  Uiso   1.00
C22    C     0.14228   0.48679   0.80987   0.00000  Uiso   1.00
C23    C     0.12544   0.45403   0.95601   0.00000  Uiso   1.00
H24    H     0.30599   0.61709   0.14747   0.00000  Uiso   1.00
H25    H     0.50849   0.62465   0.05456   0.00000  Uiso   1.00
H26    H     0.18366   0.70127   0.14593   0.00000  Uiso   1.00
H27    H     0.23499   0.52964   0.28969   0.00000  Uiso   1.00
H28    H     0.71845   0.62632   0.87625   0.00000  Uiso   1.00
H29    H     0.03350   0.78788   0.06893   0.00000  Uiso   1.00
H30    H     0.14172   0.42597   0.37209   0.00000  Uiso   1.00
H31    H     0.19391   0.56531   0.56737   0.00000  Uiso   1.00
H32    H     0.39027   0.57002   0.44261   0.00000  Uiso   1.00
H33    H     0.06544   0.64664   0.53399   0.00000  Uiso   1.00
H34    H     0.11676   0.47501   0.67775   0.00000  Uiso   1.00
H35    H     0.62249   0.58198   0.37957   0.00000  Uiso   1.00
H36    H     0.93754   0.74354   0.57226   0.00000  Uiso   1.00
H37    H     0.04577   0.38163   0.87541   0.00000  Uiso   1.00
O38    O     0.80166   0.60821   0.55629   0.00000  Uiso   1.00
O39    O     0.90302   0.82016   0.80911   0.00000  Uiso   1.00
O40    O     0.04501   0.34533   0.20684   0.00000  Uiso   1.00
N41    N     0.66892   0.61523   0.77648   0.00000  Uiso   1.00
N42    N     0.02855   0.76628   0.95662   0.00000  Uiso   1.00
N43    N     0.12970   0.42793   0.24006   0.00000  Uiso   1.00
N44    N     0.61729   0.59137   0.50922   0.00000  Uiso   1.00
N45    N     0.97692   0.74242   0.68936   0.00000  Uiso   1.00
N46    N     0.07807   0.40407   0.97280   0.00000  Uiso   1.00
C47    C     0.71968   0.39477   0.01457   0.00000  Uiso   1.00
C48    C     0.62520   0.39785   0.88365   0.00000  Uiso   1.00
C49    C     0.51700   0.38715   0.92243   0.00000  Uiso   1.00
C50    C     0.44285   0.39223   0.78430   0.00000  Uiso   1.00
C51    C     0.29114   0.39467   0.60696   0.00000  Uiso   1.00
C52    C     0.80168   0.35622   0.93328   0.00000  Uiso   1.00
C53    C     0.84187   0.31051   0.01382   0.00000  Uiso   1.00
C54    C     0.91629   0.28054   0.91746   0.00000  Uiso   1.00
C55    C     0.03863   0.21836   0.81724   0.00000  Uiso   1.00
C56    C     0.77378   0.44947   0.01139   0.00000  Uiso   1.00
C57    C     0.79055   0.48216   0.15761   0.00000  Uiso   1.00
C58    C     0.84151   0.53070   0.12703   0.00000  Uiso   1.00
C59    C     0.92053   0.61331   0.14808   0.00000  Uiso   1.00
C60    C     0.78041   0.42283   0.70028   0.00000  Uiso   1.00
C61    C     0.65819   0.41309   0.71294   0.00000  Uiso   1.00
C62    C     0.58418   0.41819   0.57471   0.00000  Uiso   1.00
C63    C     0.47589   0.40749   0.61328   0.00000  Uiso   1.00
C64    C     0.83466   0.37145   0.76258   0.00000  Uiso   1.00
C65    C     0.90905   0.34155   0.66609   0.00000  Uiso   1.00
C66    C     0.94934   0.29580   0.74645   0.00000  Uiso   1.00
C67    C     0.80676   0.46471   0.84068   0.00000  Uiso   1.00
C68    C     0.85772   0.51321   0.80987   0.00000  Uiso   1.00
C69    C     0.87456   0.54597   0.95601   0.00000  Uiso   1.00
H70    H     0.69401   0.38291   0.14747   0.00000  Uiso   1.00
H71    H     0.49151   0.37535   0.05456   0.00000  Uiso   1.00
H72    H     0.81634   0.29873   0.14593   0.00000  Uiso   1.00
H73    H     0.76501   0.47036   0.28969   0.00000  Uiso   1.00
H74    H     0.28155   0.37368   0.87625   0.00000  Uiso   1.00
H75    H     0.96650   0.21212   0.06893   0.00000  Uiso   1.00
H76    H     0.85828   0.57403   0.37209   0.00000  Uiso   1.00
H77    H     0.80609   0.43469   0.56737   0.00000  Uiso   1.00
H78    H     0.60973   0.42998   0.44261   0.00000  Uiso   1.00
H79    H     0.93456   0.35336   0.53399   0.00000  Uiso   1.00
H80    H     0.88324   0.52499   0.67775   0.00000  Uiso   1.00
H81    H     0.37751   0.41802   0.37957   0.00000  Uiso   1.00
H82    H     0.06246   0.25646   0.57226   0.00000  Uiso   1.00
H83    H     0.95423   0.61837   0.87541   0.00000  Uiso   1.00
O84    O     0.19834   0.39179   0.55629   0.00000  Uiso   1.00
O85    O     0.09698   0.17984   0.80911   0.00000  Uiso   1.00
O86    O     0.95499   0.65467   0.20684   0.00000  Uiso   1.00
N87    N     0.33108   0.38477   0.77648   0.00000  Uiso   1.00
N88    N     0.97145   0.23372   0.95662   0.00000  Uiso   1.00
N89    N     0.87030   0.57207   0.24006   0.00000  Uiso   1.00
N90    N     0.38271   0.40863   0.50922   0.00000  Uiso   1.00
N91    N     0.02308   0.25758   0.68936   0.00000  Uiso   1.00
N92    N     0.92193   0.59593   0.97280   0.00000  Uiso   1.00
C93    C     0.78032   0.89477   0.51457   0.00000  Uiso   1.00
C94    C     0.87480   0.89785   0.38365   0.00000  Uiso   1.00
C95    C     0.98300   0.88715   0.42243   0.00000  Uiso   1.00
C96    C     0.05715   0.89223   0.28430   0.00000  Uiso   1.00
C97    C     0.20886   0.89467   0.10696   0.00000  Uiso   1.00
C98    C     0.69832   0.85622   0.43328   0.00000  Uiso   1.00
C99    C     0.65813   0.81051   0.51382   0.00000  Uiso   1.00
C100   C     0.58371   0.78054   0.41746   0.00000  Uiso   1.00
C101   C     0.46137   0.71836   0.31724   0.00000  Uiso   1.00
C102   C     0.72622   0.94947   0.51139   0.00000  Uiso   1.00
C103   C     0.70945   0.98216   0.65761   0.00000  Uiso   1.00
C104   C     0.65849   0.03070   0.62703   0.00000  Uiso   1.00
C105   C     0.57947   0.11331   0.64808   0.00000  Uiso   1.00
C106   C     0.71959   0.92283   0.20028   0.00000  Uiso   1.00
C107   C     0.84181   0.91309   0.21294   0.00000  Uiso   1.00
C108   C     0.91582   0.91819   0.07471   0.00000  Uiso   1.00
C109   C     0.02411   0.90749   0.11328   0.00000  Uiso   1.00
C110   C     0.66534   0.87145   0.26258   0.00000  Uiso   1.00
C111   C     0.59095   0.84155   0.16609   0.00000  Uiso   1.00
C112   C     0.55066   0.79580   0.24645   0.00000  Uiso   1.00
C113   C     0.69324   0.96471   0.34068   0.00000  Uiso   1.00
C114   C     0.64228   0.01321   0.30987   0.00000  Uiso   1.00
C115   C     0.62544   0.04597   0.45601   0.00000  Uiso   1.00
H116   H     0.80599   0.88291   0.64747   0.00000  Uiso   1.00
H117   H     0.00849   0.87535   0.55456   0.00000  Uiso   1.00
H118   H     0.68366   0.79873   0.64593   0.00000  Uiso   1.00
H119   H     0.73499   0.97036   0.78969   0.00000  Uiso   1.00
H120   H     0.21845   0.87368   0.37625   0.00000  Uiso   1.00
H121   H     0.53350   0.71212   0.56893   0.00000  Uiso   1.00
H122   H     0.64172   0.07403   0.87209   0.00000  Uiso   1.00
H123   H     0.69391   0.93469   0.06737   0.00000  Uiso   1.00
H124   H     0.89027   0.92998   0.94261   0.00000  Uiso   1.00
H125   H     0.56544   0.85336   0.03399   0.00000  Uiso   1.00
H126   H     0.61676   0.02499   0.17775   0.00000  Uiso   1.00
H127   H     0.12249   0.91802   0.87957   0.00000  Uiso   1.00
H128   H     0.43754   0.75646   0.07226   0.00000  Uiso   1.00
H129   H     0.54577   0.11837   0.37541   0.00000  Uiso   1.00
O130   O     0.30166   0.89179   0.05629   0.00000  Uiso   1.00
O131   O     0.40302   0.67984   0.30911   0.00000  Uiso   1.00
O132   O     0.54501   0.15467   0.70684   0.00000  Uiso   1.00
N133   N     0.16892   0.88477   0.27648   0.00000  Uiso   1.00
N134   N     0.52855   0.73372   0.45662   0.00000  Uiso   1.00
N135   N     0.62970   0.07207   0.74006   0.00000  Uiso   1.00
N136   N     0.11729   0.90863   0.00922   0.00000  Uiso   1.00
N137   N     0.47692   0.75758   0.18936   0.00000  Uiso   1.00
N138   N     0.57807   0.09593   0.47280   0.00000  Uiso   1.00
C139   C     0.21968   0.10523   0.51457   0.00000  Uiso   1.00
C140   C     0.12520   0.10215   0.38365   0.00000  Uiso   1.00
C141   C     0.01700   0.11285   0.42243   0.00000  Uiso   1.00
C142   C     0.94285   0.10777   0.28430   0.00000  Uiso   1.00
C143   C     0.79114   0.10533   0.10696   0.00000  Uiso   1.00
C144   C     0.30168   0.14378   0.43328   0.00000  Uiso   1.00
C145   C     0.34187   0.18949   0.51382   0.00000  Uiso   1.00
C146   C     0.41629   0.21946   0.41746   0.00000  Uiso   1.00
C147   C     0.53863   0.28164   0.31724   0.00000  Uiso   1.00
C148   C     0.27378   0.05053   0.51139   0.00000  Uiso   1.00
C149   C     0.29055   0.01784   0.65761   0.00000  Uiso   1.00
C150   C     0.34151   0.96930   0.62703   0.00000  Uiso   1.00
C151   C     0.42053   0.88669   0.64808   0.00000  Uiso   1.00
C152   C     0.28041   0.07717   0.20028   0.00000  Uiso   1.00
C153   C     0.15819   0.08691   0.21294   0.00000  Uiso   1.00
C154   C     0.08418   0.08181   0.07471   0.00000  Uiso   1.00
C155   C     0.97589   0.09251   0.11328   0.00000  Uiso   1.00
C156   C     0.33466   0.12855   0.26258   0.00000  Uiso   1.00
C157   C     0.40905   0.15845   0.16609   0.00000  Uiso   1.00
C158   C     0.44934   0.20420   0.24645   0.00000  Uiso   1.00
C159   C     0.30676   0.03529   0.34068   0.00000  Uiso   1.00
C160   C     0.35772   0.98679   0.30987   0.00000  Uiso   1.00
C161   C     0.37456   0.95403   0.45601   0.00000  Uiso   1.00
H162   H     0.19401   0.11709   0.64747   0.00000  Uiso   1.00
H163   H     0.99151   0.12465   0.55456   0.00000  Uiso   1.00
H164   H     0.31634   0.20127   0.64593   0.00000  Uiso   1.00
H165   H     0.26501   0.02964   0.78969   0.00000  Uiso   1.00
H166   H     0.78155   0.12632   0.37625   0.00000  Uiso   1.00
H167   H     0.46650   0.28788   0.56893   0.00000  Uiso   1.00
H168   H     0.35828   0.92597   0.87209   0.00000  Uiso   1.00
H169   H     0.30609   0.06531   0.06737   0.00000  Uiso   1.00
H170   H     0.10973   0.07002   0.94261   0.00000  Uiso   1.00
H171   H     0.43456   0.14664   0.03399   0.00000  Uiso   1.00
H172   H     0.38324   0.97501   0.17775   0.00000  Uiso   1.00
H173   H     0.87751   0.08198   0.87957   0.00000  Uiso   1.00
H174   H     0.56246   0.24354   0.07226   0.00000  Uiso   1.00
H175   H     0.45423   0.88163   0.37541   0.00000  Uiso   1.00
O176   O     0.69834   0.10821   0.05629   0.00000  Uiso   1.00
O177   O     0.59698   0.32016   0.30911   0.00000  Uiso   1.00
O178   O     0.45499   0.84533   0.70684   0.00000  Uiso   1.00
N179   N     0.83108   0.11523   0.27648   0.00000  Uiso   1.00
N180   N     0.47145   0.26628   0.45662   0.00000  Uiso   1.00
N181   N     0.37030   0.92793   0.74006   0.00000  Uiso   1.00
N182   N     0.88271   0.09137   0.00922   0.00000  Uiso   1.00
N183   N     0.52308   0.24242   0.18936   0.00000  Uiso   1.00
N184   N     0.42193   0.90407   0.47280   0.00000  Uiso   1.00
