data_job_01440
_audit_creation_date              2018-12-19
_audit_creation_method            'Materials Studio'
_symmetry_space_group_name_H-M    'P1'
_symmetry_Int_Tables_number       1
_symmetry_cell_setting            triclinic
loop_
_symmetry_equiv_pos_as_xyz
  x,y,z
_cell_length_a                    42.5974
_cell_length_b                    12.7054
_cell_length_c                    12.3646
_cell_angle_alpha                 90.0000
_cell_angle_beta                  102.8014
_cell_angle_gamma                 90.0000
loop_
_atom_site_label
_atom_site_type_symbol
_atom_site_fract_x
_atom_site_fract_y
_atom_site_fract_z
_atom_site_U_iso_or_equiv
_atom_site_adp_type
_atom_site_occupancy
C1     C     0.35676   0.25188   0.41777   0.00000  Uiso   1.00
C2     C     0.33231   0.28659   0.48390   0.00000  Uiso   1.00
C3     C     0.32703   0.23824   0.57893   0.00000  Uiso   1.00
C4     C     0.30357   0.28199   0.62719   0.00000  Uiso   1.00
C5     C     0.26826   0.32233   0.73671   0.00000  Uiso   1.00
C6     C     0.33771   0.23398   0.29942   0.00000  Uiso   1.00
C7     C     0.33698   0.14140   0.23935   0.00000  Uiso   1.00
C8     C     0.31808   0.14087   0.13231   0.00000  Uiso   1.00
C9     C     0.29118   0.09957   0.95540   0.00000  Uiso   1.00
C10    C     0.37815   0.34722   0.41293   0.00000  Uiso   1.00
C11    C     0.41142   0.34985   0.44826   0.00000  Uiso   1.00
C12    C     0.42656   0.44465   0.43676   0.00000  Uiso   1.00
C13    C     0.46244   0.57917   0.43609   0.00000  Uiso   1.00
C14    C     0.32449   0.41557   0.33449   0.00000  Uiso   1.00
C15    C     0.31478   0.37550   0.43865   0.00000  Uiso   1.00
C16    C     0.29133   0.41934   0.48679   0.00000  Uiso   1.00
C17    C     0.28601   0.37106   0.58188   0.00000  Uiso   1.00
C18    C     0.32019   0.32289   0.25418   0.00000  Uiso   1.00
C19    C     0.30128   0.32250   0.14721   0.00000  Uiso   1.00
C20    C     0.30052   0.22994   0.08699   0.00000  Uiso   1.00
C21    C     0.36062   0.43613   0.36769   0.00000  Uiso   1.00
C22    C     0.37572   0.53095   0.35612   0.00000  Uiso   1.00
C23    C     0.40900   0.53372   0.39144   0.00000  Uiso   1.00
H24    H     0.37040   0.18266   0.45298   0.00000  Uiso   1.00
H25    H     0.34059   0.16943   0.61390   0.00000  Uiso   1.00
H26    H     0.35055   0.07261   0.27437   0.00000  Uiso   1.00
H27    H     0.42497   0.28103   0.48326   0.00000  Uiso   1.00
H28    H     0.29980   0.19395   0.77234   0.00000  Uiso   1.00
H29    H     0.32081   0.98982   0.05641   0.00000  Uiso   1.00
H30    H     0.47774   0.42930   0.49689   0.00000  Uiso   1.00
H31    H     0.31085   0.48479   0.29927   0.00000  Uiso   1.00
H32    H     0.27777   0.48814   0.45176   0.00000  Uiso   1.00
H33    H     0.28772   0.39132   0.11223   0.00000  Uiso   1.00
H34    H     0.36215   0.59974   0.32112   0.00000  Uiso   1.00
H35    H     0.24881   0.45262   0.64074   0.00000  Uiso   1.00
H36    H     0.26982   0.24850   0.92480   0.00000  Uiso   1.00
H37    H     0.42675   0.68798   0.36528   0.00000  Uiso   1.00
O38    O     0.25361   0.32002   0.80961   0.00000  Uiso   1.00
O39    O     0.28117   0.05222   0.87032   0.00000  Uiso   1.00
O40    O     0.48707   0.62881   0.44823   0.00000  Uiso   1.00
N41    N     0.29235   0.25438   0.72046   0.00000  Uiso   1.00
N42    N     0.31198   0.06353   0.05110   0.00000  Uiso   1.00
N43    N     0.45870   0.47440   0.46289   0.00000  Uiso   1.00
N44    N     0.26491   0.39357   0.64964   0.00000  Uiso   1.00
N45    N     0.28454   0.20272   0.98029   0.00000  Uiso   1.00
N46    N     0.43126   0.61359   0.39207   0.00000  Uiso   1.00
C47    C     0.85676   0.75188   0.41777   0.00000  Uiso   1.00
C48    C     0.83231   0.78659   0.48390   0.00000  Uiso   1.00
C49    C     0.82703   0.73824   0.57893   0.00000  Uiso   1.00
C50    C     0.80357   0.78199   0.62719   0.00000  Uiso   1.00
C51    C     0.76826   0.82233   0.73671   0.00000  Uiso   1.00
C52    C     0.83771   0.73398   0.29942   0.00000  Uiso   1.00
C53    C     0.83698   0.64140   0.23935   0.00000  Uiso   1.00
C54    C     0.81808   0.64087   0.13231   0.00000  Uiso   1.00
C55    C     0.79118   0.59957   0.95540   0.00000  Uiso   1.00
C56    C     0.87815   0.84722   0.41293   0.00000  Uiso   1.00
C57    C     0.91142   0.84985   0.44826   0.00000  Uiso   1.00
C58    C     0.92656   0.94465   0.43676   0.00000  Uiso   1.00
C59    C     0.96244   0.07917   0.43609   0.00000  Uiso   1.00
C60    C     0.82449   0.91557   0.33449   0.00000  Uiso   1.00
C61    C     0.81478   0.87550   0.43865   0.00000  Uiso   1.00
C62    C     0.79133   0.91934   0.48679   0.00000  Uiso   1.00
C63    C     0.78601   0.87106   0.58188   0.00000  Uiso   1.00
C64    C     0.82019   0.82289   0.25418   0.00000  Uiso   1.00
C65    C     0.80128   0.82250   0.14721   0.00000  Uiso   1.00
C66    C     0.80052   0.72994   0.08699   0.00000  Uiso   1.00
C67    C     0.86062   0.93613   0.36769   0.00000  Uiso   1.00
C68    C     0.87572   0.03095   0.35612   0.00000  Uiso   1.00
C69    C     0.90900   0.03372   0.39144   0.00000  Uiso   1.00
H70    H     0.87040   0.68266   0.45298   0.00000  Uiso   1.00
H71    H     0.84059   0.66943   0.61390   0.00000  Uiso   1.00
H72    H     0.85055   0.57261   0.27437   0.00000  Uiso   1.00
H73    H     0.92497   0.78103   0.48326   0.00000  Uiso   1.00
H74    H     0.79980   0.69395   0.77234   0.00000  Uiso   1.00
H75    H     0.82081   0.48982   0.05641   0.00000  Uiso   1.00
H76    H     0.97774   0.92930   0.49689   0.00000  Uiso   1.00
H77    H     0.81085   0.98479   0.29927   0.00000  Uiso   1.00
H78    H     0.77777   0.98814   0.45176   0.00000  Uiso   1.00
H79    H     0.78772   0.89132   0.11223   0.00000  Uiso   1.00
H80    H     0.86215   0.09974   0.32112   0.00000  Uiso   1.00
H81    H     0.74881   0.95262   0.64074   0.00000  Uiso   1.00
H82    H     0.76982   0.74850   0.92480   0.00000  Uiso   1.00
H83    H     0.92675   0.18798   0.36528   0.00000  Uiso   1.00
O84    O     0.75361   0.82002   0.80961   0.00000  Uiso   1.00
O85    O     0.78117   0.55222   0.87032   0.00000  Uiso   1.00
O86    O     0.98707   0.12881   0.44823   0.00000  Uiso   1.00
N87    N     0.79235   0.75438   0.72046   0.00000  Uiso   1.00
N88    N     0.81198   0.56353   0.05110   0.00000  Uiso   1.00
N89    N     0.95870   0.97440   0.46289   0.00000  Uiso   1.00
N90    N     0.76491   0.89357   0.64964   0.00000  Uiso   1.00
N91    N     0.78454   0.70272   0.98029   0.00000  Uiso   1.00
N92    N     0.93126   0.11359   0.39207   0.00000  Uiso   1.00
C93    C     0.64324   0.25188   0.08223   0.00000  Uiso   1.00
C94    C     0.66769   0.28659   0.01610   0.00000  Uiso   1.00
C95    C     0.67297   0.23824   0.92107   0.00000  Uiso   1.00
C96    C     0.69643   0.28199   0.87281   0.00000  Uiso   1.00
C97    C     0.73174   0.32233   0.76329   0.00000  Uiso   1.00
C98    C     0.66229   0.23398   0.20058   0.00000  Uiso   1.00
C99    C     0.66302   0.14140   0.26065   0.00000  Uiso   1.00
C100   C     0.68192   0.14087   0.36769   0.00000  Uiso   1.00
C101   C     0.70882   0.09957   0.54460   0.00000  Uiso   1.00
C102   C     0.62185   0.34722   0.08707   0.00000  Uiso   1.00
C103   C     0.58858   0.34985   0.05174   0.00000  Uiso   1.00
C104   C     0.57344   0.44465   0.06324   0.00000  Uiso   1.00
C105   C     0.53756   0.57917   0.06391   0.00000  Uiso   1.00
C106   C     0.67551   0.41557   0.16551   0.00000  Uiso   1.00
C107   C     0.68522   0.37550   0.06135   0.00000  Uiso   1.00
C108   C     0.70867   0.41934   0.01321   0.00000  Uiso   1.00
C109   C     0.71399   0.37106   0.91812   0.00000  Uiso   1.00
C110   C     0.67981   0.32289   0.24582   0.00000  Uiso   1.00
C111   C     0.69872   0.32250   0.35279   0.00000  Uiso   1.00
C112   C     0.69948   0.22994   0.41301   0.00000  Uiso   1.00
C113   C     0.63938   0.43613   0.13231   0.00000  Uiso   1.00
C114   C     0.62428   0.53095   0.14388   0.00000  Uiso   1.00
C115   C     0.59100   0.53372   0.10856   0.00000  Uiso   1.00
H116   H     0.62960   0.18266   0.04702   0.00000  Uiso   1.00
H117   H     0.65941   0.16943   0.88610   0.00000  Uiso   1.00
H118   H     0.64945   0.07261   0.22563   0.00000  Uiso   1.00
H119   H     0.57503   0.28103   0.01674   0.00000  Uiso   1.00
H120   H     0.70020   0.19395   0.72766   0.00000  Uiso   1.00
H121   H     0.67919   0.98982   0.44359   0.00000  Uiso   1.00
H122   H     0.52226   0.42930   0.00311   0.00000  Uiso   1.00
H123   H     0.68915   0.48479   0.20073   0.00000  Uiso   1.00
H124   H     0.72223   0.48814   0.04824   0.00000  Uiso   1.00
H125   H     0.71228   0.39132   0.38777   0.00000  Uiso   1.00
H126   H     0.63785   0.59974   0.17888   0.00000  Uiso   1.00
H127   H     0.75119   0.45262   0.85926   0.00000  Uiso   1.00
H128   H     0.73018   0.24850   0.57520   0.00000  Uiso   1.00
H129   H     0.57325   0.68798   0.13472   0.00000  Uiso   1.00
O130   O     0.74639   0.32002   0.69039   0.00000  Uiso   1.00
O131   O     0.71883   0.05222   0.62968   0.00000  Uiso   1.00
O132   O     0.51293   0.62881   0.05177   0.00000  Uiso   1.00
N133   N     0.70765   0.25438   0.77954   0.00000  Uiso   1.00
N134   N     0.68802   0.06353   0.44890   0.00000  Uiso   1.00
N135   N     0.54130   0.47440   0.03711   0.00000  Uiso   1.00
N136   N     0.73509   0.39357   0.85036   0.00000  Uiso   1.00
N137   N     0.71546   0.20272   0.51971   0.00000  Uiso   1.00
N138   N     0.56874   0.61359   0.10793   0.00000  Uiso   1.00
C139   C     0.14324   0.75188   0.08223   0.00000  Uiso   1.00
C140   C     0.16769   0.78659   0.01610   0.00000  Uiso   1.00
C141   C     0.17297   0.73824   0.92107   0.00000  Uiso   1.00
C142   C     0.19643   0.78199   0.87281   0.00000  Uiso   1.00
C143   C     0.23174   0.82233   0.76329   0.00000  Uiso   1.00
C144   C     0.16229   0.73398   0.20058   0.00000  Uiso   1.00
C145   C     0.16302   0.64140   0.26065   0.00000  Uiso   1.00
C146   C     0.18192   0.64087   0.36769   0.00000  Uiso   1.00
C147   C     0.20882   0.59957   0.54460   0.00000  Uiso   1.00
C148   C     0.12185   0.84722   0.08707   0.00000  Uiso   1.00
C149   C     0.08858   0.84985   0.05174   0.00000  Uiso   1.00
C150   C     0.07344   0.94465   0.06324   0.00000  Uiso   1.00
C151   C     0.03756   0.07917   0.06391   0.00000  Uiso   1.00
C152   C     0.17551   0.91557   0.16551   0.00000  Uiso   1.00
C153   C     0.18522   0.87550   0.06135   0.00000  Uiso   1.00
C154   C     0.20867   0.91934   0.01321   0.00000  Uiso   1.00
C155   C     0.21399   0.87106   0.91812   0.00000  Uiso   1.00
C156   C     0.17981   0.82289   0.24582   0.00000  Uiso   1.00
C157   C     0.19872   0.82250   0.35279   0.00000  Uiso   1.00
C158   C     0.19948   0.72994   0.41301   0.00000  Uiso   1.00
C159   C     0.13938   0.93613   0.13231   0.00000  Uiso   1.00
C160   C     0.12428   0.03095   0.14388   0.00000  Uiso   1.00
C161   C     0.09100   0.03372   0.10856   0.00000  Uiso   1.00
H162   H     0.12960   0.68266   0.04702   0.00000  Uiso   1.00
H163   H     0.15941   0.66943   0.88610   0.00000  Uiso   1.00
H164   H     0.14945   0.57261   0.22563   0.00000  Uiso   1.00
H165   H     0.07503   0.78103   0.01674   0.00000  Uiso   1.00
H166   H     0.20020   0.69395   0.72766   0.00000  Uiso   1.00
H167   H     0.17919   0.48982   0.44359   0.00000  Uiso   1.00
H168   H     0.02226   0.92930   0.00311   0.00000  Uiso   1.00
H169   H     0.18915   0.98479   0.20073   0.00000  Uiso   1.00
H170   H     0.22223   0.98814   0.04824   0.00000  Uiso   1.00
H171   H     0.21228   0.89132   0.38777   0.00000  Uiso   1.00
H172   H     0.13785   0.09974   0.17888   0.00000  Uiso   1.00
H173   H     0.25119   0.95262   0.85926   0.00000  Uiso   1.00
H174   H     0.23018   0.74850   0.57520   0.00000  Uiso   1.00
H175   H     0.07325   0.18798   0.13472   0.00000  Uiso   1.00
O176   O     0.24639   0.82002   0.69039   0.00000  Uiso   1.00
O177   O     0.21883   0.55222   0.62968   0.00000  Uiso   1.00
O178   O     0.01293   0.12881   0.05177   0.00000  Uiso   1.00
N179   N     0.20765   0.75438   0.77954   0.00000  Uiso   1.00
N180   N     0.18802   0.56353   0.44890   0.00000  Uiso   1.00
N181   N     0.04130   0.97440   0.03711   0.00000  Uiso   1.00
N182   N     0.23509   0.89357   0.85036   0.00000  Uiso   1.00
N183   N     0.21546   0.70272   0.51971   0.00000  Uiso   1.00
N184   N     0.06874   0.11359   0.10793   0.00000  Uiso   1.00
C185   C     0.64324   0.74812   0.58223   0.00000  Uiso   1.00
C186   C     0.66769   0.71341   0.51610   0.00000  Uiso   1.00
C187   C     0.67297   0.76176   0.42107   0.00000  Uiso   1.00
C188   C     0.69643   0.71801   0.37281   0.00000  Uiso   1.00
C189   C     0.73174   0.67767   0.26329   0.00000  Uiso   1.00
C190   C     0.66229   0.76602   0.70058   0.00000  Uiso   1.00
C191   C     0.66302   0.85860   0.76065   0.00000  Uiso   1.00
C192   C     0.68192   0.85913   0.86769   0.00000  Uiso   1.00
C193   C     0.70882   0.90043   0.04460   0.00000  Uiso   1.00
C194   C     0.62185   0.65278   0.58707   0.00000  Uiso   1.00
C195   C     0.58858   0.65015   0.55174   0.00000  Uiso   1.00
C196   C     0.57344   0.55535   0.56324   0.00000  Uiso   1.00
C197   C     0.53756   0.42083   0.56391   0.00000  Uiso   1.00
C198   C     0.67551   0.58443   0.66551   0.00000  Uiso   1.00
C199   C     0.68522   0.62450   0.56135   0.00000  Uiso   1.00
C200   C     0.70867   0.58066   0.51321   0.00000  Uiso   1.00
C201   C     0.71399   0.62894   0.41812   0.00000  Uiso   1.00
C202   C     0.67981   0.67711   0.74582   0.00000  Uiso   1.00
C203   C     0.69872   0.67750   0.85279   0.00000  Uiso   1.00
C204   C     0.69948   0.77006   0.91301   0.00000  Uiso   1.00
C205   C     0.63938   0.56387   0.63231   0.00000  Uiso   1.00
C206   C     0.62428   0.46905   0.64388   0.00000  Uiso   1.00
C207   C     0.59100   0.46628   0.60856   0.00000  Uiso   1.00
H208   H     0.62960   0.81734   0.54702   0.00000  Uiso   1.00
H209   H     0.65941   0.83057   0.38610   0.00000  Uiso   1.00
H210   H     0.64945   0.92739   0.72563   0.00000  Uiso   1.00
H211   H     0.57503   0.71897   0.51674   0.00000  Uiso   1.00
H212   H     0.70020   0.80605   0.22766   0.00000  Uiso   1.00
H213   H     0.67919   0.01018   0.94359   0.00000  Uiso   1.00
H214   H     0.52226   0.57070   0.50311   0.00000  Uiso   1.00
H215   H     0.68915   0.51521   0.70073   0.00000  Uiso   1.00
H216   H     0.72223   0.51186   0.54824   0.00000  Uiso   1.00
H217   H     0.71228   0.60868   0.88777   0.00000  Uiso   1.00
H218   H     0.63785   0.40026   0.67888   0.00000  Uiso   1.00
H219   H     0.75119   0.54738   0.35926   0.00000  Uiso   1.00
H220   H     0.73018   0.75150   0.07520   0.00000  Uiso   1.00
H221   H     0.57325   0.31202   0.63472   0.00000  Uiso   1.00
O222   O     0.74639   0.67998   0.19039   0.00000  Uiso   1.00
O223   O     0.71883   0.94778   0.12968   0.00000  Uiso   1.00
O224   O     0.51293   0.37119   0.55177   0.00000  Uiso   1.00
N225   N     0.70765   0.74562   0.27954   0.00000  Uiso   1.00
N226   N     0.68802   0.93647   0.94890   0.00000  Uiso   1.00
N227   N     0.54130   0.52560   0.53711   0.00000  Uiso   1.00
N228   N     0.73509   0.60643   0.35036   0.00000  Uiso   1.00
N229   N     0.71546   0.79728   0.01971   0.00000  Uiso   1.00
N230   N     0.56874   0.38641   0.60793   0.00000  Uiso   1.00
C231   C     0.14324   0.24812   0.58223   0.00000  Uiso   1.00
C232   C     0.16769   0.21341   0.51610   0.00000  Uiso   1.00
C233   C     0.17297   0.26176   0.42107   0.00000  Uiso   1.00
C234   C     0.19643   0.21801   0.37281   0.00000  Uiso   1.00
C235   C     0.23174   0.17767   0.26329   0.00000  Uiso   1.00
C236   C     0.16229   0.26602   0.70058   0.00000  Uiso   1.00
C237   C     0.16302   0.35860   0.76065   0.00000  Uiso   1.00
C238   C     0.18192   0.35913   0.86769   0.00000  Uiso   1.00
C239   C     0.20882   0.40043   0.04460   0.00000  Uiso   1.00
C240   C     0.12185   0.15278   0.58707   0.00000  Uiso   1.00
C241   C     0.08858   0.15015   0.55174   0.00000  Uiso   1.00
C242   C     0.07344   0.05535   0.56324   0.00000  Uiso   1.00
C243   C     0.03756   0.92083   0.56391   0.00000  Uiso   1.00
C244   C     0.17551   0.08443   0.66551   0.00000  Uiso   1.00
C245   C     0.18522   0.12450   0.56135   0.00000  Uiso   1.00
C246   C     0.20867   0.08066   0.51321   0.00000  Uiso   1.00
C247   C     0.21399   0.12894   0.41812   0.00000  Uiso   1.00
C248   C     0.17981   0.17711   0.74582   0.00000  Uiso   1.00
C249   C     0.19872   0.17750   0.85279   0.00000  Uiso   1.00
C250   C     0.19948   0.27006   0.91301   0.00000  Uiso   1.00
C251   C     0.13938   0.06387   0.63231   0.00000  Uiso   1.00
C252   C     0.12428   0.96905   0.64388   0.00000  Uiso   1.00
C253   C     0.09100   0.96628   0.60856   0.00000  Uiso   1.00
H254   H     0.12960   0.31734   0.54702   0.00000  Uiso   1.00
H255   H     0.15941   0.33057   0.38610   0.00000  Uiso   1.00
H256   H     0.14945   0.42739   0.72563   0.00000  Uiso   1.00
H257   H     0.07503   0.21897   0.51674   0.00000  Uiso   1.00
H258   H     0.20020   0.30605   0.22766   0.00000  Uiso   1.00
H259   H     0.17919   0.51018   0.94359   0.00000  Uiso   1.00
H260   H     0.02226   0.07070   0.50311   0.00000  Uiso   1.00
H261   H     0.18915   0.01521   0.70073   0.00000  Uiso   1.00
H262   H     0.22223   0.01186   0.54824   0.00000  Uiso   1.00
H263   H     0.21228   0.10868   0.88777   0.00000  Uiso   1.00
H264   H     0.13785   0.90026   0.67888   0.00000  Uiso   1.00
H265   H     0.25119   0.04738   0.35926   0.00000  Uiso   1.00
H266   H     0.23018   0.25150   0.07520   0.00000  Uiso   1.00
H267   H     0.07325   0.81202   0.63472   0.00000  Uiso   1.00
O268   O     0.24639   0.17998   0.19039   0.00000  Uiso   1.00
O269   O     0.21883   0.44778   0.12968   0.00000  Uiso   1.00
O270   O     0.01293   0.87119   0.55177   0.00000  Uiso   1.00
N271   N     0.20765   0.24562   0.27954   0.00000  Uiso   1.00
N272   N     0.18802   0.43647   0.94890   0.00000  Uiso   1.00
N273   N     0.04130   0.02560   0.53711   0.00000  Uiso   1.00
N274   N     0.23509   0.10643   0.35036   0.00000  Uiso   1.00
N275   N     0.21546   0.29728   0.01971   0.00000  Uiso   1.00
N276   N     0.06874   0.88641   0.60793   0.00000  Uiso   1.00
C277   C     0.35676   0.74812   0.91777   0.00000  Uiso   1.00
C278   C     0.33231   0.71341   0.98390   0.00000  Uiso   1.00
C279   C     0.32703   0.76176   0.07893   0.00000  Uiso   1.00
C280   C     0.30357   0.71801   0.12719   0.00000  Uiso   1.00
C281   C     0.26826   0.67767   0.23671   0.00000  Uiso   1.00
C282   C     0.33771   0.76602   0.79942   0.00000  Uiso   1.00
C283   C     0.33698   0.85860   0.73935   0.00000  Uiso   1.00
C284   C     0.31808   0.85913   0.63231   0.00000  Uiso   1.00
C285   C     0.29118   0.90043   0.45540   0.00000  Uiso   1.00
C286   C     0.37815   0.65278   0.91293   0.00000  Uiso   1.00
C287   C     0.41142   0.65015   0.94826   0.00000  Uiso   1.00
C288   C     0.42656   0.55535   0.93676   0.00000  Uiso   1.00
C289   C     0.46244   0.42083   0.93609   0.00000  Uiso   1.00
C290   C     0.32449   0.58443   0.83449   0.00000  Uiso   1.00
C291   C     0.31478   0.62450   0.93865   0.00000  Uiso   1.00
C292   C     0.29133   0.58066   0.98679   0.00000  Uiso   1.00
C293   C     0.28601   0.62894   0.08188   0.00000  Uiso   1.00
C294   C     0.32019   0.67711   0.75418   0.00000  Uiso   1.00
C295   C     0.30128   0.67750   0.64721   0.00000  Uiso   1.00
C296   C     0.30052   0.77006   0.58699   0.00000  Uiso   1.00
C297   C     0.36062   0.56387   0.86769   0.00000  Uiso   1.00
C298   C     0.37572   0.46905   0.85612   0.00000  Uiso   1.00
C299   C     0.40900   0.46628   0.89144   0.00000  Uiso   1.00
H300   H     0.37040   0.81734   0.95298   0.00000  Uiso   1.00
H301   H     0.34059   0.83057   0.11390   0.00000  Uiso   1.00
H302   H     0.35055   0.92739   0.77437   0.00000  Uiso   1.00
H303   H     0.42497   0.71897   0.98326   0.00000  Uiso   1.00
H304   H     0.29980   0.80605   0.27234   0.00000  Uiso   1.00
H305   H     0.32081   0.01018   0.55641   0.00000  Uiso   1.00
H306   H     0.47774   0.57070   0.99689   0.00000  Uiso   1.00
H307   H     0.31085   0.51521   0.79927   0.00000  Uiso   1.00
H308   H     0.27777   0.51186   0.95176   0.00000  Uiso   1.00
H309   H     0.28772   0.60868   0.61223   0.00000  Uiso   1.00
H310   H     0.36215   0.40026   0.82112   0.00000  Uiso   1.00
H311   H     0.24881   0.54738   0.14074   0.00000  Uiso   1.00
H312   H     0.26982   0.75150   0.42480   0.00000  Uiso   1.00
H313   H     0.42675   0.31202   0.86528   0.00000  Uiso   1.00
O314   O     0.25361   0.67998   0.30961   0.00000  Uiso   1.00
O315   O     0.28117   0.94778   0.37032   0.00000  Uiso   1.00
O316   O     0.48707   0.37119   0.94823   0.00000  Uiso   1.00
N317   N     0.29235   0.74562   0.22046   0.00000  Uiso   1.00
N318   N     0.31198   0.93647   0.55110   0.00000  Uiso   1.00
N319   N     0.45870   0.52560   0.96289   0.00000  Uiso   1.00
N320   N     0.26491   0.60643   0.14964   0.00000  Uiso   1.00
N321   N     0.28454   0.79728   0.48029   0.00000  Uiso   1.00
N322   N     0.43126   0.38641   0.89207   0.00000  Uiso   1.00
C323   C     0.85676   0.24812   0.91777   0.00000  Uiso   1.00
C324   C     0.83231   0.21341   0.98390   0.00000  Uiso   1.00
C325   C     0.82703   0.26176   0.07893   0.00000  Uiso   1.00
C326   C     0.80357   0.21801   0.12719   0.00000  Uiso   1.00
C327   C     0.76826   0.17767   0.23671   0.00000  Uiso   1.00
C328   C     0.83771   0.26602   0.79942   0.00000  Uiso   1.00
C329   C     0.83698   0.35860   0.73935   0.00000  Uiso   1.00
C330   C     0.81808   0.35913   0.63231   0.00000  Uiso   1.00
C331   C     0.79118   0.40043   0.45540   0.00000  Uiso   1.00
C332   C     0.87815   0.15278   0.91293   0.00000  Uiso   1.00
C333   C     0.91142   0.15015   0.94826   0.00000  Uiso   1.00
C334   C     0.92656   0.05535   0.93676   0.00000  Uiso   1.00
C335   C     0.96244   0.92083   0.93609   0.00000  Uiso   1.00
C336   C     0.82449   0.08443   0.83449   0.00000  Uiso   1.00
C337   C     0.81478   0.12450   0.93865   0.00000  Uiso   1.00
C338   C     0.79133   0.08066   0.98679   0.00000  Uiso   1.00
C339   C     0.78601   0.12894   0.08188   0.00000  Uiso   1.00
C340   C     0.82019   0.17711   0.75418   0.00000  Uiso   1.00
C341   C     0.80128   0.17750   0.64721   0.00000  Uiso   1.00
C342   C     0.80052   0.27006   0.58699   0.00000  Uiso   1.00
C343   C     0.86062   0.06387   0.86769   0.00000  Uiso   1.00
C344   C     0.87572   0.96905   0.85612   0.00000  Uiso   1.00
C345   C     0.90900   0.96628   0.89144   0.00000  Uiso   1.00
H346   H     0.87040   0.31734   0.95298   0.00000  Uiso   1.00
H347   H     0.84059   0.33057   0.11390   0.00000  Uiso   1.00
H348   H     0.85055   0.42739   0.77437   0.00000  Uiso   1.00
H349   H     0.92497   0.21897   0.98326   0.00000  Uiso   1.00
H350   H     0.79980   0.30605   0.27234   0.00000  Uiso   1.00
H351   H     0.82081   0.51018   0.55641   0.00000  Uiso   1.00
H352   H     0.97774   0.07070   0.99689   0.00000  Uiso   1.00
H353   H     0.81085   0.01521   0.79927   0.00000  Uiso   1.00
H354   H     0.77777   0.01186   0.95176   0.00000  Uiso   1.00
H355   H     0.78772   0.10868   0.61223   0.00000  Uiso   1.00
H356   H     0.86215   0.90026   0.82112   0.00000  Uiso   1.00
H357   H     0.74881   0.04738   0.14074   0.00000  Uiso   1.00
H358   H     0.76982   0.25150   0.42480   0.00000  Uiso   1.00
H359   H     0.92675   0.81202   0.86528   0.00000  Uiso   1.00
O360   O     0.75361   0.17998   0.30961   0.00000  Uiso   1.00
O361   O     0.78117   0.44778   0.37032   0.00000  Uiso   1.00
O362   O     0.98707   0.87119   0.94823   0.00000  Uiso   1.00
N363   N     0.79235   0.24562   0.22046   0.00000  Uiso   1.00
N364   N     0.81198   0.43647   0.55110   0.00000  Uiso   1.00
N365   N     0.95870   0.02560   0.96289   0.00000  Uiso   1.00
N366   N     0.76491   0.10643   0.14964   0.00000  Uiso   1.00
N367   N     0.78454   0.29728   0.48029   0.00000  Uiso   1.00
N368   N     0.93126   0.88641   0.89207   0.00000  Uiso   1.00
