data_job_03087
_audit_creation_date              2018-12-19
_audit_creation_method            'Materials Studio'
_symmetry_space_group_name_H-M    'P1'
_symmetry_Int_Tables_number       1
_symmetry_cell_setting            triclinic
loop_
_symmetry_equiv_pos_as_xyz
  x,y,z
_cell_length_a                    19.2897
_cell_length_b                    20.7802
_cell_length_c                    13.3812
_cell_angle_alpha                 90.0000
_cell_angle_beta                  90.0000
_cell_angle_gamma                 90.0000
loop_
_atom_site_label
_atom_site_type_symbol
_atom_site_fract_x
_atom_site_fract_y
_atom_site_fract_z
_atom_site_U_iso_or_equiv
_atom_site_adp_type
_atom_site_occupancy
C1     C     0.92423   0.70449   0.06081   0.00000  Uiso   1.00
C2     C     0.86448   0.75018   0.03773   0.00000  Uiso   1.00
C3     C     0.81120   0.76640   0.10271   0.00000  Uiso   1.00
C4     C     0.76145   0.80901   0.06745   0.00000  Uiso   1.00
C5     C     0.66812   0.87606   0.04632   0.00000  Uiso   1.00
C6     C     0.92211   0.65266   0.98020   0.00000  Uiso   1.00
C7     C     0.91731   0.58689   0.99682   0.00000  Uiso   1.00
C8     C     0.91609   0.54741   0.91313   0.00000  Uiso   1.00
C9     C     0.91229   0.46305   0.80268   0.00000  Uiso   1.00
C10    C     0.99048   0.74273   0.04239   0.00000  Uiso   1.00
C11    C     0.04318   0.75268   0.11129   0.00000  Uiso   1.00
C12    C     0.09953   0.78902   0.07995   0.00000  Uiso   1.00
C13    C     0.20188   0.84451   0.06607   0.00000  Uiso   1.00
C14    C     0.93062   0.75133   0.88262   0.00000  Uiso   1.00
C15    C     0.86795   0.77562   0.94094   0.00000  Uiso   1.00
C16    C     0.81827   0.81822   0.90557   0.00000  Uiso   1.00
C17    C     0.76493   0.83450   0.97050   0.00000  Uiso   1.00
C18    C     0.92558   0.67810   0.88342   0.00000  Uiso   1.00
C19    C     0.92438   0.63870   0.79968   0.00000  Uiso   1.00
C20    C     0.91957   0.57289   0.81617   0.00000  Uiso   1.00
C21    C     0.99395   0.76817   0.94561   0.00000  Uiso   1.00
C22    C     0.05024   0.80450   0.91415   0.00000  Uiso   1.00
C23    C     0.10301   0.81450   0.98300   0.00000  Uiso   1.00
H24    H     0.92153   0.68468   0.13616   0.00000  Uiso   1.00
H25    H     0.80853   0.74670   0.17761   0.00000  Uiso   1.00
H26    H     0.91463   0.56721   0.07173   0.00000  Uiso   1.00
H27    H     0.04047   0.73298   0.18618   0.00000  Uiso   1.00
H28    H     0.68477   0.82665   0.18087   0.00000  Uiso   1.00
H29    H     0.90851   0.44820   0.95762   0.00000  Uiso   1.00
H30    H     0.17387   0.79775   0.19897   0.00000  Uiso   1.00
H31    H     0.93332   0.77113   0.80727   0.00000  Uiso   1.00
H32    H     0.82097   0.83790   0.83067   0.00000  Uiso   1.00
H33    H     0.92707   0.65841   0.72479   0.00000  Uiso   1.00
H34    H     0.05291   0.82418   0.83925   0.00000  Uiso   1.00
H35    H     0.69486   0.90067   0.89928   0.00000  Uiso   1.00
H36    H     0.91860   0.52221   0.67603   0.00000  Uiso   1.00
H37    H     0.18396   0.87177   0.91738   0.00000  Uiso   1.00
O38    O     0.61568   0.90600   0.06139   0.00000  Uiso   1.00
O39    O     0.90923   0.40949   0.76850   0.00000  Uiso   1.00
O40    O     0.25738   0.86810   0.08515   0.00000  Uiso   1.00
N41    N     0.70257   0.83492   0.11139   0.00000  Uiso   1.00
N42    N     0.91174   0.48109   0.90267   0.00000  Uiso   1.00
N43    N     0.15984   0.80788   0.12830   0.00000  Uiso   1.00
N44    N     0.70800   0.87475   0.95987   0.00000  Uiso   1.00
N45    N     0.91717   0.52092   0.75115   0.00000  Uiso   1.00
N46    N     0.16527   0.84771   0.97678   0.00000  Uiso   1.00
C47    C     0.57577   0.79551   0.56081   0.00000  Uiso   1.00
C48    C     0.63552   0.74982   0.53773   0.00000  Uiso   1.00
C49    C     0.68880   0.73360   0.60271   0.00000  Uiso   1.00
C50    C     0.73855   0.69099   0.56745   0.00000  Uiso   1.00
C51    C     0.83188   0.62394   0.54632   0.00000  Uiso   1.00
C52    C     0.57789   0.84734   0.48020   0.00000  Uiso   1.00
C53    C     0.58269   0.91311   0.49682   0.00000  Uiso   1.00
C54    C     0.58391   0.95259   0.41313   0.00000  Uiso   1.00
C55    C     0.58771   0.03695   0.30268   0.00000  Uiso   1.00
C56    C     0.50952   0.75727   0.54239   0.00000  Uiso   1.00
C57    C     0.45682   0.74732   0.61129   0.00000  Uiso   1.00
C58    C     0.40047   0.71098   0.57995   0.00000  Uiso   1.00
C59    C     0.29812   0.65549   0.56607   0.00000  Uiso   1.00
C60    C     0.56938   0.74867   0.38262   0.00000  Uiso   1.00
C61    C     0.63205   0.72438   0.44094   0.00000  Uiso   1.00
C62    C     0.68173   0.68178   0.40557   0.00000  Uiso   1.00
C63    C     0.73507   0.66550   0.47050   0.00000  Uiso   1.00
C64    C     0.57442   0.82190   0.38342   0.00000  Uiso   1.00
C65    C     0.57562   0.86130   0.29968   0.00000  Uiso   1.00
C66    C     0.58043   0.92711   0.31617   0.00000  Uiso   1.00
C67    C     0.50605   0.73183   0.44561   0.00000  Uiso   1.00
C68    C     0.44976   0.69550   0.41415   0.00000  Uiso   1.00
C69    C     0.39699   0.68550   0.48300   0.00000  Uiso   1.00
H70    H     0.57847   0.81532   0.63616   0.00000  Uiso   1.00
H71    H     0.69147   0.75330   0.67761   0.00000  Uiso   1.00
H72    H     0.58537   0.93279   0.57173   0.00000  Uiso   1.00
H73    H     0.45953   0.76702   0.68618   0.00000  Uiso   1.00
H74    H     0.81523   0.67335   0.68087   0.00000  Uiso   1.00
H75    H     0.59149   0.05180   0.45762   0.00000  Uiso   1.00
H76    H     0.32613   0.70225   0.69897   0.00000  Uiso   1.00
H77    H     0.56668   0.72887   0.30727   0.00000  Uiso   1.00
H78    H     0.67903   0.66210   0.33067   0.00000  Uiso   1.00
H79    H     0.57293   0.84159   0.22479   0.00000  Uiso   1.00
H80    H     0.44709   0.67582   0.33925   0.00000  Uiso   1.00
H81    H     0.80514   0.59933   0.39928   0.00000  Uiso   1.00
H82    H     0.58140   0.97779   0.17603   0.00000  Uiso   1.00
H83    H     0.31604   0.62823   0.41738   0.00000  Uiso   1.00
O84    O     0.88432   0.59400   0.56139   0.00000  Uiso   1.00
O85    O     0.59077   0.09051   0.26850   0.00000  Uiso   1.00
O86    O     0.24262   0.63190   0.58515   0.00000  Uiso   1.00
N87    N     0.79743   0.66508   0.61139   0.00000  Uiso   1.00
N88    N     0.58826   0.01891   0.40267   0.00000  Uiso   1.00
N89    N     0.34016   0.69212   0.62830   0.00000  Uiso   1.00
N90    N     0.79200   0.62525   0.45987   0.00000  Uiso   1.00
N91    N     0.58283   0.97908   0.25115   0.00000  Uiso   1.00
N92    N     0.33473   0.65229   0.47678   0.00000  Uiso   1.00
C93    C     0.07577   0.70449   0.43919   0.00000  Uiso   1.00
C94    C     0.13552   0.75018   0.46227   0.00000  Uiso   1.00
C95    C     0.18880   0.76640   0.39729   0.00000  Uiso   1.00
C96    C     0.23855   0.80901   0.43255   0.00000  Uiso   1.00
C97    C     0.33188   0.87606   0.45368   0.00000  Uiso   1.00
C98    C     0.07789   0.65266   0.51980   0.00000  Uiso   1.00
C99    C     0.08269   0.58689   0.50318   0.00000  Uiso   1.00
C100   C     0.08391   0.54741   0.58687   0.00000  Uiso   1.00
C101   C     0.08771   0.46305   0.69732   0.00000  Uiso   1.00
C102   C     0.00952   0.74273   0.45761   0.00000  Uiso   1.00
C103   C     0.95682   0.75268   0.38871   0.00000  Uiso   1.00
C104   C     0.90047   0.78902   0.42005   0.00000  Uiso   1.00
C105   C     0.79812   0.84451   0.43393   0.00000  Uiso   1.00
C106   C     0.06938   0.75133   0.61738   0.00000  Uiso   1.00
C107   C     0.13205   0.77562   0.55906   0.00000  Uiso   1.00
C108   C     0.18173   0.81822   0.59443   0.00000  Uiso   1.00
C109   C     0.23507   0.83450   0.52950   0.00000  Uiso   1.00
C110   C     0.07442   0.67810   0.61658   0.00000  Uiso   1.00
C111   C     0.07562   0.63870   0.70032   0.00000  Uiso   1.00
C112   C     0.08043   0.57289   0.68383   0.00000  Uiso   1.00
C113   C     0.00605   0.76817   0.55439   0.00000  Uiso   1.00
C114   C     0.94976   0.80450   0.58585   0.00000  Uiso   1.00
C115   C     0.89699   0.81450   0.51700   0.00000  Uiso   1.00
H116   H     0.07847   0.68468   0.36384   0.00000  Uiso   1.00
H117   H     0.19147   0.74670   0.32239   0.00000  Uiso   1.00
H118   H     0.08537   0.56721   0.42827   0.00000  Uiso   1.00
H119   H     0.95953   0.73298   0.31382   0.00000  Uiso   1.00
H120   H     0.31523   0.82665   0.31913   0.00000  Uiso   1.00
H121   H     0.09149   0.44820   0.54238   0.00000  Uiso   1.00
H122   H     0.82613   0.79775   0.30103   0.00000  Uiso   1.00
H123   H     0.06668   0.77113   0.69273   0.00000  Uiso   1.00
H124   H     0.17903   0.83790   0.66933   0.00000  Uiso   1.00
H125   H     0.07293   0.65841   0.77521   0.00000  Uiso   1.00
H126   H     0.94709   0.82418   0.66075   0.00000  Uiso   1.00
H127   H     0.30514   0.90067   0.60072   0.00000  Uiso   1.00
H128   H     0.08140   0.52221   0.82397   0.00000  Uiso   1.00
H129   H     0.81604   0.87177   0.58262   0.00000  Uiso   1.00
O130   O     0.38432   0.90600   0.43861   0.00000  Uiso   1.00
O131   O     0.09077   0.40949   0.73150   0.00000  Uiso   1.00
O132   O     0.74262   0.86810   0.41485   0.00000  Uiso   1.00
N133   N     0.29743   0.83492   0.38861   0.00000  Uiso   1.00
N134   N     0.08826   0.48109   0.59733   0.00000  Uiso   1.00
N135   N     0.84016   0.80788   0.37170   0.00000  Uiso   1.00
N136   N     0.29200   0.87475   0.54013   0.00000  Uiso   1.00
N137   N     0.08283   0.52092   0.74885   0.00000  Uiso   1.00
N138   N     0.83473   0.84771   0.52322   0.00000  Uiso   1.00
C139   C     0.42423   0.79551   0.93919   0.00000  Uiso   1.00
C140   C     0.36448   0.74982   0.96227   0.00000  Uiso   1.00
C141   C     0.31120   0.73360   0.89729   0.00000  Uiso   1.00
C142   C     0.26145   0.69099   0.93255   0.00000  Uiso   1.00
C143   C     0.16812   0.62394   0.95368   0.00000  Uiso   1.00
C144   C     0.42211   0.84734   0.01980   0.00000  Uiso   1.00
C145   C     0.41731   0.91311   0.00318   0.00000  Uiso   1.00
C146   C     0.41609   0.95259   0.08687   0.00000  Uiso   1.00
C147   C     0.41229   0.03695   0.19732   0.00000  Uiso   1.00
C148   C     0.49048   0.75727   0.95761   0.00000  Uiso   1.00
C149   C     0.54318   0.74732   0.88871   0.00000  Uiso   1.00
C150   C     0.59953   0.71098   0.92005   0.00000  Uiso   1.00
C151   C     0.70188   0.65549   0.93393   0.00000  Uiso   1.00
C152   C     0.43062   0.74867   0.11738   0.00000  Uiso   1.00
C153   C     0.36795   0.72438   0.05906   0.00000  Uiso   1.00
C154   C     0.31827   0.68178   0.09443   0.00000  Uiso   1.00
C155   C     0.26493   0.66550   0.02950   0.00000  Uiso   1.00
C156   C     0.42558   0.82190   0.11658   0.00000  Uiso   1.00
C157   C     0.42438   0.86130   0.20032   0.00000  Uiso   1.00
C158   C     0.41957   0.92711   0.18383   0.00000  Uiso   1.00
C159   C     0.49395   0.73183   0.05439   0.00000  Uiso   1.00
C160   C     0.55024   0.69550   0.08585   0.00000  Uiso   1.00
C161   C     0.60301   0.68550   0.01700   0.00000  Uiso   1.00
H162   H     0.42153   0.81532   0.86384   0.00000  Uiso   1.00
H163   H     0.30853   0.75330   0.82239   0.00000  Uiso   1.00
H164   H     0.41463   0.93279   0.92827   0.00000  Uiso   1.00
H165   H     0.54047   0.76702   0.81382   0.00000  Uiso   1.00
H166   H     0.18477   0.67335   0.81913   0.00000  Uiso   1.00
H167   H     0.40851   0.05180   0.04238   0.00000  Uiso   1.00
H168   H     0.67387   0.70225   0.80103   0.00000  Uiso   1.00
H169   H     0.43332   0.72887   0.19273   0.00000  Uiso   1.00
H170   H     0.32097   0.66210   0.16933   0.00000  Uiso   1.00
H171   H     0.42707   0.84159   0.27521   0.00000  Uiso   1.00
H172   H     0.55291   0.67582   0.16075   0.00000  Uiso   1.00
H173   H     0.19486   0.59933   0.10072   0.00000  Uiso   1.00
H174   H     0.41860   0.97779   0.32397   0.00000  Uiso   1.00
H175   H     0.68396   0.62823   0.08262   0.00000  Uiso   1.00
O176   O     0.11568   0.59400   0.93861   0.00000  Uiso   1.00
O177   O     0.40923   0.09051   0.23150   0.00000  Uiso   1.00
O178   O     0.75738   0.63190   0.91485   0.00000  Uiso   1.00
N179   N     0.20257   0.66508   0.88861   0.00000  Uiso   1.00
N180   N     0.41174   0.01891   0.09733   0.00000  Uiso   1.00
N181   N     0.65984   0.69212   0.87170   0.00000  Uiso   1.00
N182   N     0.20800   0.62525   0.04013   0.00000  Uiso   1.00
N183   N     0.41717   0.97908   0.24885   0.00000  Uiso   1.00
N184   N     0.66527   0.65229   0.02322   0.00000  Uiso   1.00
C185   C     0.07577   0.29551   0.93919   0.00000  Uiso   1.00
C186   C     0.13552   0.24982   0.96227   0.00000  Uiso   1.00
C187   C     0.18880   0.23360   0.89729   0.00000  Uiso   1.00
C188   C     0.23855   0.19099   0.93255   0.00000  Uiso   1.00
C189   C     0.33188   0.12394   0.95368   0.00000  Uiso   1.00
C190   C     0.07789   0.34734   0.01980   0.00000  Uiso   1.00
C191   C     0.08269   0.41311   0.00318   0.00000  Uiso   1.00
C192   C     0.08391   0.45259   0.08687   0.00000  Uiso   1.00
C193   C     0.08771   0.53695   0.19732   0.00000  Uiso   1.00
C194   C     0.00952   0.25727   0.95761   0.00000  Uiso   1.00
C195   C     0.95682   0.24732   0.88871   0.00000  Uiso   1.00
C196   C     0.90047   0.21098   0.92005   0.00000  Uiso   1.00
C197   C     0.79812   0.15549   0.93393   0.00000  Uiso   1.00
C198   C     0.06938   0.24867   0.11738   0.00000  Uiso   1.00
C199   C     0.13205   0.22438   0.05906   0.00000  Uiso   1.00
C200   C     0.18173   0.18178   0.09443   0.00000  Uiso   1.00
C201   C     0.23507   0.16550   0.02950   0.00000  Uiso   1.00
C202   C     0.07442   0.32190   0.11658   0.00000  Uiso   1.00
C203   C     0.07562   0.36130   0.20032   0.00000  Uiso   1.00
C204   C     0.08043   0.42711   0.18383   0.00000  Uiso   1.00
C205   C     0.00605   0.23183   0.05439   0.00000  Uiso   1.00
C206   C     0.94976   0.19550   0.08585   0.00000  Uiso   1.00
C207   C     0.89699   0.18550   0.01700   0.00000  Uiso   1.00
H208   H     0.07847   0.31532   0.86384   0.00000  Uiso   1.00
H209   H     0.19147   0.25330   0.82239   0.00000  Uiso   1.00
H210   H     0.08537   0.43279   0.92827   0.00000  Uiso   1.00
H211   H     0.95953   0.26702   0.81382   0.00000  Uiso   1.00
H212   H     0.31523   0.17335   0.81913   0.00000  Uiso   1.00
H213   H     0.09149   0.55180   0.04238   0.00000  Uiso   1.00
H214   H     0.82613   0.20225   0.80103   0.00000  Uiso   1.00
H215   H     0.06668   0.22887   0.19273   0.00000  Uiso   1.00
H216   H     0.17903   0.16210   0.16933   0.00000  Uiso   1.00
H217   H     0.07293   0.34159   0.27521   0.00000  Uiso   1.00
H218   H     0.94709   0.17582   0.16075   0.00000  Uiso   1.00
H219   H     0.30514   0.09933   0.10072   0.00000  Uiso   1.00
H220   H     0.08140   0.47779   0.32397   0.00000  Uiso   1.00
H221   H     0.81604   0.12823   0.08262   0.00000  Uiso   1.00
O222   O     0.38432   0.09400   0.93861   0.00000  Uiso   1.00
O223   O     0.09077   0.59051   0.23150   0.00000  Uiso   1.00
O224   O     0.74262   0.13190   0.91485   0.00000  Uiso   1.00
N225   N     0.29743   0.16508   0.88861   0.00000  Uiso   1.00
N226   N     0.08826   0.51891   0.09733   0.00000  Uiso   1.00
N227   N     0.84016   0.19212   0.87170   0.00000  Uiso   1.00
N228   N     0.29200   0.12525   0.04013   0.00000  Uiso   1.00
N229   N     0.08283   0.47908   0.24885   0.00000  Uiso   1.00
N230   N     0.83473   0.15229   0.02322   0.00000  Uiso   1.00
C231   C     0.42423   0.20449   0.43919   0.00000  Uiso   1.00
C232   C     0.36448   0.25018   0.46227   0.00000  Uiso   1.00
C233   C     0.31120   0.26640   0.39729   0.00000  Uiso   1.00
C234   C     0.26145   0.30901   0.43255   0.00000  Uiso   1.00
C235   C     0.16812   0.37606   0.45368   0.00000  Uiso   1.00
C236   C     0.42211   0.15266   0.51980   0.00000  Uiso   1.00
C237   C     0.41731   0.08689   0.50318   0.00000  Uiso   1.00
C238   C     0.41609   0.04741   0.58687   0.00000  Uiso   1.00
C239   C     0.41229   0.96305   0.69732   0.00000  Uiso   1.00
C240   C     0.49048   0.24273   0.45761   0.00000  Uiso   1.00
C241   C     0.54318   0.25268   0.38871   0.00000  Uiso   1.00
C242   C     0.59953   0.28902   0.42005   0.00000  Uiso   1.00
C243   C     0.70188   0.34451   0.43393   0.00000  Uiso   1.00
C244   C     0.43062   0.25133   0.61738   0.00000  Uiso   1.00
C245   C     0.36795   0.27562   0.55906   0.00000  Uiso   1.00
C246   C     0.31827   0.31822   0.59443   0.00000  Uiso   1.00
C247   C     0.26493   0.33450   0.52950   0.00000  Uiso   1.00
C248   C     0.42558   0.17810   0.61658   0.00000  Uiso   1.00
C249   C     0.42438   0.13870   0.70032   0.00000  Uiso   1.00
C250   C     0.41957   0.07289   0.68383   0.00000  Uiso   1.00
C251   C     0.49395   0.26817   0.55439   0.00000  Uiso   1.00
C252   C     0.55024   0.30450   0.58585   0.00000  Uiso   1.00
C253   C     0.60301   0.31450   0.51700   0.00000  Uiso   1.00
H254   H     0.42153   0.18468   0.36384   0.00000  Uiso   1.00
H255   H     0.30853   0.24670   0.32239   0.00000  Uiso   1.00
H256   H     0.41463   0.06721   0.42827   0.00000  Uiso   1.00
H257   H     0.54047   0.23298   0.31382   0.00000  Uiso   1.00
H258   H     0.18477   0.32665   0.31913   0.00000  Uiso   1.00
H259   H     0.40851   0.94820   0.54238   0.00000  Uiso   1.00
H260   H     0.67387   0.29775   0.30103   0.00000  Uiso   1.00
H261   H     0.43332   0.27113   0.69273   0.00000  Uiso   1.00
H262   H     0.32097   0.33790   0.66933   0.00000  Uiso   1.00
H263   H     0.42707   0.15841   0.77521   0.00000  Uiso   1.00
H264   H     0.55291   0.32418   0.66075   0.00000  Uiso   1.00
H265   H     0.19486   0.40067   0.60072   0.00000  Uiso   1.00
H266   H     0.41860   0.02221   0.82397   0.00000  Uiso   1.00
H267   H     0.68396   0.37177   0.58262   0.00000  Uiso   1.00
O268   O     0.11568   0.40600   0.43861   0.00000  Uiso   1.00
O269   O     0.40923   0.90949   0.73150   0.00000  Uiso   1.00
O270   O     0.75738   0.36810   0.41485   0.00000  Uiso   1.00
N271   N     0.20257   0.33492   0.38861   0.00000  Uiso   1.00
N272   N     0.41174   0.98109   0.59733   0.00000  Uiso   1.00
N273   N     0.65984   0.30788   0.37170   0.00000  Uiso   1.00
N274   N     0.20800   0.37475   0.54013   0.00000  Uiso   1.00
N275   N     0.41717   0.02092   0.74885   0.00000  Uiso   1.00
N276   N     0.66527   0.34771   0.52322   0.00000  Uiso   1.00
C277   C     0.92423   0.29551   0.56081   0.00000  Uiso   1.00
C278   C     0.86448   0.24982   0.53773   0.00000  Uiso   1.00
C279   C     0.81120   0.23360   0.60271   0.00000  Uiso   1.00
C280   C     0.76145   0.19099   0.56745   0.00000  Uiso   1.00
C281   C     0.66812   0.12394   0.54632   0.00000  Uiso   1.00
C282   C     0.92211   0.34734   0.48020   0.00000  Uiso   1.00
C283   C     0.91731   0.41311   0.49682   0.00000  Uiso   1.00
C284   C     0.91609   0.45259   0.41313   0.00000  Uiso   1.00
C285   C     0.91229   0.53695   0.30268   0.00000  Uiso   1.00
C286   C     0.99048   0.25727   0.54239   0.00000  Uiso   1.00
C287   C     0.04318   0.24732   0.61129   0.00000  Uiso   1.00
C288   C     0.09953   0.21098   0.57995   0.00000  Uiso   1.00
C289   C     0.20188   0.15549   0.56607   0.00000  Uiso   1.00
C290   C     0.93062   0.24867   0.38262   0.00000  Uiso   1.00
C291   C     0.86795   0.22438   0.44094   0.00000  Uiso   1.00
C292   C     0.81827   0.18178   0.40557   0.00000  Uiso   1.00
C293   C     0.76493   0.16550   0.47050   0.00000  Uiso   1.00
C294   C     0.92558   0.32190   0.38342   0.00000  Uiso   1.00
C295   C     0.92438   0.36130   0.29968   0.00000  Uiso   1.00
C296   C     0.91957   0.42711   0.31617   0.00000  Uiso   1.00
C297   C     0.99395   0.23183   0.44561   0.00000  Uiso   1.00
C298   C     0.05024   0.19550   0.41415   0.00000  Uiso   1.00
C299   C     0.10301   0.18550   0.48300   0.00000  Uiso   1.00
H300   H     0.92153   0.31532   0.63616   0.00000  Uiso   1.00
H301   H     0.80853   0.25330   0.67761   0.00000  Uiso   1.00
H302   H     0.91463   0.43279   0.57173   0.00000  Uiso   1.00
H303   H     0.04047   0.26702   0.68618   0.00000  Uiso   1.00
H304   H     0.68477   0.17335   0.68087   0.00000  Uiso   1.00
H305   H     0.90851   0.55180   0.45762   0.00000  Uiso   1.00
H306   H     0.17387   0.20225   0.69897   0.00000  Uiso   1.00
H307   H     0.93332   0.22887   0.30727   0.00000  Uiso   1.00
H308   H     0.82097   0.16210   0.33067   0.00000  Uiso   1.00
H309   H     0.92707   0.34159   0.22479   0.00000  Uiso   1.00
H310   H     0.05291   0.17582   0.33925   0.00000  Uiso   1.00
H311   H     0.69486   0.09933   0.39928   0.00000  Uiso   1.00
H312   H     0.91860   0.47779   0.17603   0.00000  Uiso   1.00
H313   H     0.18396   0.12823   0.41738   0.00000  Uiso   1.00
O314   O     0.61568   0.09400   0.56139   0.00000  Uiso   1.00
O315   O     0.90923   0.59051   0.26850   0.00000  Uiso   1.00
O316   O     0.25738   0.13190   0.58515   0.00000  Uiso   1.00
N317   N     0.70257   0.16508   0.61139   0.00000  Uiso   1.00
N318   N     0.91174   0.51891   0.40267   0.00000  Uiso   1.00
N319   N     0.15984   0.19212   0.62830   0.00000  Uiso   1.00
N320   N     0.70800   0.12525   0.45987   0.00000  Uiso   1.00
N321   N     0.91717   0.47908   0.25115   0.00000  Uiso   1.00
N322   N     0.16527   0.15229   0.47678   0.00000  Uiso   1.00
C323   C     0.57577   0.20449   0.06081   0.00000  Uiso   1.00
C324   C     0.63552   0.25018   0.03773   0.00000  Uiso   1.00
C325   C     0.68880   0.26640   0.10271   0.00000  Uiso   1.00
C326   C     0.73855   0.30901   0.06745   0.00000  Uiso   1.00
C327   C     0.83188   0.37606   0.04632   0.00000  Uiso   1.00
C328   C     0.57789   0.15266   0.98020   0.00000  Uiso   1.00
C329   C     0.58269   0.08689   0.99682   0.00000  Uiso   1.00
C330   C     0.58391   0.04741   0.91313   0.00000  Uiso   1.00
C331   C     0.58771   0.96305   0.80268   0.00000  Uiso   1.00
C332   C     0.50952   0.24273   0.04239   0.00000  Uiso   1.00
C333   C     0.45682   0.25268   0.11129   0.00000  Uiso   1.00
C334   C     0.40047   0.28902   0.07995   0.00000  Uiso   1.00
C335   C     0.29812   0.34451   0.06607   0.00000  Uiso   1.00
C336   C     0.56938   0.25133   0.88262   0.00000  Uiso   1.00
C337   C     0.63205   0.27562   0.94094   0.00000  Uiso   1.00
C338   C     0.68173   0.31822   0.90557   0.00000  Uiso   1.00
C339   C     0.73507   0.33450   0.97050   0.00000  Uiso   1.00
C340   C     0.57442   0.17810   0.88342   0.00000  Uiso   1.00
C341   C     0.57562   0.13870   0.79968   0.00000  Uiso   1.00
C342   C     0.58043   0.07289   0.81617   0.00000  Uiso   1.00
C343   C     0.50605   0.26817   0.94561   0.00000  Uiso   1.00
C344   C     0.44976   0.30450   0.91415   0.00000  Uiso   1.00
C345   C     0.39699   0.31450   0.98300   0.00000  Uiso   1.00
H346   H     0.57847   0.18468   0.13616   0.00000  Uiso   1.00
H347   H     0.69147   0.24670   0.17761   0.00000  Uiso   1.00
H348   H     0.58537   0.06721   0.07173   0.00000  Uiso   1.00
H349   H     0.45953   0.23298   0.18618   0.00000  Uiso   1.00
H350   H     0.81523   0.32665   0.18087   0.00000  Uiso   1.00
H351   H     0.59149   0.94820   0.95762   0.00000  Uiso   1.00
H352   H     0.32613   0.29775   0.19897   0.00000  Uiso   1.00
H353   H     0.56668   0.27113   0.80727   0.00000  Uiso   1.00
H354   H     0.67903   0.33790   0.83067   0.00000  Uiso   1.00
H355   H     0.57293   0.15841   0.72479   0.00000  Uiso   1.00
H356   H     0.44709   0.32418   0.83925   0.00000  Uiso   1.00
H357   H     0.80514   0.40067   0.89928   0.00000  Uiso   1.00
H358   H     0.58140   0.02221   0.67603   0.00000  Uiso   1.00
H359   H     0.31604   0.37177   0.91738   0.00000  Uiso   1.00
O360   O     0.88432   0.40600   0.06139   0.00000  Uiso   1.00
O361   O     0.59077   0.90949   0.76850   0.00000  Uiso   1.00
O362   O     0.24262   0.36810   0.08515   0.00000  Uiso   1.00
N363   N     0.79743   0.33492   0.11139   0.00000  Uiso   1.00
N364   N     0.58826   0.98109   0.90267   0.00000  Uiso   1.00
N365   N     0.34016   0.30788   0.12830   0.00000  Uiso   1.00
N366   N     0.79200   0.37475   0.95987   0.00000  Uiso   1.00
N367   N     0.58283   0.02092   0.75115   0.00000  Uiso   1.00
N368   N     0.33473   0.34771   0.97678   0.00000  Uiso   1.00
