data_job_00266
_audit_creation_date              2018-12-19
_audit_creation_method            'Materials Studio'
_symmetry_space_group_name_H-M    'P1'
_symmetry_Int_Tables_number       1
_symmetry_cell_setting            triclinic
loop_
_symmetry_equiv_pos_as_xyz
  x,y,z
_cell_length_a                    7.1000
_cell_length_b                    17.5076
_cell_length_c                    22.2990
_cell_angle_alpha                 90.0000
_cell_angle_beta                  107.3830
_cell_angle_gamma                 90.0000
loop_
_atom_site_label
_atom_site_type_symbol
_atom_site_fract_x
_atom_site_fract_y
_atom_site_fract_z
_atom_site_U_iso_or_equiv
_atom_site_adp_type
_atom_site_occupancy
C1     C     0.52117   0.54406   0.22378   0.00000  Uiso   1.00
C2     C     0.49819   0.61383   0.26193   0.00000  Uiso   1.00
C3     C     0.65100   0.65873   0.29825   0.00000  Uiso   1.00
C4     C     0.59940   0.72004   0.32958   0.00000  Uiso   1.00
C5     C     0.59375   0.82596   0.38959   0.00000  Uiso   1.00
C6     C     0.42006   0.47835   0.24689   0.00000  Uiso   1.00
C7     C     0.50718   0.40933   0.27055   0.00000  Uiso   1.00
C8     C     0.38979   0.35659   0.28922   0.00000  Uiso   1.00
C9     C     0.26280   0.25214   0.32582   0.00000  Uiso   1.00
C10    C     0.39622   0.55990   0.15640   0.00000  Uiso   1.00
C11    C     0.46327   0.55943   0.10397   0.00000  Uiso   1.00
C12    C     0.32579   0.57534   0.04644   0.00000  Uiso   1.00
C13    C     0.16179   0.59751   0.94254   0.00000  Uiso   1.00
C14    C     0.15777   0.57311   0.21483   0.00000  Uiso   1.00
C15    C     0.30081   0.62961   0.25707   0.00000  Uiso   1.00
C16    C     0.24895   0.69087   0.28836   0.00000  Uiso   1.00
C17    C     0.40166   0.73585   0.32472   0.00000  Uiso   1.00
C18    C     0.22269   0.49412   0.24203   0.00000  Uiso   1.00
C19    C     0.10513   0.44147   0.26066   0.00000  Uiso   1.00
C20    C     0.19205   0.37239   0.28435   0.00000  Uiso   1.00
C21    C     0.19884   0.57568   0.15154   0.00000  Uiso   1.00
C22    C     0.06122   0.59158   0.09407   0.00000  Uiso   1.00
C23    C     0.12806   0.59114   0.04157   0.00000  Uiso   1.00
H24    H     0.67483   0.53177   0.22756   0.00000  Uiso   1.00
H25    H     0.80374   0.64650   0.30201   0.00000  Uiso   1.00
H26    H     0.65992   0.39713   0.27430   0.00000  Uiso   1.00
H27    H     0.61603   0.54722   0.10775   0.00000  Uiso   1.00
H28    H     0.85961   0.78063   0.38241   0.00000  Uiso   1.00
H29    H     0.55636   0.25483   0.32398   0.00000  Uiso   1.00
H30    H     0.46379   0.57131   0.97276   0.00000  Uiso   1.00
H31    H     0.00410   0.58539   0.21105   0.00000  Uiso   1.00
H32    H     0.09620   0.70307   0.28459   0.00000  Uiso   1.00
H33    H     0.95239   0.45370   0.25689   0.00000  Uiso   1.00
H34    H     0.90849   0.60379   0.09033   0.00000  Uiso   1.00
H35    H     0.28535   0.82654   0.36828   0.00000  Uiso   1.00
H36    H     0.98209   0.30073   0.30985   0.00000  Uiso   1.00
H37    H     0.88952   0.61722   0.95863   0.00000  Uiso   1.00
O38    O     0.64517   0.88001   0.42403   0.00000  Uiso   1.00
O39    O     0.24731   0.19017   0.34736   0.00000  Uiso   1.00
O40    O     0.12586   0.60540   0.88658   0.00000  Uiso   1.00
N41    N     0.71182   0.77530   0.36898   0.00000  Uiso   1.00
N42    N     0.42830   0.28370   0.31436   0.00000  Uiso   1.00
N43    N     0.34175   0.57957   0.98600   0.00000  Uiso   1.00
N44    N     0.40281   0.80000   0.36138   0.00000  Uiso   1.00
N45    N     0.11929   0.30841   0.30676   0.00000  Uiso   1.00
N46    N     0.03274   0.60428   0.97840   0.00000  Uiso   1.00
C47    C     0.47883   0.04406   0.27622   0.00000  Uiso   1.00
C48    C     0.50181   0.11383   0.23807   0.00000  Uiso   1.00
C49    C     0.34900   0.15873   0.20175   0.00000  Uiso   1.00
C50    C     0.40060   0.22004   0.17042   0.00000  Uiso   1.00
C51    C     0.40625   0.32596   0.11041   0.00000  Uiso   1.00
C52    C     0.57994   0.97835   0.25311   0.00000  Uiso   1.00
C53    C     0.49282   0.90933   0.22945   0.00000  Uiso   1.00
C54    C     0.61021   0.85659   0.21078   0.00000  Uiso   1.00
C55    C     0.73720   0.75214   0.17418   0.00000  Uiso   1.00
C56    C     0.60378   0.05990   0.34360   0.00000  Uiso   1.00
C57    C     0.53673   0.05943   0.39603   0.00000  Uiso   1.00
C58    C     0.67421   0.07534   0.45356   0.00000  Uiso   1.00
C59    C     0.83821   0.09751   0.55746   0.00000  Uiso   1.00
C60    C     0.84223   0.07311   0.28517   0.00000  Uiso   1.00
C61    C     0.69919   0.12961   0.24293   0.00000  Uiso   1.00
C62    C     0.75105   0.19087   0.21164   0.00000  Uiso   1.00
C63    C     0.59834   0.23585   0.17528   0.00000  Uiso   1.00
C64    C     0.77731   0.99412   0.25797   0.00000  Uiso   1.00
C65    C     0.89487   0.94147   0.23934   0.00000  Uiso   1.00
C66    C     0.80795   0.87239   0.21565   0.00000  Uiso   1.00
C67    C     0.80116   0.07568   0.34846   0.00000  Uiso   1.00
C68    C     0.93878   0.09158   0.40593   0.00000  Uiso   1.00
C69    C     0.87194   0.09114   0.45843   0.00000  Uiso   1.00
H70    H     0.32517   0.03177   0.27244   0.00000  Uiso   1.00
H71    H     0.19626   0.14650   0.19799   0.00000  Uiso   1.00
H72    H     0.34008   0.89713   0.22570   0.00000  Uiso   1.00
H73    H     0.38397   0.04722   0.39225   0.00000  Uiso   1.00
H74    H     0.14039   0.28063   0.11759   0.00000  Uiso   1.00
H75    H     0.44364   0.75483   0.17602   0.00000  Uiso   1.00
H76    H     0.53621   0.07131   0.52724   0.00000  Uiso   1.00
H77    H     0.99590   0.08539   0.28895   0.00000  Uiso   1.00
H78    H     0.90380   0.20307   0.21541   0.00000  Uiso   1.00
H79    H     0.04761   0.95370   0.24311   0.00000  Uiso   1.00
H80    H     0.09151   0.10379   0.40967   0.00000  Uiso   1.00
H81    H     0.71465   0.32654   0.13172   0.00000  Uiso   1.00
H82    H     0.01791   0.80073   0.19015   0.00000  Uiso   1.00
H83    H     0.11048   0.11722   0.54137   0.00000  Uiso   1.00
O84    O     0.35483   0.38001   0.07597   0.00000  Uiso   1.00
O85    O     0.75269   0.69017   0.15264   0.00000  Uiso   1.00
O86    O     0.87414   0.10540   0.61342   0.00000  Uiso   1.00
N87    N     0.28818   0.27530   0.13102   0.00000  Uiso   1.00
N88    N     0.57170   0.78370   0.18564   0.00000  Uiso   1.00
N89    N     0.65825   0.07957   0.51400   0.00000  Uiso   1.00
N90    N     0.59719   0.30000   0.13862   0.00000  Uiso   1.00
N91    N     0.88071   0.80841   0.19324   0.00000  Uiso   1.00
N92    N     0.96726   0.10428   0.52160   0.00000  Uiso   1.00
C93    C     0.47883   0.45594   0.77622   0.00000  Uiso   1.00
C94    C     0.50181   0.38617   0.73807   0.00000  Uiso   1.00
C95    C     0.34900   0.34127   0.70175   0.00000  Uiso   1.00
C96    C     0.40060   0.27996   0.67042   0.00000  Uiso   1.00
C97    C     0.40625   0.17404   0.61041   0.00000  Uiso   1.00
C98    C     0.57994   0.52165   0.75311   0.00000  Uiso   1.00
C99    C     0.49282   0.59067   0.72945   0.00000  Uiso   1.00
C100   C     0.61021   0.64341   0.71078   0.00000  Uiso   1.00
C101   C     0.73720   0.74786   0.67418   0.00000  Uiso   1.00
C102   C     0.60378   0.44010   0.84360   0.00000  Uiso   1.00
C103   C     0.53673   0.44057   0.89603   0.00000  Uiso   1.00
C104   C     0.67421   0.42466   0.95356   0.00000  Uiso   1.00
C105   C     0.83821   0.40249   0.05746   0.00000  Uiso   1.00
C106   C     0.84223   0.42689   0.78517   0.00000  Uiso   1.00
C107   C     0.69919   0.37039   0.74293   0.00000  Uiso   1.00
C108   C     0.75105   0.30913   0.71164   0.00000  Uiso   1.00
C109   C     0.59834   0.26415   0.67528   0.00000  Uiso   1.00
C110   C     0.77731   0.50588   0.75797   0.00000  Uiso   1.00
C111   C     0.89487   0.55853   0.73934   0.00000  Uiso   1.00
C112   C     0.80795   0.62761   0.71565   0.00000  Uiso   1.00
C113   C     0.80116   0.42432   0.84846   0.00000  Uiso   1.00
C114   C     0.93878   0.40842   0.90593   0.00000  Uiso   1.00
C115   C     0.87194   0.40886   0.95843   0.00000  Uiso   1.00
H116   H     0.32517   0.46823   0.77244   0.00000  Uiso   1.00
H117   H     0.19626   0.35350   0.69799   0.00000  Uiso   1.00
H118   H     0.34008   0.60287   0.72570   0.00000  Uiso   1.00
H119   H     0.38397   0.45278   0.89225   0.00000  Uiso   1.00
H120   H     0.14039   0.21937   0.61759   0.00000  Uiso   1.00
H121   H     0.44364   0.74517   0.67602   0.00000  Uiso   1.00
H122   H     0.53621   0.42869   0.02724   0.00000  Uiso   1.00
H123   H     0.99590   0.41461   0.78895   0.00000  Uiso   1.00
H124   H     0.90380   0.29693   0.71541   0.00000  Uiso   1.00
H125   H     0.04761   0.54630   0.74311   0.00000  Uiso   1.00
H126   H     0.09151   0.39621   0.90967   0.00000  Uiso   1.00
H127   H     0.71465   0.17346   0.63172   0.00000  Uiso   1.00
H128   H     0.01791   0.69927   0.69015   0.00000  Uiso   1.00
H129   H     0.11048   0.38278   0.04137   0.00000  Uiso   1.00
O130   O     0.35483   0.11999   0.57597   0.00000  Uiso   1.00
O131   O     0.75269   0.80983   0.65264   0.00000  Uiso   1.00
O132   O     0.87414   0.39460   0.11342   0.00000  Uiso   1.00
N133   N     0.28818   0.22470   0.63102   0.00000  Uiso   1.00
N134   N     0.57170   0.71630   0.68564   0.00000  Uiso   1.00
N135   N     0.65825   0.42043   0.01400   0.00000  Uiso   1.00
N136   N     0.59719   0.20000   0.63862   0.00000  Uiso   1.00
N137   N     0.88071   0.69159   0.69324   0.00000  Uiso   1.00
N138   N     0.96726   0.39572   0.02160   0.00000  Uiso   1.00
C139   C     0.52117   0.95594   0.72378   0.00000  Uiso   1.00
C140   C     0.49819   0.88617   0.76193   0.00000  Uiso   1.00
C141   C     0.65100   0.84127   0.79825   0.00000  Uiso   1.00
C142   C     0.59940   0.77996   0.82958   0.00000  Uiso   1.00
C143   C     0.59375   0.67404   0.88959   0.00000  Uiso   1.00
C144   C     0.42006   0.02165   0.74689   0.00000  Uiso   1.00
C145   C     0.50718   0.09067   0.77055   0.00000  Uiso   1.00
C146   C     0.38979   0.14341   0.78922   0.00000  Uiso   1.00
C147   C     0.26280   0.24786   0.82582   0.00000  Uiso   1.00
C148   C     0.39622   0.94010   0.65640   0.00000  Uiso   1.00
C149   C     0.46327   0.94057   0.60397   0.00000  Uiso   1.00
C150   C     0.32579   0.92466   0.54644   0.00000  Uiso   1.00
C151   C     0.16179   0.90249   0.44254   0.00000  Uiso   1.00
C152   C     0.15777   0.92689   0.71483   0.00000  Uiso   1.00
C153   C     0.30081   0.87039   0.75707   0.00000  Uiso   1.00
C154   C     0.24895   0.80913   0.78836   0.00000  Uiso   1.00
C155   C     0.40166   0.76415   0.82472   0.00000  Uiso   1.00
C156   C     0.22269   0.00588   0.74203   0.00000  Uiso   1.00
C157   C     0.10513   0.05853   0.76066   0.00000  Uiso   1.00
C158   C     0.19205   0.12761   0.78435   0.00000  Uiso   1.00
C159   C     0.19884   0.92432   0.65154   0.00000  Uiso   1.00
C160   C     0.06122   0.90842   0.59407   0.00000  Uiso   1.00
C161   C     0.12806   0.90886   0.54157   0.00000  Uiso   1.00
H162   H     0.67483   0.96823   0.72756   0.00000  Uiso   1.00
H163   H     0.80374   0.85350   0.80201   0.00000  Uiso   1.00
H164   H     0.65992   0.10287   0.77430   0.00000  Uiso   1.00
H165   H     0.61603   0.95278   0.60775   0.00000  Uiso   1.00
H166   H     0.85961   0.71937   0.88241   0.00000  Uiso   1.00
H167   H     0.55636   0.24517   0.82398   0.00000  Uiso   1.00
H168   H     0.46379   0.92869   0.47276   0.00000  Uiso   1.00
H169   H     0.00410   0.91461   0.71105   0.00000  Uiso   1.00
H170   H     0.09620   0.79693   0.78459   0.00000  Uiso   1.00
H171   H     0.95239   0.04630   0.75689   0.00000  Uiso   1.00
H172   H     0.90849   0.89621   0.59033   0.00000  Uiso   1.00
H173   H     0.28535   0.67346   0.86828   0.00000  Uiso   1.00
H174   H     0.98209   0.19927   0.80985   0.00000  Uiso   1.00
H175   H     0.88952   0.88278   0.45863   0.00000  Uiso   1.00
O176   O     0.64517   0.61999   0.92403   0.00000  Uiso   1.00
O177   O     0.24731   0.30983   0.84736   0.00000  Uiso   1.00
O178   O     0.12586   0.89460   0.38658   0.00000  Uiso   1.00
N179   N     0.71182   0.72470   0.86898   0.00000  Uiso   1.00
N180   N     0.42830   0.21630   0.81436   0.00000  Uiso   1.00
N181   N     0.34175   0.92043   0.48600   0.00000  Uiso   1.00
N182   N     0.40281   0.70000   0.86138   0.00000  Uiso   1.00
N183   N     0.11929   0.19159   0.80676   0.00000  Uiso   1.00
N184   N     0.03274   0.89572   0.47840   0.00000  Uiso   1.00
