data_job_06464
_audit_creation_date              2018-12-19
_audit_creation_method            'Materials Studio'
_symmetry_space_group_name_H-M    'P1'
_symmetry_Int_Tables_number       1
_symmetry_cell_setting            triclinic
loop_
_symmetry_equiv_pos_as_xyz
  x,y,z
_cell_length_a                    21.9821
_cell_length_b                    22.0845
_cell_length_c                    23.6699
_cell_angle_alpha                 62.8978
_cell_angle_beta                  62.7330
_cell_angle_gamma                 60.7206
loop_
_atom_site_label
_atom_site_type_symbol
_atom_site_fract_x
_atom_site_fract_y
_atom_site_fract_z
_atom_site_U_iso_or_equiv
_atom_site_adp_type
_atom_site_occupancy
C1     C     0.05425   0.72268   0.55679   0.00000  Uiso   1.00
C2     C     0.99711   0.68637   0.59375   0.00000  Uiso   1.00
C3     C     0.95822   0.67415   0.66102   0.00000  Uiso   1.00
C4     C     0.90841   0.64013   0.68535   0.00000  Uiso   1.00
C5     C     0.82131   0.58691   0.74906   0.00000  Uiso   1.00
C6     C     0.12391   0.66851   0.52463   0.00000  Uiso   1.00
C7     C     0.19163   0.64127   0.53379   0.00000  Uiso   1.00
C8     C     0.24856   0.59223   0.49993   0.00000  Uiso   1.00
C9     C     0.35833   0.51131   0.45629   0.00000  Uiso   1.00
C10    C     0.02850   0.78666   0.49962   0.00000  Uiso   1.00
C11    C     0.01603   0.85878   0.48774   0.00000  Uiso   1.00
C12    C     0.99264   0.90921   0.43281   0.00000  Uiso   1.00
C13    C     0.95428   0.01175   0.35035   0.00000  Uiso   1.00
C14    C     0.03493   0.68401   0.48038   0.00000  Uiso   1.00
C15    C     0.98662   0.66536   0.55224   0.00000  Uiso   1.00
C16    C     0.93685   0.63136   0.57648   0.00000  Uiso   1.00
C17    C     0.89790   0.61909   0.64377   0.00000  Uiso   1.00
C18    C     0.11342   0.64750   0.48313   0.00000  Uiso   1.00
C19    C     0.17026   0.59848   0.44924   0.00000  Uiso   1.00
C20    C     0.23805   0.57118   0.45835   0.00000  Uiso   1.00
C21    C     0.01800   0.76566   0.45812   0.00000  Uiso   1.00
C22    C     0.99465   0.81599   0.40320   0.00000  Uiso   1.00
C23    C     0.98213   0.88816   0.39123   0.00000  Uiso   1.00
H24    H     0.06243   0.73903   0.58910   0.00000  Uiso   1.00
H25    H     0.96637   0.69041   0.69313   0.00000  Uiso   1.00
H26    H     0.19974   0.65755   0.56590   0.00000  Uiso   1.00
H27    H     0.02415   0.87501   0.51987   0.00000  Uiso   1.00
H28    H     0.85526   0.62720   0.79016   0.00000  Uiso   1.00
H29    H     0.34734   0.55793   0.52189   0.00000  Uiso   1.00
H30    H     0.97709   0.01651   0.42480   0.00000  Uiso   1.00
H31    H     0.02676   0.66765   0.44806   0.00000  Uiso   1.00
H32    H     0.92874   0.61511   0.54435   0.00000  Uiso   1.00
H33    H     0.16212   0.58224   0.41713   0.00000  Uiso   1.00
H34    H     0.98653   0.79971   0.37109   0.00000  Uiso   1.00
H35    H     0.82472   0.56608   0.66940   0.00000  Uiso   1.00
H36    H     0.31681   0.49682   0.40113   0.00000  Uiso   1.00
H37    H     0.94655   0.95539   0.30405   0.00000  Uiso   1.00
O38    O     0.77617   0.56334   0.79567   0.00000  Uiso   1.00
O39    O     0.42177   0.47248   0.44370   0.00000  Uiso   1.00
O40    O     0.93600   0.07411   0.31633   0.00000  Uiso   1.00
N41    N     0.86151   0.62004   0.74852   0.00000  Uiso   1.00
N42    N     0.32158   0.55527   0.49771   0.00000  Uiso   1.00
N43    N     0.97544   0.98400   0.40694   0.00000  Uiso   1.00
N44    N     0.84508   0.58716   0.68354   0.00000  Uiso   1.00
N45    N     0.30515   0.52239   0.43274   0.00000  Uiso   1.00
N46    N     0.95901   0.95111   0.34196   0.00000  Uiso   1.00
C47    C     0.72670   0.66383   0.42823   0.00000  Uiso   1.00
C48    C     0.69787   0.71797   0.46565   0.00000  Uiso   1.00
C49    C     0.68801   0.70050   0.53274   0.00000  Uiso   1.00
C50    C     0.66103   0.75789   0.55757   0.00000  Uiso   1.00
C51    C     0.61875   0.83097   0.62190   0.00000  Uiso   1.00
C52    C     0.66842   0.68672   0.39722   0.00000  Uiso   1.00
C53    C     0.63380   0.64297   0.40677   0.00000  Uiso   1.00
C54    C     0.58204   0.67406   0.37398   0.00000  Uiso   1.00
C55    C     0.49407   0.69861   0.33203   0.00000  Uiso   1.00
C56    C     0.79299   0.67793   0.37027   0.00000  Uiso   1.00
C57    C     0.86311   0.62678   0.35715   0.00000  Uiso   1.00
C58    C     0.91622   0.65046   0.30167   0.00000  Uiso   1.00
C59    C     0.02166   0.66136   0.21788   0.00000  Uiso   1.00
C60    C     0.69634   0.79681   0.35301   0.00000  Uiso   1.00
C61    C     0.68138   0.79020   0.42479   0.00000  Uiso   1.00
C62    C     0.65442   0.84763   0.44953   0.00000  Uiso   1.00
C63    C     0.64452   0.83025   0.51665   0.00000  Uiso   1.00
C64    C     0.65193   0.75895   0.35637   0.00000  Uiso   1.00
C65    C     0.60021   0.79010   0.32355   0.00000  Uiso   1.00
C66    C     0.56552   0.74642   0.33306   0.00000  Uiso   1.00
C67    C     0.77650   0.75016   0.32942   0.00000  Uiso   1.00
C68    C     0.82951   0.77392   0.27394   0.00000  Uiso   1.00
C69    C     0.89970   0.72282   0.26074   0.00000  Uiso   1.00
H70    H     0.73954   0.60759   0.46003   0.00000  Uiso   1.00
H71    H     0.70077   0.64459   0.56434   0.00000  Uiso   1.00
H72    H     0.64658   0.58708   0.43838   0.00000  Uiso   1.00
H73    H     0.87585   0.57089   0.38877   0.00000  Uiso   1.00
H74    H     0.65050   0.71747   0.66198   0.00000  Uiso   1.00
H75    H     0.53625   0.59619   0.39637   0.00000  Uiso   1.00
H76    H     0.01971   0.56206   0.29176   0.00000  Uiso   1.00
H77    H     0.68350   0.85305   0.32121   0.00000  Uiso   1.00
H78    H     0.64166   0.90352   0.41790   0.00000  Uiso   1.00
H79    H     0.58747   0.84600   0.29194   0.00000  Uiso   1.00
H80    H     0.81673   0.82982   0.24234   0.00000  Uiso   1.00
H81    H     0.60252   0.92763   0.54313   0.00000  Uiso   1.00
H82    H     0.48827   0.80634   0.27751   0.00000  Uiso   1.00
H83    H     0.97173   0.77221   0.17291   0.00000  Uiso   1.00
O84    O     0.59997   0.85132   0.66867   0.00000  Uiso   1.00
O85    O     0.45009   0.69220   0.32019   0.00000  Uiso   1.00
O86    O     0.08438   0.64742   0.18295   0.00000  Uiso   1.00
N87    N     0.64496   0.76000   0.62074   0.00000  Uiso   1.00
N88    N     0.53814   0.64661   0.37241   0.00000  Uiso   1.00
N89    N     0.99012   0.61470   0.27460   0.00000  Uiso   1.00
N90    N     0.61914   0.87309   0.55678   0.00000  Uiso   1.00
N91    N     0.51232   0.75970   0.30846   0.00000  Uiso   1.00
N92    N     0.96431   0.72778   0.21065   0.00000  Uiso   1.00
C93    C     0.60193   0.09741   0.49880   0.00000  Uiso   1.00
C94    C     0.65704   0.03702   0.53540   0.00000  Uiso   1.00
C95    C     0.64005   0.99510   0.60146   0.00000  Uiso   1.00
C96    C     0.69832   0.94261   0.62566   0.00000  Uiso   1.00
C97    C     0.77285   0.85041   0.68865   0.00000  Uiso   1.00
C98    C     0.62080   0.16536   0.47186   0.00000  Uiso   1.00
C99    C     0.57332   0.23136   0.48449   0.00000  Uiso   1.00
C100   C     0.60109   0.28690   0.45519   0.00000  Uiso   1.00
C101   C     0.61934   0.39397   0.41949   0.00000  Uiso   1.00
C102   C     0.61958   0.07705   0.43809   0.00000  Uiso   1.00
C103   C     0.57107   0.06880   0.42232   0.00000  Uiso   1.00
C104   C     0.59780   0.05001   0.36458   0.00000  Uiso   1.00
C105   C     0.61415   0.01996   0.27645   0.00000  Uiso   1.00
C106   C     0.73565   0.07872   0.42429   0.00000  Uiso   1.00
C107   C     0.72967   0.02687   0.49492   0.00000  Uiso   1.00
C108   C     0.78799   0.97443   0.51903   0.00000  Uiso   1.00
C109   C     0.77108   0.93244   0.58512   0.00000  Uiso   1.00
C110   C     0.69343   0.15521   0.43139   0.00000  Uiso   1.00
C111   C     0.72127   0.21068   0.40206   0.00000  Uiso   1.00
C112   C     0.67385   0.27674   0.41465   0.00000  Uiso   1.00
C113   C     0.69221   0.06689   0.39762   0.00000  Uiso   1.00
C114   C     0.71902   0.04812   0.33988   0.00000  Uiso   1.00
C115   C     0.67056   0.03985   0.32403   0.00000  Uiso   1.00
H116   H     0.54538   0.10532   0.53031   0.00000  Uiso   1.00
H117   H     0.58383   0.00298   0.63277   0.00000  Uiso   1.00
H118   H     0.51712   0.23920   0.51581   0.00000  Uiso   1.00
H119   H     0.51487   0.07666   0.45365   0.00000  Uiso   1.00
H120   H     0.65849   0.88506   0.72853   0.00000  Uiso   1.00
H121   H     0.51782   0.38314   0.48189   0.00000  Uiso   1.00
H122   H     0.51307   0.04041   0.35081   0.00000  Uiso   1.00
H123   H     0.79220   0.07082   0.39278   0.00000  Uiso   1.00
H124   H     0.84419   0.96659   0.48770   0.00000  Uiso   1.00
H125   H     0.77748   0.20281   0.37074   0.00000  Uiso   1.00
H126   H     0.77523   0.04027   0.30858   0.00000  Uiso   1.00
H127   H     0.86981   0.85553   0.61078   0.00000  Uiso   1.00
H128   H     0.72913   0.35361   0.36414   0.00000  Uiso   1.00
H129   H     0.72439   0.01088   0.23307   0.00000  Uiso   1.00
O130   O     0.79390   0.80237   0.73458   0.00000  Uiso   1.00
O131   O     0.60934   0.45583   0.41099   0.00000  Uiso   1.00
O132   O     0.60311   0.00617   0.23902   0.00000  Uiso   1.00
N133   N     0.70109   0.89241   0.68779   0.00000  Uiso   1.00
N134   N     0.56957   0.35808   0.45720   0.00000  Uiso   1.00
N135   N     0.56512   0.03767   0.33465   0.00000  Uiso   1.00
N136   N     0.81479   0.87651   0.62443   0.00000  Uiso   1.00
N137   N     0.68328   0.34219   0.39385   0.00000  Uiso   1.00
N138   N     0.67883   0.02178   0.27129   0.00000  Uiso   1.00
C139   C     0.64461   0.14348   0.02178   0.00000  Uiso   1.00
C140   C     0.58297   0.19885   0.05771   0.00000  Uiso   1.00
C141   C     0.54230   0.18282   0.12445   0.00000  Uiso   1.00
C142   C     0.48832   0.24116   0.14785   0.00000  Uiso   1.00
C143   C     0.39458   0.31622   0.21003   0.00000  Uiso   1.00
C144   C     0.71148   0.16541   0.99164   0.00000  Uiso   1.00
C145   C     0.77887   0.12127   0.00282   0.00000  Uiso   1.00
C146   C     0.83308   0.15147   0.97061   0.00000  Uiso   1.00
C147   C     0.93888   0.17460   0.93017   0.00000  Uiso   1.00
C148   C     0.62325   0.15672   0.96315   0.00000  Uiso   1.00
C149   C     0.61646   0.10526   0.95035   0.00000  Uiso   1.00
C150   C     0.59640   0.12813   0.89413   0.00000  Uiso   1.00
C151   C     0.56520   0.13776   0.80944   0.00000  Uiso   1.00
C152   C     0.62107   0.27559   0.94467   0.00000  Uiso   1.00
C153   C     0.57019   0.27060   0.01583   0.00000  Uiso   1.00
C154   C     0.51626   0.32898   0.03914   0.00000  Uiso   1.00
C155   C     0.47551   0.31305   0.10590   0.00000  Uiso   1.00
C156   C     0.69870   0.23716   0.94976   0.00000  Uiso   1.00
C157   C     0.75283   0.26743   0.91752   0.00000  Uiso   1.00
C158   C     0.82028   0.22335   0.92865   0.00000  Uiso   1.00
C159   C     0.61046   0.22847   0.92126   0.00000  Uiso   1.00
C160   C     0.59042   0.25142   0.86505   0.00000  Uiso   1.00
C161   C     0.58360   0.20002   0.85217   0.00000  Uiso   1.00
H162   H     0.65456   0.08762   0.05438   0.00000  Uiso   1.00
H163   H     0.55221   0.12728   0.15684   0.00000  Uiso   1.00
H164   H     0.78874   0.06574   0.03523   0.00000  Uiso   1.00
H165   H     0.62636   0.04974   0.98277   0.00000  Uiso   1.00
H166   H     0.43311   0.20291   0.25198   0.00000  Uiso   1.00
H167   H     0.93187   0.07314   0.99553   0.00000  Uiso   1.00
H168   H     0.58945   0.03939   0.88491   0.00000  Uiso   1.00
H169   H     0.61112   0.33145   0.91207   0.00000  Uiso   1.00
H170   H     0.50638   0.38451   0.00672   0.00000  Uiso   1.00
H171   H     0.74292   0.32296   0.88511   0.00000  Uiso   1.00
H172   H     0.58053   0.30696   0.83265   0.00000  Uiso   1.00
H173   H     0.39592   0.41168   0.13013   0.00000  Uiso   1.00
H174   H     0.89468   0.28191   0.87369   0.00000  Uiso   1.00
H175   H     0.55226   0.24816   0.76306   0.00000  Uiso   1.00
O176   O     0.34641   0.33780   0.25589   0.00000  Uiso   1.00
O177   O     0.00076   0.16754   0.91944   0.00000  Uiso   1.00
O178   O     0.55152   0.12325   0.77431   0.00000  Uiso   1.00
N179   N     0.43872   0.24476   0.21031   0.00000  Uiso   1.00
N180   N     0.90503   0.12344   0.97056   0.00000  Uiso   1.00
N181   N     0.58491   0.09188   0.86712   0.00000  Uiso   1.00
N182   N     0.41871   0.35710   0.14474   0.00000  Uiso   1.00
N183   N     0.88501   0.23578   0.90499   0.00000  Uiso   1.00
N184   N     0.56490   0.20421   0.80156   0.00000  Uiso   1.00
C185   C     0.32021   0.65247   0.89312   0.00000  Uiso   1.00
C186   C     0.28423   0.59522   0.93032   0.00000  Uiso   1.00
C187   C     0.27278   0.55629   0.99741   0.00000  Uiso   1.00
C188   C     0.23895   0.50637   0.02202   0.00000  Uiso   1.00
C189   C     0.18632   0.41910   0.08603   0.00000  Uiso   1.00
C190   C     0.26501   0.72149   0.86199   0.00000  Uiso   1.00
C191   C     0.23742   0.78874   0.87163   0.00000  Uiso   1.00
C192   C     0.18742   0.84512   0.83870   0.00000  Uiso   1.00
C193   C     0.10501   0.95391   0.79659   0.00000  Uiso   1.00
C194   C     0.38417   0.62740   0.83524   0.00000  Uiso   1.00
C195   C     0.45675   0.61554   0.82237   0.00000  Uiso   1.00
C196   C     0.50707   0.59271   0.76691   0.00000  Uiso   1.00
C197   C     0.60966   0.55540   0.68327   0.00000  Uiso   1.00
C198   C     0.28050   0.63304   0.81750   0.00000  Uiso   1.00
C199   C     0.26266   0.58467   0.88925   0.00000  Uiso   1.00
C200   C     0.22884   0.53479   0.91375   0.00000  Uiso   1.00
C201   C     0.21734   0.49580   0.98087   0.00000  Uiso   1.00
C202   C     0.24344   0.71094   0.82092   0.00000  Uiso   1.00
C203   C     0.19348   0.76724   0.78797   0.00000  Uiso   1.00
C204   C     0.16581   0.83455   0.79755   0.00000  Uiso   1.00
C205   C     0.36260   0.61684   0.79417   0.00000  Uiso   1.00
C206   C     0.41281   0.59403   0.73871   0.00000  Uiso   1.00
C207   C     0.48546   0.58214   0.72576   0.00000  Uiso   1.00
H208   H     0.33700   0.66069   0.92509   0.00000  Uiso   1.00
H209   H     0.28947   0.56448   0.02918   0.00000  Uiso   1.00
H210   H     0.25412   0.79689   0.90341   0.00000  Uiso   1.00
H211   H     0.47343   0.62371   0.85416   0.00000  Uiso   1.00
H212   H     0.22724   0.45317   0.12647   0.00000  Uiso   1.00
H213   H     0.15273   0.94323   0.86126   0.00000  Uiso   1.00
H214   H     0.61517   0.57806   0.75741   0.00000  Uiso   1.00
H215   H     0.26370   0.62482   0.78553   0.00000  Uiso   1.00
H216   H     0.21215   0.52663   0.88196   0.00000  Uiso   1.00
H217   H     0.17680   0.75905   0.75619   0.00000  Uiso   1.00
H218   H     0.39610   0.58587   0.70694   0.00000  Uiso   1.00
H219   H     0.16448   0.42246   0.00698   0.00000  Uiso   1.00
H220   H     0.08997   0.91252   0.74176   0.00000  Uiso   1.00
H221   H     0.55241   0.54734   0.63792   0.00000  Uiso   1.00
O222   O     0.16325   0.37389   0.13269   0.00000  Uiso   1.00
O223   O     0.06550   0.01683   0.78472   0.00000  Uiso   1.00
O224   O     0.67221   0.53773   0.64848   0.00000  Uiso   1.00
N225   N     0.21956   0.45941   0.08512   0.00000  Uiso   1.00
N226   N     0.14988   0.91758   0.83716   0.00000  Uiso   1.00
N227   N     0.58222   0.57619   0.74006   0.00000  Uiso   1.00
N228   N     0.18579   0.44288   0.02082   0.00000  Uiso   1.00
N229   N     0.11611   0.90105   0.77286   0.00000  Uiso   1.00
N230   N     0.54845   0.55966   0.67577   0.00000  Uiso   1.00
C231   C     0.19638   0.28168   0.94784   0.00000  Uiso   1.00
C232   C     0.25121   0.25108   0.98518   0.00000  Uiso   1.00
C233   C     0.23387   0.24390   0.05161   0.00000  Uiso   1.00
C234   C     0.29192   0.21465   0.07648   0.00000  Uiso   1.00
C235   C     0.36599   0.17034   0.14057   0.00000  Uiso   1.00
C236   C     0.21487   0.22275   0.91972   0.00000  Uiso   1.00
C237   C     0.16697   0.19177   0.93112   0.00000  Uiso   1.00
C238   C     0.19442   0.13868   0.90089   0.00000  Uiso   1.00
C239   C     0.21205   0.05043   0.86333   0.00000  Uiso   1.00
C240   C     0.21485   0.34435   0.88792   0.00000  Uiso   1.00
C241   C     0.16693   0.41559   0.87257   0.00000  Uiso   1.00
C242   C     0.19437   0.46488   0.81554   0.00000  Uiso   1.00
C243   C     0.21198   0.56542   0.72861   0.00000  Uiso   1.00
C244   C     0.33032   0.24250   0.87386   0.00000  Uiso   1.00
C245   C     0.32396   0.22980   0.94499   0.00000  Uiso   1.00
C246   C     0.38205   0.20055   0.96976   0.00000  Uiso   1.00
C247   C     0.36480   0.19333   0.03622   0.00000  Uiso   1.00
C248   C     0.28761   0.20147   0.87954   0.00000  Uiso   1.00
C249   C     0.31515   0.14842   0.84928   0.00000  Uiso   1.00
C250   C     0.26730   0.11736   0.86063   0.00000  Uiso   1.00
C251   C     0.28760   0.32307   0.84774   0.00000  Uiso   1.00
C252   C     0.31512   0.37225   0.79073   0.00000  Uiso   1.00
C253   C     0.26725   0.44356   0.77529   0.00000  Uiso   1.00
H254   H     0.13975   0.29824   0.97912   0.00000  Uiso   1.00
H255   H     0.17757   0.26036   0.08269   0.00000  Uiso   1.00
H256   H     0.11067   0.20825   0.96222   0.00000  Uiso   1.00
H257   H     0.11064   0.43204   0.90367   0.00000  Uiso   1.00
H258   H     0.25158   0.20896   0.17980   0.00000  Uiso   1.00
H259   H     0.11052   0.09909   0.92576   0.00000  Uiso   1.00
H260   H     0.11045   0.57100   0.80231   0.00000  Uiso   1.00
H261   H     0.38695   0.22593   0.84258   0.00000  Uiso   1.00
H262   H     0.43834   0.18409   0.93866   0.00000  Uiso   1.00
H263   H     0.37144   0.13197   0.81818   0.00000  Uiso   1.00
H264   H     0.37141   0.35576   0.75964   0.00000  Uiso   1.00
H265   H     0.46323   0.14705   0.06290   0.00000  Uiso   1.00
H266   H     0.32217   0.03718   0.80886   0.00000  Uiso   1.00
H267   H     0.32211   0.50909   0.68541   0.00000  Uiso   1.00
O268   O     0.38675   0.15176   0.18703   0.00000  Uiso   1.00
O269   O     0.20168   0.00763   0.85372   0.00000  Uiso   1.00
O270   O     0.20159   0.62676   0.69176   0.00000  Uiso   1.00
N271   N     0.29434   0.20015   0.13910   0.00000  Uiso   1.00
N272   N     0.16246   0.09742   0.90159   0.00000  Uiso   1.00
N273   N     0.16239   0.53861   0.78617   0.00000  Uiso   1.00
N274   N     0.40823   0.16684   0.07620   0.00000  Uiso   1.00
N275   N     0.27635   0.06410   0.83869   0.00000  Uiso   1.00
N276   N     0.27628   0.50530   0.72327   0.00000  Uiso   1.00
C277   C     0.94575   0.27732   0.44321   0.00000  Uiso   1.00
C278   C     0.00289   0.31363   0.40625   0.00000  Uiso   1.00
C279   C     0.04178   0.32585   0.33898   0.00000  Uiso   1.00
C280   C     0.09159   0.35987   0.31465   0.00000  Uiso   1.00
C281   C     0.17869   0.41309   0.25094   0.00000  Uiso   1.00
C282   C     0.87609   0.33149   0.47537   0.00000  Uiso   1.00
C283   C     0.80837   0.35873   0.46621   0.00000  Uiso   1.00
C284   C     0.75144   0.40777   0.50007   0.00000  Uiso   1.00
C285   C     0.64167   0.48869   0.54371   0.00000  Uiso   1.00
C286   C     0.97150   0.21334   0.50038   0.00000  Uiso   1.00
C287   C     0.98397   0.14122   0.51226   0.00000  Uiso   1.00
C288   C     0.00736   0.09079   0.56719   0.00000  Uiso   1.00
C289   C     0.04572   0.98825   0.64965   0.00000  Uiso   1.00
C290   C     0.96507   0.31599   0.51962   0.00000  Uiso   1.00
C291   C     0.01338   0.33464   0.44776   0.00000  Uiso   1.00
C292   C     0.06315   0.36864   0.42352   0.00000  Uiso   1.00
C293   C     0.10210   0.38091   0.35623   0.00000  Uiso   1.00
C294   C     0.88658   0.35250   0.51687   0.00000  Uiso   1.00
C295   C     0.82974   0.40152   0.55076   0.00000  Uiso   1.00
C296   C     0.76195   0.42882   0.54165   0.00000  Uiso   1.00
C297   C     0.98200   0.23434   0.54188   0.00000  Uiso   1.00
C298   C     0.00535   0.18401   0.59680   0.00000  Uiso   1.00
C299   C     0.01787   0.11184   0.60877   0.00000  Uiso   1.00
H300   H     0.93757   0.26097   0.41090   0.00000  Uiso   1.00
H301   H     0.03363   0.30959   0.30687   0.00000  Uiso   1.00
H302   H     0.80026   0.34245   0.43410   0.00000  Uiso   1.00
H303   H     0.97585   0.12499   0.48013   0.00000  Uiso   1.00
H304   H     0.14474   0.37280   0.20984   0.00000  Uiso   1.00
H305   H     0.65266   0.44207   0.47811   0.00000  Uiso   1.00
H306   H     0.02291   0.98349   0.57520   0.00000  Uiso   1.00
H307   H     0.97324   0.33235   0.55194   0.00000  Uiso   1.00
H308   H     0.07126   0.38489   0.45565   0.00000  Uiso   1.00
H309   H     0.83788   0.41776   0.58287   0.00000  Uiso   1.00
H310   H     0.01347   0.20029   0.62891   0.00000  Uiso   1.00
H311   H     0.17528   0.43392   0.33060   0.00000  Uiso   1.00
H312   H     0.68319   0.50318   0.59887   0.00000  Uiso   1.00
H313   H     0.05345   0.04461   0.69595   0.00000  Uiso   1.00
O314   O     0.22383   0.43666   0.20433   0.00000  Uiso   1.00
O315   O     0.57823   0.52752   0.55630   0.00000  Uiso   1.00
O316   O     0.06400   0.92589   0.68367   0.00000  Uiso   1.00
N317   N     0.13849   0.37996   0.25148   0.00000  Uiso   1.00
N318   N     0.67842   0.44473   0.50229   0.00000  Uiso   1.00
N319   N     0.02456   0.01600   0.59306   0.00000  Uiso   1.00
N320   N     0.15492   0.41284   0.31646   0.00000  Uiso   1.00
N321   N     0.69485   0.47761   0.56726   0.00000  Uiso   1.00
N322   N     0.04099   0.04889   0.65804   0.00000  Uiso   1.00
C323   C     0.27330   0.33617   0.57177   0.00000  Uiso   1.00
C324   C     0.30213   0.28203   0.53435   0.00000  Uiso   1.00
C325   C     0.31199   0.29950   0.46726   0.00000  Uiso   1.00
C326   C     0.33897   0.24211   0.44243   0.00000  Uiso   1.00
C327   C     0.38125   0.16903   0.37810   0.00000  Uiso   1.00
C328   C     0.33158   0.31328   0.60278   0.00000  Uiso   1.00
C329   C     0.36620   0.35703   0.59323   0.00000  Uiso   1.00
C330   C     0.41796   0.32594   0.62602   0.00000  Uiso   1.00
C331   C     0.50593   0.30139   0.66797   0.00000  Uiso   1.00
C332   C     0.20701   0.32207   0.62973   0.00000  Uiso   1.00
C333   C     0.13689   0.37322   0.64285   0.00000  Uiso   1.00
C334   C     0.08378   0.34954   0.69833   0.00000  Uiso   1.00
C335   C     0.97834   0.33864   0.78212   0.00000  Uiso   1.00
C336   C     0.30366   0.20319   0.64699   0.00000  Uiso   1.00
C337   C     0.31862   0.20980   0.57521   0.00000  Uiso   1.00
C338   C     0.34558   0.15237   0.55047   0.00000  Uiso   1.00
C339   C     0.35548   0.16975   0.48335   0.00000  Uiso   1.00
C340   C     0.34807   0.24105   0.64363   0.00000  Uiso   1.00
C341   C     0.39979   0.20990   0.67645   0.00000  Uiso   1.00
C342   C     0.43448   0.25358   0.66694   0.00000  Uiso   1.00
C343   C     0.22350   0.24984   0.67058   0.00000  Uiso   1.00
C344   C     0.17049   0.22608   0.72606   0.00000  Uiso   1.00
C345   C     0.10030   0.27718   0.73926   0.00000  Uiso   1.00
H346   H     0.26046   0.39241   0.53997   0.00000  Uiso   1.00
H347   H     0.29923   0.35541   0.43566   0.00000  Uiso   1.00
H348   H     0.35342   0.41292   0.56162   0.00000  Uiso   1.00
H349   H     0.12415   0.42911   0.61123   0.00000  Uiso   1.00
H350   H     0.34950   0.28253   0.33802   0.00000  Uiso   1.00
H351   H     0.46375   0.40381   0.60363   0.00000  Uiso   1.00
H352   H     0.98029   0.43794   0.70824   0.00000  Uiso   1.00
H353   H     0.31650   0.14695   0.67879   0.00000  Uiso   1.00
H354   H     0.35834   0.09648   0.58210   0.00000  Uiso   1.00
H355   H     0.41253   0.15400   0.70806   0.00000  Uiso   1.00
H356   H     0.18327   0.17018   0.75766   0.00000  Uiso   1.00
H357   H     0.39748   0.07237   0.45687   0.00000  Uiso   1.00
H358   H     0.51173   0.19366   0.72249   0.00000  Uiso   1.00
H359   H     0.02827   0.22779   0.82709   0.00000  Uiso   1.00
O360   O     0.40003   0.14868   0.33133   0.00000  Uiso   1.00
O361   O     0.54991   0.30780   0.67981   0.00000  Uiso   1.00
O362   O     0.91562   0.35258   0.81705   0.00000  Uiso   1.00
N363   N     0.35504   0.24000   0.37926   0.00000  Uiso   1.00
N364   N     0.46186   0.35339   0.62759   0.00000  Uiso   1.00
N365   N     0.00988   0.38530   0.72540   0.00000  Uiso   1.00
N366   N     0.38086   0.12691   0.44322   0.00000  Uiso   1.00
N367   N     0.48768   0.24030   0.69154   0.00000  Uiso   1.00
N368   N     0.03569   0.27222   0.78935   0.00000  Uiso   1.00
C369   C     0.39807   0.90259   0.50120   0.00000  Uiso   1.00
C370   C     0.34296   0.96298   0.46460   0.00000  Uiso   1.00
C371   C     0.35995   0.00490   0.39854   0.00000  Uiso   1.00
C372   C     0.30168   0.05739   0.37434   0.00000  Uiso   1.00
C373   C     0.22715   0.14959   0.31135   0.00000  Uiso   1.00
C374   C     0.37920   0.83464   0.52814   0.00000  Uiso   1.00
C375   C     0.42668   0.76864   0.51551   0.00000  Uiso   1.00
C376   C     0.39891   0.71310   0.54481   0.00000  Uiso   1.00
C377   C     0.38066   0.60603   0.58051   0.00000  Uiso   1.00
C378   C     0.38042   0.92295   0.56191   0.00000  Uiso   1.00
C379   C     0.42893   0.93120   0.57768   0.00000  Uiso   1.00
C380   C     0.40220   0.94999   0.63542   0.00000  Uiso   1.00
C381   C     0.38585   0.98004   0.72355   0.00000  Uiso   1.00
C382   C     0.26435   0.92128   0.57571   0.00000  Uiso   1.00
C383   C     0.27033   0.97313   0.50508   0.00000  Uiso   1.00
C384   C     0.21201   0.02557   0.48097   0.00000  Uiso   1.00
C385   C     0.22892   0.06756   0.41488   0.00000  Uiso   1.00
C386   C     0.30657   0.84479   0.56861   0.00000  Uiso   1.00
C387   C     0.27873   0.78932   0.59794   0.00000  Uiso   1.00
C388   C     0.32615   0.72326   0.58535   0.00000  Uiso   1.00
C389   C     0.30779   0.93311   0.60238   0.00000  Uiso   1.00
C390   C     0.28098   0.95188   0.66012   0.00000  Uiso   1.00
C391   C     0.32944   0.96015   0.67597   0.00000  Uiso   1.00
H392   H     0.45462   0.89468   0.46969   0.00000  Uiso   1.00
H393   H     0.41617   0.99702   0.36723   0.00000  Uiso   1.00
H394   H     0.48288   0.76080   0.48419   0.00000  Uiso   1.00
H395   H     0.48513   0.92334   0.54635   0.00000  Uiso   1.00
H396   H     0.34151   0.11494   0.27147   0.00000  Uiso   1.00
H397   H     0.48218   0.61686   0.51811   0.00000  Uiso   1.00
H398   H     0.48693   0.95959   0.64919   0.00000  Uiso   1.00
H399   H     0.20780   0.92918   0.60722   0.00000  Uiso   1.00
H400   H     0.15581   0.03341   0.51230   0.00000  Uiso   1.00
H401   H     0.22252   0.79719   0.62926   0.00000  Uiso   1.00
H402   H     0.22477   0.95973   0.69142   0.00000  Uiso   1.00
H403   H     0.13019   0.14447   0.38922   0.00000  Uiso   1.00
H404   H     0.27087   0.64639   0.63586   0.00000  Uiso   1.00
H405   H     0.27561   0.98912   0.76693   0.00000  Uiso   1.00
O406   O     0.20610   0.19763   0.26542   0.00000  Uiso   1.00
O407   O     0.39066   0.54417   0.58901   0.00000  Uiso   1.00
O408   O     0.39689   0.99383   0.76098   0.00000  Uiso   1.00
N409   N     0.29891   0.10759   0.31221   0.00000  Uiso   1.00
N410   N     0.43043   0.64192   0.54280   0.00000  Uiso   1.00
N411   N     0.43488   0.96233   0.66535   0.00000  Uiso   1.00
N412   N     0.18521   0.12349   0.37557   0.00000  Uiso   1.00
N413   N     0.31672   0.65781   0.60615   0.00000  Uiso   1.00
N414   N     0.32117   0.97822   0.72871   0.00000  Uiso   1.00
C415   C     0.35539   0.85652   0.97822   0.00000  Uiso   1.00
C416   C     0.41703   0.80115   0.94229   0.00000  Uiso   1.00
C417   C     0.45770   0.81718   0.87555   0.00000  Uiso   1.00
C418   C     0.51168   0.75884   0.85215   0.00000  Uiso   1.00
C419   C     0.60542   0.68378   0.78997   0.00000  Uiso   1.00
C420   C     0.28852   0.83459   0.00836   0.00000  Uiso   1.00
C421   C     0.22113   0.87873   0.99718   0.00000  Uiso   1.00
C422   C     0.16692   0.84853   0.02939   0.00000  Uiso   1.00
C423   C     0.06112   0.82540   0.06983   0.00000  Uiso   1.00
C424   C     0.37675   0.84328   0.03685   0.00000  Uiso   1.00
C425   C     0.38354   0.89474   0.04965   0.00000  Uiso   1.00
C426   C     0.40360   0.87187   0.10587   0.00000  Uiso   1.00
C427   C     0.43480   0.86224   0.19056   0.00000  Uiso   1.00
C428   C     0.37893   0.72441   0.05533   0.00000  Uiso   1.00
C429   C     0.42981   0.72940   0.98417   0.00000  Uiso   1.00
C430   C     0.48374   0.67102   0.96086   0.00000  Uiso   1.00
C431   C     0.52449   0.68695   0.89410   0.00000  Uiso   1.00
C432   C     0.30130   0.76284   0.05024   0.00000  Uiso   1.00
C433   C     0.24717   0.73257   0.08248   0.00000  Uiso   1.00
C434   C     0.17972   0.77665   0.07135   0.00000  Uiso   1.00
C435   C     0.38954   0.77153   0.07874   0.00000  Uiso   1.00
C436   C     0.40958   0.74858   0.13495   0.00000  Uiso   1.00
C437   C     0.41640   0.79998   0.14783   0.00000  Uiso   1.00
H438   H     0.34544   0.91238   0.94562   0.00000  Uiso   1.00
H439   H     0.44779   0.87272   0.84316   0.00000  Uiso   1.00
H440   H     0.21126   0.93426   0.96477   0.00000  Uiso   1.00
H441   H     0.37364   0.95026   0.01723   0.00000  Uiso   1.00
H442   H     0.56689   0.79709   0.74802   0.00000  Uiso   1.00
H443   H     0.06813   0.92686   0.00447   0.00000  Uiso   1.00
H444   H     0.41055   0.96061   0.11509   0.00000  Uiso   1.00
H445   H     0.38888   0.66855   0.08793   0.00000  Uiso   1.00
H446   H     0.49362   0.61549   0.99328   0.00000  Uiso   1.00
H447   H     0.25708   0.67704   0.11489   0.00000  Uiso   1.00
H448   H     0.41947   0.69304   0.16735   0.00000  Uiso   1.00
H449   H     0.60408   0.58832   0.86987   0.00000  Uiso   1.00
H450   H     0.10532   0.71809   0.12631   0.00000  Uiso   1.00
H451   H     0.44774   0.75184   0.23694   0.00000  Uiso   1.00
O452   O     0.65359   0.66220   0.74411   0.00000  Uiso   1.00
O453   O     0.99924   0.83246   0.08056   0.00000  Uiso   1.00
O454   O     0.44848   0.87675   0.22569   0.00000  Uiso   1.00
N455   N     0.56128   0.75524   0.78969   0.00000  Uiso   1.00
N456   N     0.09497   0.87656   0.02944   0.00000  Uiso   1.00
N457   N     0.41509   0.90812   0.13288   0.00000  Uiso   1.00
N458   N     0.58129   0.64290   0.85526   0.00000  Uiso   1.00
N459   N     0.11499   0.76422   0.09501   0.00000  Uiso   1.00
N460   N     0.43510   0.79579   0.19844   0.00000  Uiso   1.00
C461   C     0.67979   0.34753   0.10688   0.00000  Uiso   1.00
C462   C     0.71577   0.40478   0.06968   0.00000  Uiso   1.00
C463   C     0.72722   0.44371   0.00259   0.00000  Uiso   1.00
C464   C     0.76105   0.49363   0.97798   0.00000  Uiso   1.00
C465   C     0.81368   0.58090   0.91397   0.00000  Uiso   1.00
C466   C     0.73499   0.27851   0.13801   0.00000  Uiso   1.00
C467   C     0.76258   0.21126   0.12837   0.00000  Uiso   1.00
C468   C     0.81258   0.15488   0.16130   0.00000  Uiso   1.00
C469   C     0.89499   0.04609   0.20341   0.00000  Uiso   1.00
C470   C     0.61583   0.37260   0.16476   0.00000  Uiso   1.00
C471   C     0.54325   0.38446   0.17763   0.00000  Uiso   1.00
C472   C     0.49293   0.40729   0.23309   0.00000  Uiso   1.00
C473   C     0.39034   0.44460   0.31673   0.00000  Uiso   1.00
C474   C     0.71950   0.36696   0.18250   0.00000  Uiso   1.00
C475   C     0.73734   0.41533   0.11075   0.00000  Uiso   1.00
C476   C     0.77116   0.46521   0.08625   0.00000  Uiso   1.00
C477   C     0.78266   0.50420   0.01913   0.00000  Uiso   1.00
C478   C     0.75656   0.28906   0.17908   0.00000  Uiso   1.00
C479   C     0.80652   0.23276   0.21203   0.00000  Uiso   1.00
C480   C     0.83419   0.16545   0.20245   0.00000  Uiso   1.00
C481   C     0.63740   0.38316   0.20583   0.00000  Uiso   1.00
C482   C     0.58719   0.40597   0.26129   0.00000  Uiso   1.00
C483   C     0.51454   0.41786   0.27424   0.00000  Uiso   1.00
H484   H     0.66300   0.33931   0.07491   0.00000  Uiso   1.00
H485   H     0.71053   0.43552   0.97082   0.00000  Uiso   1.00
H486   H     0.74588   0.20311   0.09659   0.00000  Uiso   1.00
H487   H     0.52657   0.37629   0.14584   0.00000  Uiso   1.00
H488   H     0.77276   0.54683   0.87353   0.00000  Uiso   1.00
H489   H     0.84727   0.05677   0.13874   0.00000  Uiso   1.00
H490   H     0.38483   0.42194   0.24259   0.00000  Uiso   1.00
H491   H     0.73630   0.37518   0.21447   0.00000  Uiso   1.00
H492   H     0.78785   0.47337   0.11804   0.00000  Uiso   1.00
H493   H     0.82320   0.24095   0.24381   0.00000  Uiso   1.00
H494   H     0.60390   0.41413   0.29306   0.00000  Uiso   1.00
H495   H     0.83552   0.57754   0.99302   0.00000  Uiso   1.00
H496   H     0.91003   0.08748   0.25824   0.00000  Uiso   1.00
H497   H     0.44759   0.45266   0.36208   0.00000  Uiso   1.00
O498   O     0.83675   0.62611   0.86731   0.00000  Uiso   1.00
O499   O     0.93450   0.98317   0.21528   0.00000  Uiso   1.00
O500   O     0.32779   0.46227   0.35152   0.00000  Uiso   1.00
N501   N     0.78044   0.54059   0.91488   0.00000  Uiso   1.00
N502   N     0.85012   0.08242   0.16284   0.00000  Uiso   1.00
N503   N     0.41778   0.42381   0.25994   0.00000  Uiso   1.00
N504   N     0.81421   0.55712   0.97918   0.00000  Uiso   1.00
N505   N     0.88389   0.09895   0.22714   0.00000  Uiso   1.00
N506   N     0.45155   0.44034   0.32423   0.00000  Uiso   1.00
C507   C     0.80362   0.71832   0.05216   0.00000  Uiso   1.00
C508   C     0.74879   0.74892   0.01482   0.00000  Uiso   1.00
C509   C     0.76613   0.75610   0.94839   0.00000  Uiso   1.00
C510   C     0.70808   0.78535   0.92352   0.00000  Uiso   1.00
C511   C     0.63401   0.82966   0.85943   0.00000  Uiso   1.00
C512   C     0.78513   0.77725   0.08028   0.00000  Uiso   1.00
C513   C     0.83303   0.80823   0.06888   0.00000  Uiso   1.00
C514   C     0.80558   0.86132   0.09911   0.00000  Uiso   1.00
C515   C     0.78795   0.94957   0.13667   0.00000  Uiso   1.00
C516   C     0.78515   0.65565   0.11208   0.00000  Uiso   1.00
C517   C     0.83307   0.58441   0.12743   0.00000  Uiso   1.00
C518   C     0.80563   0.53512   0.18446   0.00000  Uiso   1.00
C519   C     0.78802   0.43458   0.27139   0.00000  Uiso   1.00
C520   C     0.66968   0.75750   0.12614   0.00000  Uiso   1.00
C521   C     0.67604   0.77020   0.05501   0.00000  Uiso   1.00
C522   C     0.61795   0.79945   0.03024   0.00000  Uiso   1.00
C523   C     0.63520   0.80667   0.96378   0.00000  Uiso   1.00
C524   C     0.71239   0.79853   0.12046   0.00000  Uiso   1.00
C525   C     0.68485   0.85158   0.15072   0.00000  Uiso   1.00
C526   C     0.73270   0.88264   0.13937   0.00000  Uiso   1.00
C527   C     0.71240   0.67693   0.15226   0.00000  Uiso   1.00
C528   C     0.68488   0.62775   0.20927   0.00000  Uiso   1.00
C529   C     0.73275   0.55644   0.22471   0.00000  Uiso   1.00
H530   H     0.86025   0.70176   0.02088   0.00000  Uiso   1.00
H531   H     0.82243   0.73964   0.91731   0.00000  Uiso   1.00
H532   H     0.88933   0.79175   0.03778   0.00000  Uiso   1.00
H533   H     0.88936   0.56796   0.09633   0.00000  Uiso   1.00
H534   H     0.74842   0.79104   0.82020   0.00000  Uiso   1.00
H535   H     0.88948   0.90091   0.07424   0.00000  Uiso   1.00
H536   H     0.88955   0.42900   0.19769   0.00000  Uiso   1.00
H537   H     0.61305   0.77407   0.15742   0.00000  Uiso   1.00
H538   H     0.56166   0.81591   0.06134   0.00000  Uiso   1.00
H539   H     0.62856   0.86803   0.18182   0.00000  Uiso   1.00
H540   H     0.62859   0.64424   0.24036   0.00000  Uiso   1.00
H541   H     0.53677   0.85295   0.93710   0.00000  Uiso   1.00
H542   H     0.67783   0.96282   0.19114   0.00000  Uiso   1.00
H543   H     0.67789   0.49091   0.31459   0.00000  Uiso   1.00
O544   O     0.61325   0.84824   0.81297   0.00000  Uiso   1.00
O545   O     0.79832   0.99237   0.14628   0.00000  Uiso   1.00
O546   O     0.79841   0.37324   0.30824   0.00000  Uiso   1.00
N547   N     0.70566   0.79985   0.86090   0.00000  Uiso   1.00
N548   N     0.83754   0.90258   0.09841   0.00000  Uiso   1.00
N549   N     0.83761   0.46139   0.21383   0.00000  Uiso   1.00
N550   N     0.59177   0.83316   0.92380   0.00000  Uiso   1.00
N551   N     0.72365   0.93590   0.16131   0.00000  Uiso   1.00
N552   N     0.72372   0.49470   0.27673   0.00000  Uiso   1.00
