data_job_01996
_audit_creation_date              2018-12-19
_audit_creation_method            'Materials Studio'
_symmetry_space_group_name_H-M    'P1'
_symmetry_Int_Tables_number       1
_symmetry_cell_setting            triclinic
loop_
_symmetry_equiv_pos_as_xyz
  x,y,z
_cell_length_a                    20.5058
_cell_length_b                    20.5058
_cell_length_c                    11.8335
_cell_angle_alpha                 90.0000
_cell_angle_beta                  90.0000
_cell_angle_gamma                 90.0000
loop_
_atom_site_label
_atom_site_type_symbol
_atom_site_fract_x
_atom_site_fract_y
_atom_site_fract_z
_atom_site_U_iso_or_equiv
_atom_site_adp_type
_atom_site_occupancy
C1     C     0.82845   0.71438   0.10832   0.00000  Uiso   1.00
C2     C     0.85224   0.76884   0.18579   0.00000  Uiso   1.00
C3     C     0.84432   0.83517   0.16700   0.00000  Uiso   1.00
C4     C     0.86959   0.87717   0.24794   0.00000  Uiso   1.00
C5     C     0.90168   0.96531   0.35357   0.00000  Uiso   1.00
C6     C     0.88847   0.67369   0.07968   0.00000  Uiso   1.00
C7     C     0.91101   0.66002   0.97166   0.00000  Uiso   1.00
C8     C     0.96677   0.62191   0.96328   0.00000  Uiso   1.00
C9     C     0.05508   0.56230   0.90416   0.00000  Uiso   1.00
C10    C     0.78505   0.67088   0.18091   0.00000  Uiso   1.00
C11    C     0.72065   0.65483   0.15800   0.00000  Uiso   1.00
C12    C     0.68935   0.61435   0.23484   0.00000  Uiso   1.00
C13    C     0.61709   0.55038   0.33289   0.00000  Uiso   1.00
C14    C     0.88739   0.67101   0.28550   0.00000  Uiso   1.00
C15    C     0.88425   0.74528   0.28203   0.00000  Uiso   1.00
C16    C     0.90953   0.78719   0.36303   0.00000  Uiso   1.00
C17    C     0.90166   0.85357   0.34436   0.00000  Uiso   1.00
C18    C     0.92048   0.65013   0.17591   0.00000  Uiso   1.00
C19    C     0.97622   0.61204   0.16769   0.00000  Uiso   1.00
C20    C     0.99884   0.59831   0.05969   0.00000  Uiso   1.00
C21    C     0.81707   0.64733   0.27715   0.00000  Uiso   1.00
C22    C     0.78586   0.60686   0.35403   0.00000  Uiso   1.00
C23    C     0.72142   0.59075   0.33125   0.00000  Uiso   1.00
H24    H     0.80353   0.73271   0.03339   0.00000  Uiso   1.00
H25    H     0.81955   0.85338   0.09250   0.00000  Uiso   1.00
H26    H     0.88622   0.67825   0.89720   0.00000  Uiso   1.00
H27    H     0.69589   0.67307   0.08351   0.00000  Uiso   1.00
H28    H     0.85145   0.97677   0.20046   0.00000  Uiso   1.00
H29    H     0.99201   0.60748   0.78865   0.00000  Uiso   1.00
H30    H     0.59067   0.59656   0.18152   0.00000  Uiso   1.00
H31    H     0.91232   0.65267   0.36043   0.00000  Uiso   1.00
H32    H     0.93431   0.76894   0.43749   0.00000  Uiso   1.00
H33    H     0.00098   0.59381   0.24218   0.00000  Uiso   1.00
H34    H     0.81065   0.58864   0.42850   0.00000  Uiso   1.00
H35    H     0.94459   0.90824   0.48046   0.00000  Uiso   1.00
H36    H     0.08516   0.53895   0.06865   0.00000  Uiso   1.00
H37    H     0.68381   0.52803   0.46153   0.00000  Uiso   1.00
O38    O     0.91054   0.02044   0.38523   0.00000  Uiso   1.00
O39    O     0.09495   0.53594   0.84495   0.00000  Uiso   1.00
O40    O     0.56839   0.52161   0.36040   0.00000  Uiso   1.00
N41    N     0.87034   0.94469   0.25579   0.00000  Uiso   1.00
N42    N     0.00177   0.59943   0.87077   0.00000  Uiso   1.00
N43    N     0.62655   0.58920   0.23806   0.00000  Uiso   1.00
N44    N     0.92046   0.90781   0.40646   0.00000  Uiso   1.00
N45    N     0.05189   0.56256   0.02144   0.00000  Uiso   1.00
N46    N     0.67667   0.55233   0.38873   0.00000  Uiso   1.00
C47    C     0.32845   0.21438   0.60832   0.00000  Uiso   1.00
C48    C     0.35224   0.26884   0.68579   0.00000  Uiso   1.00
C49    C     0.34432   0.33517   0.66700   0.00000  Uiso   1.00
C50    C     0.36959   0.37717   0.74794   0.00000  Uiso   1.00
C51    C     0.40168   0.46531   0.85357   0.00000  Uiso   1.00
C52    C     0.38847   0.17369   0.57968   0.00000  Uiso   1.00
C53    C     0.41101   0.16002   0.47166   0.00000  Uiso   1.00
C54    C     0.46677   0.12191   0.46328   0.00000  Uiso   1.00
C55    C     0.55508   0.06230   0.40416   0.00000  Uiso   1.00
C56    C     0.28505   0.17088   0.68091   0.00000  Uiso   1.00
C57    C     0.22065   0.15483   0.65800   0.00000  Uiso   1.00
C58    C     0.18935   0.11435   0.73484   0.00000  Uiso   1.00
C59    C     0.11709   0.05038   0.83289   0.00000  Uiso   1.00
C60    C     0.38739   0.17101   0.78550   0.00000  Uiso   1.00
C61    C     0.38425   0.24528   0.78203   0.00000  Uiso   1.00
C62    C     0.40953   0.28719   0.86303   0.00000  Uiso   1.00
C63    C     0.40166   0.35357   0.84436   0.00000  Uiso   1.00
C64    C     0.42048   0.15013   0.67591   0.00000  Uiso   1.00
C65    C     0.47622   0.11204   0.66769   0.00000  Uiso   1.00
C66    C     0.49884   0.09831   0.55969   0.00000  Uiso   1.00
C67    C     0.31707   0.14733   0.77715   0.00000  Uiso   1.00
C68    C     0.28586   0.10686   0.85403   0.00000  Uiso   1.00
C69    C     0.22142   0.09075   0.83125   0.00000  Uiso   1.00
H70    H     0.30353   0.23271   0.53339   0.00000  Uiso   1.00
H71    H     0.31955   0.35338   0.59250   0.00000  Uiso   1.00
H72    H     0.38622   0.17825   0.39720   0.00000  Uiso   1.00
H73    H     0.19589   0.17307   0.58351   0.00000  Uiso   1.00
H74    H     0.35145   0.47677   0.70046   0.00000  Uiso   1.00
H75    H     0.49201   0.10748   0.28865   0.00000  Uiso   1.00
H76    H     0.09067   0.09656   0.68152   0.00000  Uiso   1.00
H77    H     0.41232   0.15267   0.86043   0.00000  Uiso   1.00
H78    H     0.43431   0.26894   0.93749   0.00000  Uiso   1.00
H79    H     0.50098   0.09381   0.74218   0.00000  Uiso   1.00
H80    H     0.31065   0.08864   0.92850   0.00000  Uiso   1.00
H81    H     0.44459   0.40824   0.98046   0.00000  Uiso   1.00
H82    H     0.58516   0.03895   0.56865   0.00000  Uiso   1.00
H83    H     0.18381   0.02803   0.96153   0.00000  Uiso   1.00
O84    O     0.41054   0.52044   0.88523   0.00000  Uiso   1.00
O85    O     0.59495   0.03594   0.34495   0.00000  Uiso   1.00
O86    O     0.06839   0.02161   0.86040   0.00000  Uiso   1.00
N87    N     0.37034   0.44469   0.75579   0.00000  Uiso   1.00
N88    N     0.50177   0.09943   0.37077   0.00000  Uiso   1.00
N89    N     0.12655   0.08920   0.73806   0.00000  Uiso   1.00
N90    N     0.42046   0.40781   0.90646   0.00000  Uiso   1.00
N91    N     0.55189   0.06256   0.52144   0.00000  Uiso   1.00
N92    N     0.17667   0.05233   0.88873   0.00000  Uiso   1.00
C93    C     0.17155   0.28562   0.10832   0.00000  Uiso   1.00
C94    C     0.14776   0.23116   0.18579   0.00000  Uiso   1.00
C95    C     0.15568   0.16483   0.16700   0.00000  Uiso   1.00
C96    C     0.13041   0.12283   0.24794   0.00000  Uiso   1.00
C97    C     0.09832   0.03469   0.35357   0.00000  Uiso   1.00
C98    C     0.11153   0.32631   0.07968   0.00000  Uiso   1.00
C99    C     0.08899   0.33998   0.97166   0.00000  Uiso   1.00
C100   C     0.03323   0.37809   0.96328   0.00000  Uiso   1.00
C101   C     0.94492   0.43770   0.90416   0.00000  Uiso   1.00
C102   C     0.21495   0.32912   0.18091   0.00000  Uiso   1.00
C103   C     0.27935   0.34517   0.15800   0.00000  Uiso   1.00
C104   C     0.31065   0.38565   0.23484   0.00000  Uiso   1.00
C105   C     0.38291   0.44962   0.33289   0.00000  Uiso   1.00
C106   C     0.11261   0.32899   0.28550   0.00000  Uiso   1.00
C107   C     0.11575   0.25472   0.28203   0.00000  Uiso   1.00
C108   C     0.09047   0.21281   0.36303   0.00000  Uiso   1.00
C109   C     0.09834   0.14643   0.34436   0.00000  Uiso   1.00
C110   C     0.07952   0.34987   0.17591   0.00000  Uiso   1.00
C111   C     0.02378   0.38796   0.16769   0.00000  Uiso   1.00
C112   C     0.00116   0.40169   0.05969   0.00000  Uiso   1.00
C113   C     0.18293   0.35267   0.27715   0.00000  Uiso   1.00
C114   C     0.21414   0.39314   0.35403   0.00000  Uiso   1.00
C115   C     0.27858   0.40925   0.33125   0.00000  Uiso   1.00
H116   H     0.19647   0.26729   0.03339   0.00000  Uiso   1.00
H117   H     0.18045   0.14662   0.09250   0.00000  Uiso   1.00
H118   H     0.11378   0.32175   0.89720   0.00000  Uiso   1.00
H119   H     0.30411   0.32693   0.08351   0.00000  Uiso   1.00
H120   H     0.14855   0.02323   0.20046   0.00000  Uiso   1.00
H121   H     0.00799   0.39252   0.78865   0.00000  Uiso   1.00
H122   H     0.40933   0.40344   0.18152   0.00000  Uiso   1.00
H123   H     0.08768   0.34733   0.36043   0.00000  Uiso   1.00
H124   H     0.06569   0.23106   0.43749   0.00000  Uiso   1.00
H125   H     0.99902   0.40619   0.24218   0.00000  Uiso   1.00
H126   H     0.18935   0.41136   0.42850   0.00000  Uiso   1.00
H127   H     0.05541   0.09176   0.48046   0.00000  Uiso   1.00
H128   H     0.91484   0.46105   0.06865   0.00000  Uiso   1.00
H129   H     0.31619   0.47197   0.46153   0.00000  Uiso   1.00
O130   O     0.08946   0.97956   0.38523   0.00000  Uiso   1.00
O131   O     0.90505   0.46406   0.84495   0.00000  Uiso   1.00
O132   O     0.43161   0.47839   0.36040   0.00000  Uiso   1.00
N133   N     0.12966   0.05531   0.25579   0.00000  Uiso   1.00
N134   N     0.99823   0.40057   0.87077   0.00000  Uiso   1.00
N135   N     0.37345   0.41080   0.23806   0.00000  Uiso   1.00
N136   N     0.07954   0.09219   0.40646   0.00000  Uiso   1.00
N137   N     0.94811   0.43744   0.02144   0.00000  Uiso   1.00
N138   N     0.32333   0.44767   0.38873   0.00000  Uiso   1.00
C139   C     0.67155   0.78562   0.60832   0.00000  Uiso   1.00
C140   C     0.64776   0.73116   0.68579   0.00000  Uiso   1.00
C141   C     0.65568   0.66483   0.66700   0.00000  Uiso   1.00
C142   C     0.63041   0.62283   0.74794   0.00000  Uiso   1.00
C143   C     0.59832   0.53469   0.85357   0.00000  Uiso   1.00
C144   C     0.61153   0.82631   0.57968   0.00000  Uiso   1.00
C145   C     0.58899   0.83998   0.47166   0.00000  Uiso   1.00
C146   C     0.53323   0.87809   0.46328   0.00000  Uiso   1.00
C147   C     0.44492   0.93770   0.40416   0.00000  Uiso   1.00
C148   C     0.71495   0.82912   0.68091   0.00000  Uiso   1.00
C149   C     0.77935   0.84517   0.65800   0.00000  Uiso   1.00
C150   C     0.81065   0.88565   0.73484   0.00000  Uiso   1.00
C151   C     0.88291   0.94962   0.83289   0.00000  Uiso   1.00
C152   C     0.61261   0.82899   0.78550   0.00000  Uiso   1.00
C153   C     0.61575   0.75472   0.78203   0.00000  Uiso   1.00
C154   C     0.59047   0.71281   0.86303   0.00000  Uiso   1.00
C155   C     0.59834   0.64643   0.84436   0.00000  Uiso   1.00
C156   C     0.57952   0.84987   0.67591   0.00000  Uiso   1.00
C157   C     0.52378   0.88796   0.66769   0.00000  Uiso   1.00
C158   C     0.50116   0.90169   0.55969   0.00000  Uiso   1.00
C159   C     0.68293   0.85267   0.77715   0.00000  Uiso   1.00
C160   C     0.71414   0.89314   0.85403   0.00000  Uiso   1.00
C161   C     0.77858   0.90925   0.83125   0.00000  Uiso   1.00
H162   H     0.69647   0.76729   0.53339   0.00000  Uiso   1.00
H163   H     0.68045   0.64662   0.59250   0.00000  Uiso   1.00
H164   H     0.61378   0.82175   0.39720   0.00000  Uiso   1.00
H165   H     0.80411   0.82693   0.58351   0.00000  Uiso   1.00
H166   H     0.64855   0.52323   0.70046   0.00000  Uiso   1.00
H167   H     0.50799   0.89252   0.28865   0.00000  Uiso   1.00
H168   H     0.90933   0.90344   0.68152   0.00000  Uiso   1.00
H169   H     0.58768   0.84733   0.86043   0.00000  Uiso   1.00
H170   H     0.56569   0.73106   0.93749   0.00000  Uiso   1.00
H171   H     0.49902   0.90619   0.74218   0.00000  Uiso   1.00
H172   H     0.68935   0.91136   0.92850   0.00000  Uiso   1.00
H173   H     0.55541   0.59176   0.98046   0.00000  Uiso   1.00
H174   H     0.41484   0.96105   0.56865   0.00000  Uiso   1.00
H175   H     0.81619   0.97197   0.96153   0.00000  Uiso   1.00
O176   O     0.58946   0.47956   0.88523   0.00000  Uiso   1.00
O177   O     0.40505   0.96406   0.34495   0.00000  Uiso   1.00
O178   O     0.93161   0.97839   0.86040   0.00000  Uiso   1.00
N179   N     0.62966   0.55531   0.75579   0.00000  Uiso   1.00
N180   N     0.49823   0.90057   0.37077   0.00000  Uiso   1.00
N181   N     0.87345   0.91080   0.73806   0.00000  Uiso   1.00
N182   N     0.57954   0.59219   0.90646   0.00000  Uiso   1.00
N183   N     0.44811   0.93744   0.52144   0.00000  Uiso   1.00
N184   N     0.82333   0.94767   0.88873   0.00000  Uiso   1.00
C185   C     0.71438   0.17155   0.89168   0.00000  Uiso   1.00
C186   C     0.76884   0.14776   0.81421   0.00000  Uiso   1.00
C187   C     0.83517   0.15568   0.83300   0.00000  Uiso   1.00
C188   C     0.87717   0.13041   0.75206   0.00000  Uiso   1.00
C189   C     0.96531   0.09832   0.64643   0.00000  Uiso   1.00
C190   C     0.67369   0.11153   0.92032   0.00000  Uiso   1.00
C191   C     0.66002   0.08899   0.02834   0.00000  Uiso   1.00
C192   C     0.62191   0.03323   0.03672   0.00000  Uiso   1.00
C193   C     0.56230   0.94492   0.09584   0.00000  Uiso   1.00
C194   C     0.67088   0.21495   0.81909   0.00000  Uiso   1.00
C195   C     0.65483   0.27935   0.84200   0.00000  Uiso   1.00
C196   C     0.61435   0.31065   0.76516   0.00000  Uiso   1.00
C197   C     0.55038   0.38291   0.66711   0.00000  Uiso   1.00
C198   C     0.67101   0.11261   0.71450   0.00000  Uiso   1.00
C199   C     0.74528   0.11575   0.71797   0.00000  Uiso   1.00
C200   C     0.78719   0.09047   0.63697   0.00000  Uiso   1.00
C201   C     0.85357   0.09834   0.65564   0.00000  Uiso   1.00
C202   C     0.65013   0.07952   0.82409   0.00000  Uiso   1.00
C203   C     0.61204   0.02378   0.83231   0.00000  Uiso   1.00
C204   C     0.59831   0.00116   0.94031   0.00000  Uiso   1.00
C205   C     0.64733   0.18293   0.72285   0.00000  Uiso   1.00
C206   C     0.60686   0.21414   0.64597   0.00000  Uiso   1.00
C207   C     0.59075   0.27858   0.66875   0.00000  Uiso   1.00
H208   H     0.73271   0.19647   0.96661   0.00000  Uiso   1.00
H209   H     0.85338   0.18045   0.90750   0.00000  Uiso   1.00
H210   H     0.67825   0.11378   0.10280   0.00000  Uiso   1.00
H211   H     0.67307   0.30411   0.91649   0.00000  Uiso   1.00
H212   H     0.97677   0.14855   0.79954   0.00000  Uiso   1.00
H213   H     0.60748   0.00799   0.21135   0.00000  Uiso   1.00
H214   H     0.59656   0.40933   0.81848   0.00000  Uiso   1.00
H215   H     0.65267   0.08768   0.63957   0.00000  Uiso   1.00
H216   H     0.76894   0.06569   0.56251   0.00000  Uiso   1.00
H217   H     0.59381   0.99902   0.75782   0.00000  Uiso   1.00
H218   H     0.58864   0.18935   0.57150   0.00000  Uiso   1.00
H219   H     0.90824   0.05541   0.51954   0.00000  Uiso   1.00
H220   H     0.53895   0.91484   0.93135   0.00000  Uiso   1.00
H221   H     0.52803   0.31619   0.53847   0.00000  Uiso   1.00
O222   O     0.02044   0.08946   0.61477   0.00000  Uiso   1.00
O223   O     0.53594   0.90505   0.15505   0.00000  Uiso   1.00
O224   O     0.52161   0.43161   0.63960   0.00000  Uiso   1.00
N225   N     0.94469   0.12966   0.74421   0.00000  Uiso   1.00
N226   N     0.59943   0.99823   0.12923   0.00000  Uiso   1.00
N227   N     0.58920   0.37345   0.76194   0.00000  Uiso   1.00
N228   N     0.90781   0.07954   0.59354   0.00000  Uiso   1.00
N229   N     0.56256   0.94811   0.97856   0.00000  Uiso   1.00
N230   N     0.55233   0.32333   0.61127   0.00000  Uiso   1.00
C231   C     0.21438   0.67155   0.39168   0.00000  Uiso   1.00
C232   C     0.26884   0.64776   0.31421   0.00000  Uiso   1.00
C233   C     0.33517   0.65568   0.33300   0.00000  Uiso   1.00
C234   C     0.37717   0.63041   0.25206   0.00000  Uiso   1.00
C235   C     0.46531   0.59832   0.14643   0.00000  Uiso   1.00
C236   C     0.17369   0.61153   0.42032   0.00000  Uiso   1.00
C237   C     0.16002   0.58899   0.52834   0.00000  Uiso   1.00
C238   C     0.12191   0.53323   0.53672   0.00000  Uiso   1.00
C239   C     0.06230   0.44492   0.59584   0.00000  Uiso   1.00
C240   C     0.17088   0.71495   0.31909   0.00000  Uiso   1.00
C241   C     0.15483   0.77935   0.34200   0.00000  Uiso   1.00
C242   C     0.11435   0.81065   0.26516   0.00000  Uiso   1.00
C243   C     0.05038   0.88291   0.16711   0.00000  Uiso   1.00
C244   C     0.17101   0.61261   0.21450   0.00000  Uiso   1.00
C245   C     0.24528   0.61575   0.21797   0.00000  Uiso   1.00
C246   C     0.28719   0.59047   0.13697   0.00000  Uiso   1.00
C247   C     0.35357   0.59834   0.15564   0.00000  Uiso   1.00
C248   C     0.15013   0.57952   0.32409   0.00000  Uiso   1.00
C249   C     0.11204   0.52378   0.33231   0.00000  Uiso   1.00
C250   C     0.09831   0.50116   0.44031   0.00000  Uiso   1.00
C251   C     0.14733   0.68293   0.22285   0.00000  Uiso   1.00
C252   C     0.10686   0.71414   0.14597   0.00000  Uiso   1.00
C253   C     0.09075   0.77858   0.16875   0.00000  Uiso   1.00
H254   H     0.23271   0.69647   0.46661   0.00000  Uiso   1.00
H255   H     0.35338   0.68045   0.40750   0.00000  Uiso   1.00
H256   H     0.17825   0.61378   0.60280   0.00000  Uiso   1.00
H257   H     0.17307   0.80411   0.41649   0.00000  Uiso   1.00
H258   H     0.47677   0.64855   0.29954   0.00000  Uiso   1.00
H259   H     0.10748   0.50799   0.71135   0.00000  Uiso   1.00
H260   H     0.09656   0.90933   0.31848   0.00000  Uiso   1.00
H261   H     0.15267   0.58768   0.13957   0.00000  Uiso   1.00
H262   H     0.26894   0.56569   0.06251   0.00000  Uiso   1.00
H263   H     0.09381   0.49902   0.25782   0.00000  Uiso   1.00
H264   H     0.08864   0.68935   0.07150   0.00000  Uiso   1.00
H265   H     0.40824   0.55541   0.01954   0.00000  Uiso   1.00
H266   H     0.03895   0.41484   0.43135   0.00000  Uiso   1.00
H267   H     0.02803   0.81619   0.03847   0.00000  Uiso   1.00
O268   O     0.52044   0.58946   0.11477   0.00000  Uiso   1.00
O269   O     0.03594   0.40505   0.65505   0.00000  Uiso   1.00
O270   O     0.02161   0.93161   0.13960   0.00000  Uiso   1.00
N271   N     0.44469   0.62966   0.24421   0.00000  Uiso   1.00
N272   N     0.09943   0.49823   0.62923   0.00000  Uiso   1.00
N273   N     0.08920   0.87345   0.26194   0.00000  Uiso   1.00
N274   N     0.40781   0.57954   0.09354   0.00000  Uiso   1.00
N275   N     0.06256   0.44811   0.47856   0.00000  Uiso   1.00
N276   N     0.05233   0.82333   0.11127   0.00000  Uiso   1.00
C277   C     0.28562   0.82845   0.89168   0.00000  Uiso   1.00
C278   C     0.23116   0.85224   0.81421   0.00000  Uiso   1.00
C279   C     0.16483   0.84432   0.83300   0.00000  Uiso   1.00
C280   C     0.12283   0.86959   0.75206   0.00000  Uiso   1.00
C281   C     0.03469   0.90168   0.64643   0.00000  Uiso   1.00
C282   C     0.32631   0.88847   0.92032   0.00000  Uiso   1.00
C283   C     0.33998   0.91101   0.02834   0.00000  Uiso   1.00
C284   C     0.37809   0.96677   0.03672   0.00000  Uiso   1.00
C285   C     0.43770   0.05508   0.09584   0.00000  Uiso   1.00
C286   C     0.32912   0.78505   0.81909   0.00000  Uiso   1.00
C287   C     0.34517   0.72065   0.84200   0.00000  Uiso   1.00
C288   C     0.38565   0.68935   0.76516   0.00000  Uiso   1.00
C289   C     0.44962   0.61709   0.66711   0.00000  Uiso   1.00
C290   C     0.32899   0.88739   0.71450   0.00000  Uiso   1.00
C291   C     0.25472   0.88425   0.71797   0.00000  Uiso   1.00
C292   C     0.21281   0.90953   0.63697   0.00000  Uiso   1.00
C293   C     0.14643   0.90166   0.65564   0.00000  Uiso   1.00
C294   C     0.34987   0.92048   0.82409   0.00000  Uiso   1.00
C295   C     0.38796   0.97622   0.83231   0.00000  Uiso   1.00
C296   C     0.40169   0.99884   0.94031   0.00000  Uiso   1.00
C297   C     0.35267   0.81707   0.72285   0.00000  Uiso   1.00
C298   C     0.39314   0.78586   0.64597   0.00000  Uiso   1.00
C299   C     0.40925   0.72142   0.66875   0.00000  Uiso   1.00
H300   H     0.26729   0.80353   0.96661   0.00000  Uiso   1.00
H301   H     0.14662   0.81955   0.90750   0.00000  Uiso   1.00
H302   H     0.32175   0.88622   0.10280   0.00000  Uiso   1.00
H303   H     0.32693   0.69589   0.91649   0.00000  Uiso   1.00
H304   H     0.02323   0.85145   0.79954   0.00000  Uiso   1.00
H305   H     0.39252   0.99201   0.21135   0.00000  Uiso   1.00
H306   H     0.40344   0.59067   0.81848   0.00000  Uiso   1.00
H307   H     0.34733   0.91232   0.63957   0.00000  Uiso   1.00
H308   H     0.23106   0.93431   0.56251   0.00000  Uiso   1.00
H309   H     0.40619   0.00098   0.75782   0.00000  Uiso   1.00
H310   H     0.41136   0.81065   0.57150   0.00000  Uiso   1.00
H311   H     0.09176   0.94459   0.51954   0.00000  Uiso   1.00
H312   H     0.46105   0.08516   0.93135   0.00000  Uiso   1.00
H313   H     0.47197   0.68381   0.53847   0.00000  Uiso   1.00
O314   O     0.97956   0.91054   0.61477   0.00000  Uiso   1.00
O315   O     0.46406   0.09495   0.15505   0.00000  Uiso   1.00
O316   O     0.47839   0.56839   0.63960   0.00000  Uiso   1.00
N317   N     0.05531   0.87034   0.74421   0.00000  Uiso   1.00
N318   N     0.40057   0.00177   0.12923   0.00000  Uiso   1.00
N319   N     0.41080   0.62655   0.76194   0.00000  Uiso   1.00
N320   N     0.09219   0.92046   0.59354   0.00000  Uiso   1.00
N321   N     0.43744   0.05189   0.97856   0.00000  Uiso   1.00
N322   N     0.44767   0.67667   0.61127   0.00000  Uiso   1.00
C323   C     0.78562   0.32845   0.39168   0.00000  Uiso   1.00
C324   C     0.73116   0.35224   0.31421   0.00000  Uiso   1.00
C325   C     0.66483   0.34432   0.33300   0.00000  Uiso   1.00
C326   C     0.62283   0.36959   0.25206   0.00000  Uiso   1.00
C327   C     0.53469   0.40168   0.14643   0.00000  Uiso   1.00
C328   C     0.82631   0.38847   0.42032   0.00000  Uiso   1.00
C329   C     0.83998   0.41101   0.52834   0.00000  Uiso   1.00
C330   C     0.87809   0.46677   0.53672   0.00000  Uiso   1.00
C331   C     0.93770   0.55508   0.59584   0.00000  Uiso   1.00
C332   C     0.82912   0.28505   0.31909   0.00000  Uiso   1.00
C333   C     0.84517   0.22065   0.34200   0.00000  Uiso   1.00
C334   C     0.88565   0.18935   0.26516   0.00000  Uiso   1.00
C335   C     0.94962   0.11709   0.16711   0.00000  Uiso   1.00
C336   C     0.82899   0.38739   0.21450   0.00000  Uiso   1.00
C337   C     0.75472   0.38425   0.21797   0.00000  Uiso   1.00
C338   C     0.71281   0.40953   0.13697   0.00000  Uiso   1.00
C339   C     0.64643   0.40166   0.15564   0.00000  Uiso   1.00
C340   C     0.84987   0.42048   0.32409   0.00000  Uiso   1.00
C341   C     0.88796   0.47622   0.33231   0.00000  Uiso   1.00
C342   C     0.90169   0.49884   0.44031   0.00000  Uiso   1.00
C343   C     0.85267   0.31707   0.22285   0.00000  Uiso   1.00
C344   C     0.89314   0.28586   0.14597   0.00000  Uiso   1.00
C345   C     0.90925   0.22142   0.16875   0.00000  Uiso   1.00
H346   H     0.76729   0.30353   0.46661   0.00000  Uiso   1.00
H347   H     0.64662   0.31955   0.40750   0.00000  Uiso   1.00
H348   H     0.82175   0.38622   0.60280   0.00000  Uiso   1.00
H349   H     0.82693   0.19589   0.41649   0.00000  Uiso   1.00
H350   H     0.52323   0.35145   0.29954   0.00000  Uiso   1.00
H351   H     0.89252   0.49201   0.71135   0.00000  Uiso   1.00
H352   H     0.90344   0.09067   0.31848   0.00000  Uiso   1.00
H353   H     0.84733   0.41232   0.13957   0.00000  Uiso   1.00
H354   H     0.73106   0.43431   0.06251   0.00000  Uiso   1.00
H355   H     0.90619   0.50098   0.25782   0.00000  Uiso   1.00
H356   H     0.91136   0.31065   0.07150   0.00000  Uiso   1.00
H357   H     0.59176   0.44459   0.01954   0.00000  Uiso   1.00
H358   H     0.96105   0.58516   0.43135   0.00000  Uiso   1.00
H359   H     0.97197   0.18381   0.03847   0.00000  Uiso   1.00
O360   O     0.47956   0.41054   0.11477   0.00000  Uiso   1.00
O361   O     0.96406   0.59495   0.65505   0.00000  Uiso   1.00
O362   O     0.97839   0.06839   0.13960   0.00000  Uiso   1.00
N363   N     0.55531   0.37034   0.24421   0.00000  Uiso   1.00
N364   N     0.90057   0.50177   0.62923   0.00000  Uiso   1.00
N365   N     0.91080   0.12655   0.26194   0.00000  Uiso   1.00
N366   N     0.59219   0.42046   0.09354   0.00000  Uiso   1.00
N367   N     0.93744   0.55189   0.47856   0.00000  Uiso   1.00
N368   N     0.94767   0.17667   0.11127   0.00000  Uiso   1.00
