data_job_06278
_audit_creation_date              2018-12-19
_audit_creation_method            'Materials Studio'
_symmetry_space_group_name_H-M    'P1'
_symmetry_Int_Tables_number       1
_symmetry_cell_setting            triclinic
loop_
_symmetry_equiv_pos_as_xyz
  x,y,z
_cell_length_a                    19.1935
_cell_length_b                    19.4989
_cell_length_c                    21.3230
_cell_angle_alpha                 65.1938
_cell_angle_beta                  63.8173
_cell_angle_gamma                 61.2702
loop_
_atom_site_label
_atom_site_type_symbol
_atom_site_fract_x
_atom_site_fract_y
_atom_site_fract_z
_atom_site_U_iso_or_equiv
_atom_site_adp_type
_atom_site_occupancy
C1     C     0.22959   0.74158   0.25567   0.00000  Uiso   1.00
C2     C     0.25608   0.65478   0.30262   0.00000  Uiso   1.00
C3     C     0.33680   0.59818   0.29259   0.00000  Uiso   1.00
C4     C     0.34814   0.52203   0.34138   0.00000  Uiso   1.00
C5     C     0.39946   0.39009   0.40562   0.00000  Uiso   1.00
C6     C     0.16316   0.75034   0.22904   0.00000  Uiso   1.00
C7     C     0.16575   0.77410   0.15715   0.00000  Uiso   1.00
C8     C     0.09887   0.77840   0.14401   0.00000  Uiso   1.00
C9     C     0.00590   0.79489   0.09403   0.00000  Uiso   1.00
C10    C     0.18497   0.79591   0.30696   0.00000  Uiso   1.00
C11    C     0.20588   0.85800   0.30058   0.00000  Uiso   1.00
C12    C     0.15734   0.90068   0.35303   0.00000  Uiso   1.00
C13    C     0.09823   0.98792   0.42403   0.00000  Uiso   1.00
C14    C     0.10619   0.70698   0.36018   0.00000  Uiso   1.00
C15    C     0.18905   0.63599   0.35938   0.00000  Uiso   1.00
C16    C     0.20027   0.55990   0.40821   0.00000  Uiso   1.00
C17    C     0.28099   0.50320   0.39825   0.00000  Uiso   1.00
C18    C     0.09614   0.73155   0.28580   0.00000  Uiso   1.00
C19    C     0.02922   0.73583   0.27277   0.00000  Uiso   1.00
C20    C     0.03172   0.75958   0.20087   0.00000  Uiso   1.00
C21    C     0.11794   0.77712   0.36373   0.00000  Uiso   1.00
C22    C     0.06935   0.81972   0.41620   0.00000  Uiso   1.00
C23    C     0.09019   0.88186   0.40990   0.00000  Uiso   1.00
H24    H     0.28177   0.75621   0.21148   0.00000  Uiso   1.00
H25    H     0.38865   0.61274   0.24865   0.00000  Uiso   1.00
H26    H     0.21763   0.78865   0.11323   0.00000  Uiso   1.00
H27    H     0.25775   0.87252   0.25664   0.00000  Uiso   1.00
H28    H     0.47759   0.44539   0.31487   0.00000  Uiso   1.00
H29    H     0.11696   0.81632   0.02935   0.00000  Uiso   1.00
H30    H     0.20157   0.99319   0.33175   0.00000  Uiso   1.00
H31    H     0.05400   0.69235   0.40437   0.00000  Uiso   1.00
H32    H     0.14839   0.54538   0.45213   0.00000  Uiso   1.00
H33    H     0.97736   0.72128   0.31671   0.00000  Uiso   1.00
H34    H     0.01749   0.80516   0.46012   0.00000  Uiso   1.00
H35    H     0.28258   0.39071   0.48002   0.00000  Uiso   1.00
H36    H     0.92195   0.76164   0.19449   0.00000  Uiso   1.00
H37    H     0.00656   0.93852   0.49690   0.00000  Uiso   1.00
O38    O     0.44628   0.32251   0.42537   0.00000  Uiso   1.00
O39    O     0.97314   0.80917   0.05077   0.00000  Uiso   1.00
O40    O     0.08415   0.04122   0.44752   0.00000  Uiso   1.00
N41    N     0.41874   0.45269   0.34720   0.00000  Uiso   1.00
N42    N     0.08158   0.79948   0.08024   0.00000  Uiso   1.00
N43    N     0.16067   0.96486   0.36296   0.00000  Uiso   1.00
N44    N     0.31381   0.42327   0.43606   0.00000  Uiso   1.00
N45    N     0.97665   0.77006   0.16911   0.00000  Uiso   1.00
N46    N     0.05574   0.93544   0.45182   0.00000  Uiso   1.00
C47    C     0.77632   0.22633   0.25748   0.00000  Uiso   1.00
C48    C     0.79048   0.25382   0.30668   0.00000  Uiso   1.00
C49    C     0.77766   0.33293   0.29903   0.00000  Uiso   1.00
C50    C     0.79423   0.34558   0.34963   0.00000  Uiso   1.00
C51    C     0.81194   0.39803   0.41746   0.00000  Uiso   1.00
C52    C     0.85888   0.16166   0.22992   0.00000  Uiso   1.00
C53    C     0.90357   0.16328   0.15773   0.00000  Uiso   1.00
C54    C     0.97771   0.09834   0.14372   0.00000  Uiso   1.00
C55    C     0.10159   0.00768   0.09238   0.00000  Uiso   1.00
C56    C     0.71538   0.18250   0.30674   0.00000  Uiso   1.00
C57    C     0.63943   0.20161   0.29913   0.00000  Uiso   1.00
C58    C     0.59277   0.15420   0.34978   0.00000  Uiso   1.00
C59    C     0.49384   0.09589   0.41770   0.00000  Uiso   1.00
C60    C     0.82852   0.10812   0.36095   0.00000  Uiso   1.00
C61    C     0.81883   0.18962   0.36288   0.00000  Uiso   1.00
C62    C     0.83542   0.20215   0.41351   0.00000  Uiso   1.00
C63    C     0.82264   0.28126   0.40594   0.00000  Uiso   1.00
C64    C     0.88724   0.09746   0.28612   0.00000  Uiso   1.00
C65    C     0.96133   0.03250   0.27221   0.00000  Uiso   1.00
C66    C     0.00612   0.03402   0.20002   0.00000  Uiso   1.00
C67    C     0.74374   0.11829   0.36294   0.00000  Uiso   1.00
C68    C     0.69719   0.07083   0.41361   0.00000  Uiso   1.00
C69    C     0.62117   0.08988   0.40608   0.00000  Uiso   1.00
H70    H     0.75424   0.27631   0.21372   0.00000  Uiso   1.00
H71    H     0.75572   0.38260   0.25553   0.00000  Uiso   1.00
H72    H     0.88161   0.21297   0.11426   0.00000  Uiso   1.00
H73    H     0.61751   0.25130   0.25563   0.00000  Uiso   1.00
H74    H     0.76990   0.47211   0.32665   0.00000  Uiso   1.00
H75    H     0.03531   0.11443   0.02877   0.00000  Uiso   1.00
H76    H     0.47841   0.19526   0.32688   0.00000  Uiso   1.00
H77    H     0.85060   0.05813   0.40470   0.00000  Uiso   1.00
H78    H     0.85737   0.15245   0.45699   0.00000  Uiso   1.00
H79    H     0.98325   0.98282   0.31571   0.00000  Uiso   1.00
H80    H     0.71915   0.02115   0.45709   0.00000  Uiso   1.00
H81    H     0.85240   0.28532   0.49016   0.00000  Uiso   1.00
H82    H     0.11781   0.92763   0.19227   0.00000  Uiso   1.00
H83    H     0.56091   0.00846   0.49039   0.00000  Uiso   1.00
O84    O     0.81389   0.44469   0.43934   0.00000  Uiso   1.00
O85    O     0.16209   0.97542   0.04853   0.00000  Uiso   1.00
O86    O     0.43144   0.08147   0.43965   0.00000  Uiso   1.00
N87    N     0.78837   0.41521   0.35796   0.00000  Uiso   1.00
N88    N     0.03652   0.08081   0.07946   0.00000  Uiso   1.00
N89    N     0.51587   0.15636   0.35816   0.00000  Uiso   1.00
N90    N     0.83276   0.31470   0.44595   0.00000  Uiso   1.00
N91    N     0.08092   0.98029   0.16744   0.00000  Uiso   1.00
N92    N     0.56026   0.05585   0.44615   0.00000  Uiso   1.00
C93    C     0.73770   0.78058   0.25223   0.00000  Uiso   1.00
C94    C     0.64799   0.79413   0.30077   0.00000  Uiso   1.00
C95    C     0.58936   0.78028   0.29108   0.00000  Uiso   1.00
C96    C     0.51067   0.79644   0.34140   0.00000  Uiso   1.00
C97    C     0.37429   0.81312   0.40794   0.00000  Uiso   1.00
C98    C     0.74839   0.86149   0.22733   0.00000  Uiso   1.00
C99    C     0.77419   0.90427   0.15590   0.00000  Uiso   1.00
C100   C     0.78004   0.97712   0.14441   0.00000  Uiso   1.00
C101   C     0.79960   0.09835   0.09695   0.00000  Uiso   1.00
C102   C     0.79241   0.72267   0.30163   0.00000  Uiso   1.00
C103   C     0.85524   0.64872   0.29265   0.00000  Uiso   1.00
C104   C     0.89816   0.60470   0.34371   0.00000  Uiso   1.00
C105   C     0.98606   0.51038   0.41159   0.00000  Uiso   1.00
C106   C     0.70222   0.83391   0.35882   0.00000  Uiso   1.00
C107   C     0.62871   0.82310   0.35866   0.00000  Uiso   1.00
C108   C     0.55010   0.83928   0.40902   0.00000  Uiso   1.00
C109   C     0.49137   0.82545   0.39941   0.00000  Uiso   1.00
C110   C     0.72912   0.89046   0.28523   0.00000  Uiso   1.00
C111   C     0.73494   0.96327   0.27384   0.00000  Uiso   1.00
C112   C     0.76073   0.00614   0.20241   0.00000  Uiso   1.00
C113   C     0.77313   0.75163   0.35953   0.00000  Uiso   1.00
C114   C     0.81597   0.70772   0.41059   0.00000  Uiso   1.00
C115   C     0.87885   0.63372   0.40171   0.00000  Uiso   1.00
H116   H     0.75271   0.75803   0.20715   0.00000  Uiso   1.00
H117   H     0.60430   0.75787   0.24626   0.00000  Uiso   1.00
H118   H     0.78911   0.88183   0.11111   0.00000  Uiso   1.00
H119   H     0.87013   0.62633   0.24785   0.00000  Uiso   1.00
H120   H     0.43125   0.77050   0.31515   0.00000  Uiso   1.00
H121   H     0.82097   0.03186   0.03017   0.00000  Uiso   1.00
H122   H     0.99183   0.49307   0.31850   0.00000  Uiso   1.00
H123   H     0.68721   0.85646   0.40390   0.00000  Uiso   1.00
H124   H     0.53520   0.86170   0.45381   0.00000  Uiso   1.00
H125   H     0.72002   0.98566   0.31866   0.00000  Uiso   1.00
H126   H     0.80104   0.73016   0.45539   0.00000  Uiso   1.00
H127   H     0.37517   0.85477   0.48360   0.00000  Uiso   1.00
H128   H     0.76489   0.11613   0.19862   0.00000  Uiso   1.00
H129   H     0.93575   0.57735   0.48695   0.00000  Uiso   1.00
O130   O     0.30438   0.81433   0.42865   0.00000  Uiso   1.00
O131   O     0.81570   0.15722   0.05477   0.00000  Uiso   1.00
O132   O     0.03985   0.45034   0.43305   0.00000  Uiso   1.00
N133   N     0.43891   0.78959   0.34795   0.00000  Uiso   1.00
N134   N     0.80327   0.03396   0.08152   0.00000  Uiso   1.00
N135   N     0.96302   0.53025   0.35107   0.00000  Uiso   1.00
N136   N     0.40874   0.83494   0.43860   0.00000  Uiso   1.00
N137   N     0.77309   0.07931   0.17216   0.00000  Uiso   1.00
N138   N     0.93284   0.57560   0.44171   0.00000  Uiso   1.00
C139   C     0.77041   0.25842   0.74433   0.00000  Uiso   1.00
C140   C     0.74392   0.34522   0.69738   0.00000  Uiso   1.00
C141   C     0.66320   0.40182   0.70741   0.00000  Uiso   1.00
C142   C     0.65186   0.47797   0.65862   0.00000  Uiso   1.00
C143   C     0.60054   0.60991   0.59438   0.00000  Uiso   1.00
C144   C     0.83684   0.24966   0.77096   0.00000  Uiso   1.00
C145   C     0.83424   0.22590   0.84285   0.00000  Uiso   1.00
C146   C     0.90113   0.22160   0.85599   0.00000  Uiso   1.00
C147   C     0.99410   0.20511   0.90597   0.00000  Uiso   1.00
C148   C     0.81503   0.20409   0.69304   0.00000  Uiso   1.00
C149   C     0.79412   0.14200   0.69942   0.00000  Uiso   1.00
C150   C     0.84266   0.09932   0.64697   0.00000  Uiso   1.00
C151   C     0.90177   0.01208   0.57597   0.00000  Uiso   1.00
C152   C     0.89381   0.29302   0.63982   0.00000  Uiso   1.00
C153   C     0.81095   0.36401   0.64062   0.00000  Uiso   1.00
C154   C     0.79973   0.44010   0.59179   0.00000  Uiso   1.00
C155   C     0.71901   0.49680   0.60175   0.00000  Uiso   1.00
C156   C     0.90386   0.26845   0.71420   0.00000  Uiso   1.00
C157   C     0.97078   0.26417   0.72723   0.00000  Uiso   1.00
C158   C     0.96828   0.24042   0.79913   0.00000  Uiso   1.00
C159   C     0.88206   0.22288   0.63627   0.00000  Uiso   1.00
C160   C     0.93065   0.18028   0.58380   0.00000  Uiso   1.00
C161   C     0.90981   0.11814   0.59010   0.00000  Uiso   1.00
H162   H     0.71823   0.24379   0.78852   0.00000  Uiso   1.00
H163   H     0.61134   0.38726   0.75135   0.00000  Uiso   1.00
H164   H     0.78237   0.21135   0.88677   0.00000  Uiso   1.00
H165   H     0.74225   0.12748   0.74336   0.00000  Uiso   1.00
H166   H     0.52241   0.55461   0.68513   0.00000  Uiso   1.00
H167   H     0.88304   0.18368   0.97065   0.00000  Uiso   1.00
H168   H     0.79843   0.00681   0.66825   0.00000  Uiso   1.00
H169   H     0.94600   0.30765   0.59563   0.00000  Uiso   1.00
H170   H     0.85161   0.45462   0.54787   0.00000  Uiso   1.00
H171   H     0.02264   0.27872   0.68329   0.00000  Uiso   1.00
H172   H     0.98251   0.19484   0.53988   0.00000  Uiso   1.00
H173   H     0.71742   0.60929   0.51998   0.00000  Uiso   1.00
H174   H     0.07805   0.23836   0.80551   0.00000  Uiso   1.00
H175   H     0.99344   0.06149   0.50310   0.00000  Uiso   1.00
O176   O     0.55372   0.67749   0.57463   0.00000  Uiso   1.00
O177   O     0.02686   0.19083   0.94923   0.00000  Uiso   1.00
O178   O     0.91585   0.95878   0.55248   0.00000  Uiso   1.00
N179   N     0.58126   0.54731   0.65280   0.00000  Uiso   1.00
N180   N     0.91842   0.20052   0.91976   0.00000  Uiso   1.00
N181   N     0.83933   0.03514   0.63704   0.00000  Uiso   1.00
N182   N     0.68619   0.57673   0.56394   0.00000  Uiso   1.00
N183   N     0.02335   0.22994   0.83089   0.00000  Uiso   1.00
N184   N     0.94426   0.06456   0.54818   0.00000  Uiso   1.00
C185   C     0.22368   0.77367   0.74252   0.00000  Uiso   1.00
C186   C     0.20952   0.74618   0.69332   0.00000  Uiso   1.00
C187   C     0.22234   0.66707   0.70097   0.00000  Uiso   1.00
C188   C     0.20577   0.65442   0.65037   0.00000  Uiso   1.00
C189   C     0.18806   0.60197   0.58254   0.00000  Uiso   1.00
C190   C     0.14112   0.83834   0.77008   0.00000  Uiso   1.00
C191   C     0.09643   0.83672   0.84227   0.00000  Uiso   1.00
C192   C     0.02229   0.90166   0.85628   0.00000  Uiso   1.00
C193   C     0.89841   0.99232   0.90762   0.00000  Uiso   1.00
C194   C     0.28462   0.81750   0.69326   0.00000  Uiso   1.00
C195   C     0.36057   0.79839   0.70087   0.00000  Uiso   1.00
C196   C     0.40723   0.84580   0.65022   0.00000  Uiso   1.00
C197   C     0.50616   0.90411   0.58230   0.00000  Uiso   1.00
C198   C     0.17148   0.89188   0.63905   0.00000  Uiso   1.00
C199   C     0.18117   0.81038   0.63712   0.00000  Uiso   1.00
C200   C     0.16458   0.79785   0.58649   0.00000  Uiso   1.00
C201   C     0.17736   0.71874   0.59406   0.00000  Uiso   1.00
C202   C     0.11276   0.90254   0.71388   0.00000  Uiso   1.00
C203   C     0.03867   0.96750   0.72779   0.00000  Uiso   1.00
C204   C     0.99388   0.96598   0.79998   0.00000  Uiso   1.00
C205   C     0.25626   0.88171   0.63706   0.00000  Uiso   1.00
C206   C     0.30281   0.92917   0.58639   0.00000  Uiso   1.00
C207   C     0.37882   0.91012   0.59392   0.00000  Uiso   1.00
H208   H     0.24575   0.72369   0.78628   0.00000  Uiso   1.00
H209   H     0.24428   0.61740   0.74447   0.00000  Uiso   1.00
H210   H     0.11839   0.78703   0.88574   0.00000  Uiso   1.00
H211   H     0.38249   0.74870   0.74437   0.00000  Uiso   1.00
H212   H     0.23010   0.52789   0.67335   0.00000  Uiso   1.00
H213   H     0.96469   0.88557   0.97123   0.00000  Uiso   1.00
H214   H     0.52159   0.80474   0.67312   0.00000  Uiso   1.00
H215   H     0.14940   0.94187   0.59530   0.00000  Uiso   1.00
H216   H     0.14263   0.84755   0.54301   0.00000  Uiso   1.00
H217   H     0.01675   0.01718   0.68429   0.00000  Uiso   1.00
H218   H     0.28085   0.97885   0.54291   0.00000  Uiso   1.00
H219   H     0.14760   0.71468   0.50984   0.00000  Uiso   1.00
H220   H     0.88219   0.07237   0.80773   0.00000  Uiso   1.00
H221   H     0.43909   0.99154   0.50961   0.00000  Uiso   1.00
O222   O     0.18611   0.55531   0.56066   0.00000  Uiso   1.00
O223   O     0.83791   0.02458   0.95147   0.00000  Uiso   1.00
O224   O     0.56856   0.91853   0.56035   0.00000  Uiso   1.00
N225   N     0.21163   0.58479   0.64204   0.00000  Uiso   1.00
N226   N     0.96348   0.91919   0.92054   0.00000  Uiso   1.00
N227   N     0.48413   0.84364   0.64184   0.00000  Uiso   1.00
N228   N     0.16724   0.68530   0.55405   0.00000  Uiso   1.00
N229   N     0.91908   0.01971   0.83256   0.00000  Uiso   1.00
N230   N     0.43974   0.94415   0.55385   0.00000  Uiso   1.00
C231   C     0.26230   0.21942   0.74777   0.00000  Uiso   1.00
C232   C     0.35201   0.20587   0.69923   0.00000  Uiso   1.00
C233   C     0.41064   0.21972   0.70892   0.00000  Uiso   1.00
C234   C     0.48932   0.20356   0.65860   0.00000  Uiso   1.00
C235   C     0.62571   0.18688   0.59206   0.00000  Uiso   1.00
C236   C     0.25161   0.13851   0.77267   0.00000  Uiso   1.00
C237   C     0.22580   0.09573   0.84410   0.00000  Uiso   1.00
C238   C     0.21996   0.02288   0.85559   0.00000  Uiso   1.00
C239   C     0.20040   0.90165   0.90305   0.00000  Uiso   1.00
C240   C     0.20759   0.27733   0.69838   0.00000  Uiso   1.00
C241   C     0.14476   0.35128   0.70735   0.00000  Uiso   1.00
C242   C     0.10184   0.39530   0.65629   0.00000  Uiso   1.00
C243   C     0.01394   0.48962   0.58841   0.00000  Uiso   1.00
C244   C     0.29778   0.16609   0.64118   0.00000  Uiso   1.00
C245   C     0.37128   0.17690   0.64134   0.00000  Uiso   1.00
C246   C     0.44990   0.16072   0.59098   0.00000  Uiso   1.00
C247   C     0.50863   0.17455   0.60059   0.00000  Uiso   1.00
C248   C     0.27088   0.10954   0.71477   0.00000  Uiso   1.00
C249   C     0.26506   0.03673   0.72616   0.00000  Uiso   1.00
C250   C     0.23927   0.99386   0.79759   0.00000  Uiso   1.00
C251   C     0.22686   0.24837   0.64048   0.00000  Uiso   1.00
C252   C     0.18403   0.29228   0.58941   0.00000  Uiso   1.00
C253   C     0.12115   0.36628   0.59829   0.00000  Uiso   1.00
H254   H     0.24729   0.24197   0.79285   0.00000  Uiso   1.00
H255   H     0.39570   0.24213   0.75374   0.00000  Uiso   1.00
H256   H     0.21089   0.11817   0.88889   0.00000  Uiso   1.00
H257   H     0.12986   0.37367   0.75216   0.00000  Uiso   1.00
H258   H     0.56875   0.22951   0.68485   0.00000  Uiso   1.00
H259   H     0.17903   0.96814   0.96983   0.00000  Uiso   1.00
H260   H     0.00817   0.50693   0.68150   0.00000  Uiso   1.00
H261   H     0.31279   0.14354   0.59610   0.00000  Uiso   1.00
H262   H     0.46480   0.13830   0.54619   0.00000  Uiso   1.00
H263   H     0.27998   0.01434   0.68134   0.00000  Uiso   1.00
H264   H     0.19896   0.26984   0.54461   0.00000  Uiso   1.00
H265   H     0.62483   0.14523   0.51640   0.00000  Uiso   1.00
H266   H     0.23511   0.88387   0.80138   0.00000  Uiso   1.00
H267   H     0.06425   0.42265   0.51305   0.00000  Uiso   1.00
O268   O     0.69562   0.18567   0.57135   0.00000  Uiso   1.00
O269   O     0.18430   0.84278   0.94523   0.00000  Uiso   1.00
O270   O     0.96015   0.54966   0.56695   0.00000  Uiso   1.00
N271   N     0.56109   0.21041   0.65205   0.00000  Uiso   1.00
N272   N     0.19673   0.96604   0.91848   0.00000  Uiso   1.00
N273   N     0.03698   0.46975   0.64894   0.00000  Uiso   1.00
N274   N     0.59126   0.16506   0.56140   0.00000  Uiso   1.00
N275   N     0.22691   0.92069   0.82784   0.00000  Uiso   1.00
N276   N     0.06716   0.42440   0.55829   0.00000  Uiso   1.00
