data_job_06163
_audit_creation_date              2018-12-19
_audit_creation_method            'Materials Studio'
_symmetry_space_group_name_H-M    'P1'
_symmetry_Int_Tables_number       1
_symmetry_cell_setting            triclinic
loop_
_symmetry_equiv_pos_as_xyz
  x,y,z
_cell_length_a                    8.8610
_cell_length_b                    20.4543
_cell_length_c                    21.2800
_cell_angle_alpha                 117.2650
_cell_angle_beta                  81.2374
_cell_angle_gamma                 87.9519
loop_
_atom_site_label
_atom_site_type_symbol
_atom_site_fract_x
_atom_site_fract_y
_atom_site_fract_z
_atom_site_U_iso_or_equiv
_atom_site_adp_type
_atom_site_occupancy
C1     C     0.84089   0.43070   0.24498   0.00000  Uiso   1.00
C2     C     0.90873   0.36083   0.17538   0.00000  Uiso   1.00
C3     C     0.06353   0.33355   0.15082   0.00000  Uiso   1.00
C4     C     0.10232   0.26884   0.08585   0.00000  Uiso   1.00
C5     C     0.22472   0.16585   0.98369   0.00000  Uiso   1.00
C6     C     0.75058   0.47929   0.22310   0.00000  Uiso   1.00
C7     C     0.77239   0.55161   0.23868   0.00000  Uiso   1.00
C8     C     0.67803   0.58661   0.21389   0.00000  Uiso   1.00
C9     C     0.55483   0.66756   0.18586   0.00000  Uiso   1.00
C10    C     0.72192   0.40648   0.28731   0.00000  Uiso   1.00
C11    C     0.71962   0.41759   0.35688   0.00000  Uiso   1.00
C12    C     0.60111   0.39131   0.38616   0.00000  Uiso   1.00
C13    C     0.43342   0.35920   0.45782   0.00000  Uiso   1.00
C14    C     0.63450   0.36429   0.17327   0.00000  Uiso   1.00
C15    C     0.79662   0.32476   0.13643   0.00000  Uiso   1.00
C16    C     0.83519   0.26007   0.07148   0.00000  Uiso   1.00
C17    C     0.99002   0.23269   0.04684   0.00000  Uiso   1.00
C18    C     0.63848   0.44322   0.18415   0.00000  Uiso   1.00
C19    C     0.54406   0.47813   0.15934   0.00000  Uiso   1.00
C20    C     0.56573   0.55048   0.17487   0.00000  Uiso   1.00
C21    C     0.60982   0.37040   0.24836   0.00000  Uiso   1.00
C22    C     0.49129   0.34410   0.27754   0.00000  Uiso   1.00
C23    C     0.48881   0.35517   0.34714   0.00000  Uiso   1.00
H24    H     0.92815   0.45879   0.27530   0.00000  Uiso   1.00
H25    H     0.15025   0.36149   0.18098   0.00000  Uiso   1.00
H26    H     0.85914   0.57951   0.26882   0.00000  Uiso   1.00
H27    H     0.80639   0.44551   0.38700   0.00000  Uiso   1.00
H28    H     0.34704   0.23771   0.05921   0.00000  Uiso   1.00
H29    H     0.73320   0.69744   0.24446   0.00000  Uiso   1.00
H30    H     0.62195   0.41488   0.49367   0.00000  Uiso   1.00
H31    H     0.54722   0.33620   0.14294   0.00000  Uiso   1.00
H32    H     0.74841   0.23216   0.04135   0.00000  Uiso   1.00
H33    H     0.45731   0.45019   0.12920   0.00000  Uiso   1.00
H34    H     0.40456   0.31619   0.24738   0.00000  Uiso   1.00
H35    H     0.02090   0.13275   0.94589   0.00000  Uiso   1.00
H36    H     0.40706   0.59248   0.13114   0.00000  Uiso   1.00
H37    H     0.29581   0.30991   0.38035   0.00000  Uiso   1.00
O38    O     0.32320   0.11902   0.93810   0.00000  Uiso   1.00
O39    O     0.51785   0.72217   0.18115   0.00000  Uiso   1.00
O40    O     0.37190   0.35145   0.50811   0.00000  Uiso   1.00
N41    N     0.24267   0.22728   0.04649   0.00000  Uiso   1.00
N42    N     0.66879   0.65709   0.21968   0.00000  Uiso   1.00
N43    N     0.56475   0.39294   0.45267   0.00000  Uiso   1.00
N44    N     0.06718   0.17080   0.98551   0.00000  Uiso   1.00
N45    N     0.49329   0.60061   0.15870   0.00000  Uiso   1.00
N46    N     0.38926   0.33646   0.39170   0.00000  Uiso   1.00
C47    C     0.08240   0.75922   0.18412   0.00000  Uiso   1.00
C48    C     0.08579   0.83355   0.18378   0.00000  Uiso   1.00
C49    C     0.21610   0.86813   0.17966   0.00000  Uiso   1.00
C50    C     0.19505   0.93594   0.18011   0.00000  Uiso   1.00
C51    C     0.22253   0.04650   0.17895   0.00000  Uiso   1.00
C52    C     0.97093   0.77390   0.25253   0.00000  Uiso   1.00
C53    C     0.00467   0.75831   0.30620   0.00000  Uiso   1.00
C54    C     0.88692   0.77590   0.36451   0.00000  Uiso   1.00
C55    C     0.73606   0.79379   0.47006   0.00000  Uiso   1.00
C56    C     0.00607   0.71061   0.12163   0.00000  Uiso   1.00
C57    C     0.06933   0.64181   0.06524   0.00000  Uiso   1.00
C58    C     0.98115   0.60611   0.01336   0.00000  Uiso   1.00
C59    C     0.88484   0.52576   0.91566   0.00000  Uiso   1.00
C60    C     0.81329   0.81816   0.19225   0.00000  Uiso   1.00
C61    C     0.93961   0.86556   0.18820   0.00000  Uiso   1.00
C62    C     0.91836   0.93334   0.18865   0.00000  Uiso   1.00
C63    C     0.04862   0.96801   0.18453   0.00000  Uiso   1.00
C64    C     0.82477   0.80591   0.25695   0.00000  Uiso   1.00
C65    C     0.70694   0.82352   0.31520   0.00000  Uiso   1.00
C66    C     0.74049   0.80797   0.36894   0.00000  Uiso   1.00
C67    C     0.85990   0.74263   0.12605   0.00000  Uiso   1.00
C68    C     0.77160   0.70702   0.07424   0.00000  Uiso   1.00
C69    C     0.83472   0.63818   0.01779   0.00000  Uiso   1.00
H70    H     0.19620   0.73430   0.18068   0.00000  Uiso   1.00
H71    H     0.32920   0.84334   0.17624   0.00000  Uiso   1.00
H72    H     0.11779   0.73353   0.30276   0.00000  Uiso   1.00
H73    H     0.18245   0.61706   0.06184   0.00000  Uiso   1.00
H74    H     0.41218   0.97836   0.17330   0.00000  Uiso   1.00
H75    H     0.96642   0.74680   0.44005   0.00000  Uiso   1.00
H76    H     0.10275   0.50119   0.93203   0.00000  Uiso   1.00
H77    H     0.69949   0.84308   0.19570   0.00000  Uiso   1.00
H78    H     0.80523   0.95810   0.19208   0.00000  Uiso   1.00
H79    H     0.59383   0.84829   0.31860   0.00000  Uiso   1.00
H80    H     0.65849   0.73181   0.07768   0.00000  Uiso   1.00
H81    H     0.98692   0.07151   0.18615   0.00000  Uiso   1.00
H82    H     0.54115   0.83994   0.45291   0.00000  Uiso   1.00
H83    H     0.67748   0.59433   0.94489   0.00000  Uiso   1.00
O84    O     0.27807   0.09864   0.17710   0.00000  Uiso   1.00
O85    O     0.69323   0.79483   0.52706   0.00000  Uiso   1.00
O86    O     0.87210   0.47259   0.86055   0.00000  Uiso   1.00
N87    N     0.29759   0.98449   0.17680   0.00000  Uiso   1.00
N88    N     0.88083   0.76801   0.42621   0.00000  Uiso   1.00
N89    N     0.00827   0.53837   0.95126   0.00000  Uiso   1.00
N90    N     0.06875   0.03461   0.18372   0.00000  Uiso   1.00
N91    N     0.65200   0.81813   0.43313   0.00000  Uiso   1.00
N92    N     0.77944   0.58849   0.95818   0.00000  Uiso   1.00
C93    C     0.26640   0.82218   0.57524   0.00000  Uiso   1.00
C94    C     0.26682   0.82102   0.64636   0.00000  Uiso   1.00
C95    C     0.39017   0.83255   0.68180   0.00000  Uiso   1.00
C96    C     0.36748   0.82922   0.74623   0.00000  Uiso   1.00
C97    C     0.38960   0.82958   0.85240   0.00000  Uiso   1.00
C98    C     0.22080   0.74751   0.52462   0.00000  Uiso   1.00
C99    C     0.30547   0.69724   0.45769   0.00000  Uiso   1.00
C100   C     0.24402   0.63204   0.41964   0.00000  Uiso   1.00
C101   C     0.19465   0.51829   0.33678   0.00000  Uiso   1.00
C102   C     0.13363   0.87989   0.58998   0.00000  Uiso   1.00
C103   C     0.14498   0.94091   0.57799   0.00000  Uiso   1.00
C104   C     0.01012   0.98714   0.59495   0.00000  Uiso   1.00
C105   C     0.82541   0.07893   0.61356   0.00000  Uiso   1.00
C106   C     0.00672   0.79577   0.62667   0.00000  Uiso   1.00
C107   C     0.12576   0.80668   0.67429   0.00000  Uiso   1.00
C108   C     0.10287   0.80334   0.73869   0.00000  Uiso   1.00
C109   C     0.22617   0.81486   0.77422   0.00000  Uiso   1.00
C110   C     0.07976   0.73317   0.55255   0.00000  Uiso   1.00
C111   C     0.01816   0.66803   0.51459   0.00000  Uiso   1.00
C112   C     0.10271   0.61767   0.44762   0.00000  Uiso   1.00
C113   C     0.99257   0.86555   0.61791   0.00000  Uiso   1.00
C114   C     0.85767   0.91169   0.63489   0.00000  Uiso   1.00
C115   C     0.86882   0.97277   0.62293   0.00000  Uiso   1.00
H116   H     0.37621   0.83334   0.55349   0.00000  Uiso   1.00
H117   H     0.49932   0.84364   0.66016   0.00000  Uiso   1.00
H118   H     0.41461   0.70836   0.43609   0.00000  Uiso   1.00
H119   H     0.25415   0.95199   0.55637   0.00000  Uiso   1.00
H120   H     0.57362   0.84871   0.79073   0.00000  Uiso   1.00
H121   H     0.39498   0.56347   0.31825   0.00000  Uiso   1.00
H122   H     0.05662   0.07721   0.57188   0.00000  Uiso   1.00
H123   H     0.89690   0.78460   0.64841   0.00000  Uiso   1.00
H124   H     0.99370   0.79223   0.76029   0.00000  Uiso   1.00
H125   H     0.90900   0.65695   0.53622   0.00000  Uiso   1.00
H126   H     0.74854   0.90058   0.65650   0.00000  Uiso   1.00
H127   H     0.16325   0.80699   0.87199   0.00000  Uiso   1.00
H128   H     0.98461   0.52175   0.39951   0.00000  Uiso   1.00
H129   H     0.64625   0.03548   0.65315   0.00000  Uiso   1.00
O130   O     0.44078   0.83373   0.90323   0.00000  Uiso   1.00
O131   O     0.20641   0.45951   0.28336   0.00000  Uiso   1.00
O132   O     0.76249   0.13352   0.61612   0.00000  Uiso   1.00
N133   N     0.46374   0.83786   0.79451   0.00000  Uiso   1.00
N134   N     0.29674   0.57117   0.35277   0.00000  Uiso   1.00
N135   N     0.98040   0.05146   0.58988   0.00000  Uiso   1.00
N136   N     0.24293   0.81541   0.83824   0.00000  Uiso   1.00
N137   N     0.07593   0.54872   0.39650   0.00000  Uiso   1.00
N138   N     0.75958   0.02901   0.63361   0.00000  Uiso   1.00
C139   C     0.15911   0.56930   0.75502   0.00000  Uiso   1.00
C140   C     0.09127   0.63917   0.82462   0.00000  Uiso   1.00
C141   C     0.93647   0.66645   0.84918   0.00000  Uiso   1.00
C142   C     0.89768   0.73116   0.91415   0.00000  Uiso   1.00
C143   C     0.77528   0.83415   0.01631   0.00000  Uiso   1.00
C144   C     0.24942   0.52071   0.77690   0.00000  Uiso   1.00
C145   C     0.22761   0.44839   0.76132   0.00000  Uiso   1.00
C146   C     0.32197   0.41339   0.78611   0.00000  Uiso   1.00
C147   C     0.44517   0.33244   0.81414   0.00000  Uiso   1.00
C148   C     0.27808   0.59352   0.71269   0.00000  Uiso   1.00
C149   C     0.28038   0.58241   0.64312   0.00000  Uiso   1.00
C150   C     0.39889   0.60869   0.61384   0.00000  Uiso   1.00
C151   C     0.56658   0.64080   0.54218   0.00000  Uiso   1.00
C152   C     0.36550   0.63571   0.82673   0.00000  Uiso   1.00
C153   C     0.20338   0.67524   0.86357   0.00000  Uiso   1.00
C154   C     0.16481   0.73993   0.92852   0.00000  Uiso   1.00
C155   C     0.00998   0.76731   0.95316   0.00000  Uiso   1.00
C156   C     0.36152   0.55678   0.81585   0.00000  Uiso   1.00
C157   C     0.45595   0.52187   0.84066   0.00000  Uiso   1.00
C158   C     0.43427   0.44952   0.82513   0.00000  Uiso   1.00
C159   C     0.39018   0.62960   0.75164   0.00000  Uiso   1.00
C160   C     0.50871   0.65590   0.72246   0.00000  Uiso   1.00
C161   C     0.51119   0.64483   0.65286   0.00000  Uiso   1.00
H162   H     0.07185   0.54121   0.72470   0.00000  Uiso   1.00
H163   H     0.84975   0.63851   0.81902   0.00000  Uiso   1.00
H164   H     0.14086   0.42049   0.73118   0.00000  Uiso   1.00
H165   H     0.19361   0.55449   0.61300   0.00000  Uiso   1.00
H166   H     0.65295   0.76229   0.94079   0.00000  Uiso   1.00
H167   H     0.26680   0.30256   0.75554   0.00000  Uiso   1.00
H168   H     0.37805   0.58512   0.50633   0.00000  Uiso   1.00
H169   H     0.45278   0.66380   0.85706   0.00000  Uiso   1.00
H170   H     0.25159   0.76784   0.95865   0.00000  Uiso   1.00
H171   H     0.54269   0.54981   0.87080   0.00000  Uiso   1.00
H172   H     0.59544   0.68381   0.75262   0.00000  Uiso   1.00
H173   H     0.97910   0.86725   0.05411   0.00000  Uiso   1.00
H174   H     0.59294   0.40752   0.86886   0.00000  Uiso   1.00
H175   H     0.70419   0.69009   0.61965   0.00000  Uiso   1.00
O176   O     0.67680   0.88098   0.06190   0.00000  Uiso   1.00
O177   O     0.48215   0.27783   0.81885   0.00000  Uiso   1.00
O178   O     0.62810   0.64855   0.49189   0.00000  Uiso   1.00
N179   N     0.75733   0.77272   0.95351   0.00000  Uiso   1.00
N180   N     0.33121   0.34290   0.78032   0.00000  Uiso   1.00
N181   N     0.43525   0.60706   0.54732   0.00000  Uiso   1.00
N182   N     0.93282   0.82920   0.01449   0.00000  Uiso   1.00
N183   N     0.50671   0.39939   0.84130   0.00000  Uiso   1.00
N184   N     0.61074   0.66354   0.60830   0.00000  Uiso   1.00
C185   C     0.91760   0.24078   0.81588   0.00000  Uiso   1.00
C186   C     0.91421   0.16645   0.81622   0.00000  Uiso   1.00
C187   C     0.78390   0.13187   0.82034   0.00000  Uiso   1.00
C188   C     0.80495   0.06406   0.81989   0.00000  Uiso   1.00
C189   C     0.77747   0.95350   0.82105   0.00000  Uiso   1.00
C190   C     0.02907   0.22610   0.74747   0.00000  Uiso   1.00
C191   C     0.99533   0.24169   0.69380   0.00000  Uiso   1.00
C192   C     0.11308   0.22410   0.63548   0.00000  Uiso   1.00
C193   C     0.26394   0.20621   0.52994   0.00000  Uiso   1.00
C194   C     0.99393   0.28939   0.87837   0.00000  Uiso   1.00
C195   C     0.93067   0.35819   0.93475   0.00000  Uiso   1.00
C196   C     0.01885   0.39389   0.98664   0.00000  Uiso   1.00
C197   C     0.11516   0.47424   0.08434   0.00000  Uiso   1.00
C198   C     0.18671   0.18184   0.80775   0.00000  Uiso   1.00
C199   C     0.06039   0.13444   0.81180   0.00000  Uiso   1.00
C200   C     0.08164   0.06666   0.81134   0.00000  Uiso   1.00
C201   C     0.95138   0.03199   0.81547   0.00000  Uiso   1.00
C202   C     0.17523   0.19409   0.74305   0.00000  Uiso   1.00
C203   C     0.29306   0.17648   0.68480   0.00000  Uiso   1.00
C204   C     0.25951   0.19203   0.63106   0.00000  Uiso   1.00
C205   C     0.14010   0.25737   0.87395   0.00000  Uiso   1.00
C206   C     0.22840   0.29298   0.92576   0.00000  Uiso   1.00
C207   C     0.16528   0.36182   0.98221   0.00000  Uiso   1.00
H208   H     0.80380   0.26570   0.81932   0.00000  Uiso   1.00
H209   H     0.67080   0.15666   0.82376   0.00000  Uiso   1.00
H210   H     0.88221   0.26647   0.69724   0.00000  Uiso   1.00
H211   H     0.81755   0.38294   0.93816   0.00000  Uiso   1.00
H212   H     0.58782   0.02164   0.82670   0.00000  Uiso   1.00
H213   H     0.03358   0.25320   0.55995   0.00000  Uiso   1.00
H214   H     0.89725   0.49881   0.06797   0.00000  Uiso   1.00
H215   H     0.30051   0.15692   0.80430   0.00000  Uiso   1.00
H216   H     0.19477   0.04190   0.80792   0.00000  Uiso   1.00
H217   H     0.40617   0.15171   0.68140   0.00000  Uiso   1.00
H218   H     0.34151   0.26819   0.92232   0.00000  Uiso   1.00
H219   H     0.01308   0.92849   0.81385   0.00000  Uiso   1.00
H220   H     0.45885   0.16006   0.54709   0.00000  Uiso   1.00
H221   H     0.32252   0.40567   0.05511   0.00000  Uiso   1.00
O222   O     0.72193   0.90136   0.82290   0.00000  Uiso   1.00
O223   O     0.30677   0.20517   0.47294   0.00000  Uiso   1.00
O224   O     0.12790   0.52741   0.13945   0.00000  Uiso   1.00
N225   N     0.70241   0.01550   0.82320   0.00000  Uiso   1.00
N226   N     0.11917   0.23199   0.57379   0.00000  Uiso   1.00
N227   N     0.99173   0.46163   0.04873   0.00000  Uiso   1.00
N228   N     0.93125   0.96539   0.81628   0.00000  Uiso   1.00
N229   N     0.34800   0.18187   0.56687   0.00000  Uiso   1.00
N230   N     0.22056   0.41151   0.04182   0.00000  Uiso   1.00
C231   C     0.73360   0.17782   0.42476   0.00000  Uiso   1.00
C232   C     0.73318   0.17898   0.35364   0.00000  Uiso   1.00
C233   C     0.60983   0.16745   0.31820   0.00000  Uiso   1.00
C234   C     0.63252   0.17078   0.25377   0.00000  Uiso   1.00
C235   C     0.61040   0.17042   0.14760   0.00000  Uiso   1.00
C236   C     0.77920   0.25249   0.47538   0.00000  Uiso   1.00
C237   C     0.69453   0.30276   0.54231   0.00000  Uiso   1.00
C238   C     0.75598   0.36796   0.58036   0.00000  Uiso   1.00
C239   C     0.80535   0.48171   0.66322   0.00000  Uiso   1.00
C240   C     0.86637   0.12011   0.41002   0.00000  Uiso   1.00
C241   C     0.85502   0.05909   0.42201   0.00000  Uiso   1.00
C242   C     0.98988   0.01286   0.40505   0.00000  Uiso   1.00
C243   C     0.17459   0.92107   0.38644   0.00000  Uiso   1.00
C244   C     0.99328   0.20423   0.37333   0.00000  Uiso   1.00
C245   C     0.87424   0.19332   0.32571   0.00000  Uiso   1.00
C246   C     0.89713   0.19666   0.26131   0.00000  Uiso   1.00
C247   C     0.77383   0.18514   0.22578   0.00000  Uiso   1.00
C248   C     0.92024   0.26683   0.44745   0.00000  Uiso   1.00
C249   C     0.98184   0.33197   0.48541   0.00000  Uiso   1.00
C250   C     0.89729   0.38233   0.55238   0.00000  Uiso   1.00
C251   C     0.00743   0.13445   0.38209   0.00000  Uiso   1.00
C252   C     0.14233   0.08831   0.36511   0.00000  Uiso   1.00
C253   C     0.13118   0.02723   0.37707   0.00000  Uiso   1.00
H254   H     0.62379   0.16666   0.44651   0.00000  Uiso   1.00
H255   H     0.50068   0.15636   0.33984   0.00000  Uiso   1.00
H256   H     0.58539   0.29164   0.56391   0.00000  Uiso   1.00
H257   H     0.74585   0.04801   0.44363   0.00000  Uiso   1.00
H258   H     0.42638   0.15129   0.20927   0.00000  Uiso   1.00
H259   H     0.60502   0.43652   0.68175   0.00000  Uiso   1.00
H260   H     0.94338   0.92279   0.42811   0.00000  Uiso   1.00
H261   H     0.10310   0.21540   0.35159   0.00000  Uiso   1.00
H262   H     0.00630   0.20777   0.23971   0.00000  Uiso   1.00
H263   H     0.09100   0.34305   0.46378   0.00000  Uiso   1.00
H264   H     0.25146   0.09942   0.34350   0.00000  Uiso   1.00
H265   H     0.83675   0.19301   0.12801   0.00000  Uiso   1.00
H266   H     0.01539   0.47825   0.60049   0.00000  Uiso   1.00
H267   H     0.35375   0.96452   0.34685   0.00000  Uiso   1.00
O268   O     0.55922   0.16627   0.09677   0.00000  Uiso   1.00
O269   O     0.79359   0.54049   0.71664   0.00000  Uiso   1.00
O270   O     0.23751   0.86648   0.38388   0.00000  Uiso   1.00
N271   N     0.53626   0.16214   0.20549   0.00000  Uiso   1.00
N272   N     0.70326   0.42883   0.64723   0.00000  Uiso   1.00
N273   N     0.01961   0.94853   0.41012   0.00000  Uiso   1.00
N274   N     0.75707   0.18459   0.16176   0.00000  Uiso   1.00
N275   N     0.92407   0.45128   0.60350   0.00000  Uiso   1.00
N276   N     0.24042   0.97099   0.36639   0.00000  Uiso   1.00
