data_job_06779
_audit_creation_date              2018-12-19
_audit_creation_method            'Materials Studio'
_symmetry_space_group_name_H-M    'P1'
_symmetry_Int_Tables_number       1
_symmetry_cell_setting            triclinic
loop_
_symmetry_equiv_pos_as_xyz
  x,y,z
_cell_length_a                    18.9808
_cell_length_b                    20.9820
_cell_length_c                    23.3074
_cell_angle_alpha                 73.4781
_cell_angle_beta                  69.7748
_cell_angle_gamma                 63.1093
loop_
_atom_site_label
_atom_site_type_symbol
_atom_site_fract_x
_atom_site_fract_y
_atom_site_fract_z
_atom_site_U_iso_or_equiv
_atom_site_adp_type
_atom_site_occupancy
C1     C     0.50482   0.18270   0.17083   0.00000  Uiso   1.00
C2     C     0.58148   0.16738   0.11734   0.00000  Uiso   1.00
C3     C     0.63324   0.10015   0.09949   0.00000  Uiso   1.00
C4     C     0.70017   0.09743   0.04938   0.00000  Uiso   1.00
C5     C     0.81700   0.06415   0.97107   0.00000  Uiso   1.00
C6     C     0.51623   0.21936   0.21289   0.00000  Uiso   1.00
C7     C     0.51310   0.19583   0.27538   0.00000  Uiso   1.00
C8     C     0.52509   0.23689   0.30570   0.00000  Uiso   1.00
C9     C     0.54056   0.28434   0.37574   0.00000  Uiso   1.00
C10    C     0.43515   0.24000   0.14304   0.00000  Uiso   1.00
C11    C     0.36384   0.23384   0.14680   0.00000  Uiso   1.00
C12    C     0.30755   0.29228   0.11833   0.00000  Uiso   1.00
C13    C     0.19713   0.37177   0.07992   0.00000  Uiso   1.00
C14    C     0.53165   0.29745   0.11358   0.00000  Uiso   1.00
C15    C     0.59605   0.22971   0.08625   0.00000  Uiso   1.00
C16    C     0.66291   0.22709   0.03615   0.00000  Uiso   1.00
C17    C     0.71476   0.15987   0.01822   0.00000  Uiso   1.00
C18    C     0.53080   0.28168   0.18180   0.00000  Uiso   1.00
C19    C     0.54278   0.32278   0.21203   0.00000  Uiso   1.00
C20    C     0.53968   0.29932   0.27455   0.00000  Uiso   1.00
C21    C     0.44971   0.30232   0.11194   0.00000  Uiso   1.00
C22    C     0.39352   0.36078   0.08346   0.00000  Uiso   1.00
C23    C     0.32214   0.35471   0.08718   0.00000  Uiso   1.00
H24    H     0.49348   0.13419   0.19504   0.00000  Uiso   1.00
H25    H     0.62195   0.05193   0.12357   0.00000  Uiso   1.00
H26    H     0.50182   0.14761   0.29943   0.00000  Uiso   1.00
H27    H     0.35259   0.18560   0.17087   0.00000  Uiso   1.00
H28    H     0.77082   0.98821   0.03063   0.00000  Uiso   1.00
H29    H     0.51750   0.18997   0.40144   0.00000  Uiso   1.00
H30    H     0.20280   0.27009   0.13036   0.00000  Uiso   1.00
H31    H     0.54299   0.34597   0.08937   0.00000  Uiso   1.00
H32    H     0.67417   0.27533   0.01209   0.00000  Uiso   1.00
H33    H     0.55405   0.37101   0.18796   0.00000  Uiso   1.00
H34    H     0.40481   0.40901   0.05940   0.00000  Uiso   1.00
H35    H     0.81321   0.16953   0.94015   0.00000  Uiso   1.00
H36    H     0.55989   0.37129   0.31097   0.00000  Uiso   1.00
H37    H     0.24519   0.45141   0.03988   0.00000  Uiso   1.00
O38    O     0.87743   0.02858   0.93647   0.00000  Uiso   1.00
O39    O     0.54507   0.29328   0.42297   0.00000  Uiso   1.00
O40    O     0.13220   0.39840   0.06731   0.00000  Uiso   1.00
N41    N     0.76278   0.04058   0.01993   0.00000  Uiso   1.00
N42    N     0.52596   0.22921   0.36662   0.00000  Uiso   1.00
N43    N     0.23173   0.30412   0.11319   0.00000  Uiso   1.00
N44    N     0.78559   0.13815   0.97125   0.00000  Uiso   1.00
N45    N     0.54877   0.32677   0.31793   0.00000  Uiso   1.00
N46    N     0.25454   0.40169   0.06451   0.00000  Uiso   1.00
C47    C     0.41824   0.62247   0.21361   0.00000  Uiso   1.00
C48    C     0.40123   0.60565   0.16145   0.00000  Uiso   1.00
C49    C     0.33733   0.58715   0.16706   0.00000  Uiso   1.00
C50    C     0.33231   0.57379   0.11388   0.00000  Uiso   1.00
C51    C     0.29727   0.54687   0.04152   0.00000  Uiso   1.00
C52    C     0.50540   0.57036   0.21578   0.00000  Uiso   1.00
C53    C     0.52909   0.52221   0.26708   0.00000  Uiso   1.00
C54    C     0.61177   0.47915   0.25964   0.00000  Uiso   1.00
C55    C     0.73847   0.39749   0.27165   0.00000  Uiso   1.00
C56    C     0.41986   0.69767   0.19203   0.00000  Uiso   1.00
C57    C     0.37163   0.75656   0.22337   0.00000  Uiso   1.00
C58    C     0.38231   0.82068   0.19593   0.00000  Uiso   1.00
C59    C     0.37619   0.93669   0.17106   0.00000  Uiso   1.00
C60    C     0.52297   0.63162   0.10917   0.00000  Uiso   1.00
C61    C     0.45812   0.61061   0.10472   0.00000  Uiso   1.00
C62    C     0.45320   0.59728   0.05152   0.00000  Uiso   1.00
C63    C     0.38930   0.57877   0.05705   0.00000  Uiso   1.00
C64    C     0.56229   0.57533   0.15906   0.00000  Uiso   1.00
C65    C     0.64496   0.53233   0.15153   0.00000  Uiso   1.00
C66    C     0.66876   0.48413   0.20281   0.00000  Uiso   1.00
C67    C     0.47675   0.70264   0.13530   0.00000  Uiso   1.00
C68    C     0.48751   0.76668   0.10781   0.00000  Uiso   1.00
C69    C     0.43930   0.82566   0.13910   0.00000  Uiso   1.00
H70    H     0.37395   0.61860   0.25778   0.00000  Uiso   1.00
H71    H     0.29332   0.58331   0.21097   0.00000  Uiso   1.00
H72    H     0.48505   0.51838   0.31098   0.00000  Uiso   1.00
H73    H     0.32762   0.75269   0.26726   0.00000  Uiso   1.00
H74    H     0.22902   0.54635   0.13407   0.00000  Uiso   1.00
H75    H     0.63330   0.40947   0.34494   0.00000  Uiso   1.00
H76    H     0.30133   0.90356   0.25276   0.00000  Uiso   1.00
H77    H     0.56727   0.63549   0.06501   0.00000  Uiso   1.00
H78    H     0.49723   0.60112   0.00762   0.00000  Uiso   1.00
H79    H     0.68897   0.53620   0.10763   0.00000  Uiso   1.00
H80    H     0.53154   0.77051   0.06392   0.00000  Uiso   1.00
H81    H     0.39453   0.56080   0.96903   0.00000  Uiso   1.00
H82    H     0.79882   0.42392   0.17990   0.00000  Uiso   1.00
H83    H     0.46684   0.91801   0.08772   0.00000  Uiso   1.00
O84    O     0.26224   0.53064   0.01729   0.00000  Uiso   1.00
O85    O     0.79264   0.35107   0.29394   0.00000  Uiso   1.00
O86    O     0.35709   0.99930   0.17300   0.00000  Uiso   1.00
N87    N     0.27758   0.55448   0.10310   0.00000  Uiso   1.00
N88    N     0.65555   0.42650   0.30025   0.00000  Uiso   1.00
N89    N     0.34520   0.88842   0.21408   0.00000  Uiso   1.00
N90    N     0.36663   0.56226   0.01429   0.00000  Uiso   1.00
N91    N     0.74461   0.43428   0.21144   0.00000  Uiso   1.00
N92    N     0.43426   0.89620   0.12527   0.00000  Uiso   1.00
C93    C     0.02793   0.24765   0.14470   0.00000  Uiso   1.00
C94    C     0.99128   0.32830   0.12075   0.00000  Uiso   1.00
C95    C     0.97143   0.38385   0.15198   0.00000  Uiso   1.00
C96    C     0.93851   0.45405   0.12219   0.00000  Uiso   1.00
C97    C     0.88348   0.57714   0.09397   0.00000  Uiso   1.00
C98    C     0.96992   0.21674   0.14300   0.00000  Uiso   1.00
C99    C     0.93212   0.17848   0.19293   0.00000  Uiso   1.00
C100   C     0.88123   0.15475   0.18187   0.00000  Uiso   1.00
C101   C     0.79308   0.10459   0.18818   0.00000  Uiso   1.00
C102   C     0.10671   0.21565   0.09605   0.00000  Uiso   1.00
C103   C     0.18392   0.17646   0.10651   0.00000  Uiso   1.00
C104   C     0.24819   0.15180   0.05591   0.00000  Uiso   1.00
C105   C     0.37243   0.09995   0.98933   0.00000  Uiso   1.00
C106   C     0.00478   0.27353   0.03626   0.00000  Uiso   1.00
C107   C     0.97871   0.34235   0.06185   0.00000  Uiso   1.00
C108   C     0.94582   0.41248   0.03200   0.00000  Uiso   1.00
C109   C     0.92591   0.46813   0.06318   0.00000  Uiso   1.00
C110   C     0.95735   0.23079   0.08410   0.00000  Uiso   1.00
C111   C     0.90651   0.20711   0.07295   0.00000  Uiso   1.00
C112   C     0.86863   0.16883   0.12286   0.00000  Uiso   1.00
C113   C     0.09414   0.22971   0.03714   0.00000  Uiso   1.00
C114   C     0.15831   0.20510   0.98653   0.00000  Uiso   1.00
C115   C     0.23559   0.16588   0.99691   0.00000  Uiso   1.00
H116   H     0.03772   0.23670   0.19056   0.00000  Uiso   1.00
H117   H     0.98116   0.37295   0.19757   0.00000  Uiso   1.00
H118   H     0.94187   0.16760   0.23851   0.00000  Uiso   1.00
H119   H     0.19362   0.16559   0.15209   0.00000  Uiso   1.00
H120   H     0.91288   0.53020   0.17937   0.00000  Uiso   1.00
H121   H     0.83005   0.09720   0.26569   0.00000  Uiso   1.00
H122   H     0.36093   0.09295   0.08347   0.00000  Uiso   1.00
H123   H     0.99499   0.28447   0.99040   0.00000  Uiso   1.00
H124   H     0.93609   0.42335   0.98642   0.00000  Uiso   1.00
H125   H     0.89680   0.21800   0.02736   0.00000  Uiso   1.00
H126   H     0.14855   0.21599   0.94095   0.00000  Uiso   1.00
H127   H     0.87630   0.57111   0.00800   0.00000  Uiso   1.00
H128   H     0.79347   0.13810   0.09432   0.00000  Uiso   1.00
H129   H     0.32435   0.13385   0.91210   0.00000  Uiso   1.00
O130   O     0.85659   0.64115   0.09469   0.00000  Uiso   1.00
O131   O     0.74793   0.07305   0.20793   0.00000  Uiso   1.00
O132   O     0.44443   0.06748   0.96887   0.00000  Uiso   1.00
N133   N     0.91237   0.52077   0.13958   0.00000  Uiso   1.00
N134   N     0.83492   0.11595   0.22028   0.00000  Uiso   1.00
N135   N     0.33125   0.11196   0.04993   0.00000  Uiso   1.00
N136   N     0.89269   0.54278   0.04736   0.00000  Uiso   1.00
N137   N     0.81524   0.13796   0.12807   0.00000  Uiso   1.00
N138   N     0.31156   0.13397   0.95772   0.00000  Uiso   1.00
C139   C     0.93306   0.59525   0.71366   0.00000  Uiso   1.00
C140   C     0.01590   0.58214   0.66707   0.00000  Uiso   1.00
C141   C     0.07253   0.60739   0.66599   0.00000  Uiso   1.00
C142   C     0.14473   0.58954   0.61963   0.00000  Uiso   1.00
C143   C     0.27110   0.57547   0.55395   0.00000  Uiso   1.00
C144   C     0.93220   0.52066   0.74310   0.00000  Uiso   1.00
C145   C     0.91845   0.49422   0.80595   0.00000  Uiso   1.00
C146   C     0.92018   0.42461   0.82359   0.00000  Uiso   1.00
C147   C     0.91656   0.31511   0.87594   0.00000  Uiso   1.00
C148   C     0.86991   0.63047   0.67571   0.00000  Uiso   1.00
C149   C     0.80377   0.69635   0.68190   0.00000  Uiso   1.00
C150   C     0.75304   0.71919   0.64282   0.00000  Uiso   1.00
C151   C     0.65270   0.78019   0.59054   0.00000  Uiso   1.00
C152   C     0.96054   0.51865   0.63324   0.00000  Uiso   1.00
C153   C     0.03083   0.54053   0.62339   0.00000  Uiso   1.00
C154   C     0.10295   0.52264   0.57701   0.00000  Uiso   1.00
C155   C     0.15968   0.54786   0.57587   0.00000  Uiso   1.00
C156   C     0.94713   0.47905   0.69942   0.00000  Uiso   1.00
C157   C     0.94887   0.40947   0.71697   0.00000  Uiso   1.00
C158   C     0.93513   0.38293   0.77983   0.00000  Uiso   1.00
C159   C     0.88484   0.58886   0.63202   0.00000  Uiso   1.00
C160   C     0.83419   0.61160   0.59292   0.00000  Uiso   1.00
C161   C     0.76799   0.67751   0.59906   0.00000  Uiso   1.00
H162   H     0.92143   0.62764   0.74767   0.00000  Uiso   1.00
H163   H     0.06096   0.63958   0.69981   0.00000  Uiso   1.00
H164   H     0.90689   0.52643   0.83974   0.00000  Uiso   1.00
H165   H     0.79224   0.72853   0.71571   0.00000  Uiso   1.00
H166   H     0.22225   0.63444   0.62749   0.00000  Uiso   1.00
H167   H     0.89737   0.39587   0.92255   0.00000  Uiso   1.00
H168   H     0.65559   0.82204   0.66102   0.00000  Uiso   1.00
H169   H     0.97217   0.48626   0.59923   0.00000  Uiso   1.00
H170   H     0.11449   0.49044   0.54321   0.00000  Uiso   1.00
H171   H     0.96042   0.37729   0.68315   0.00000  Uiso   1.00
H172   H     0.84576   0.57939   0.55912   0.00000  Uiso   1.00
H173   H     0.26570   0.51339   0.50040   0.00000  Uiso   1.00
H174   H     0.94081   0.27482   0.79546   0.00000  Uiso   1.00
H175   H     0.69903   0.70099   0.53392   0.00000  Uiso   1.00
O176   O     0.33669   0.57920   0.52979   0.00000  Uiso   1.00
O177   O     0.91044   0.26620   0.91689   0.00000  Uiso   1.00
O178   O     0.59323   0.82533   0.57377   0.00000  Uiso   1.00
N179   N     0.21294   0.60539   0.60526   0.00000  Uiso   1.00
N180   N     0.90921   0.38233   0.88112   0.00000  Uiso   1.00
N181   N     0.68315   0.78076   0.63662   0.00000  Uiso   1.00
N182   N     0.23632   0.54026   0.53687   0.00000  Uiso   1.00
N183   N     0.93258   0.31720   0.81273   0.00000  Uiso   1.00
N184   N     0.70652   0.71562   0.56823   0.00000  Uiso   1.00
C185   C     0.89590   0.15876   0.77702   0.00000  Uiso   1.00
C186   C     0.88532   0.22097   0.72316   0.00000  Uiso   1.00
C187   C     0.82125   0.28844   0.72461   0.00000  Uiso   1.00
C188   C     0.82270   0.33798   0.67050   0.00000  Uiso   1.00
C189   C     0.79667   0.43724   0.59503   0.00000  Uiso   1.00
C190   C     0.97942   0.13871   0.78652   0.00000  Uiso   1.00
C191   C     0.99446   0.13701   0.84125   0.00000  Uiso   1.00
C192   C     0.07512   0.11728   0.84048   0.00000  Uiso   1.00
C193   C     0.19518   0.08877   0.86339   0.00000  Uiso   1.00
C194   C     0.90281   0.09466   0.75378   0.00000  Uiso   1.00
C195   C     0.85345   0.05590   0.78099   0.00000  Uiso   1.00
C196   C     0.86962   0.99908   0.75267   0.00000  Uiso   1.00
C197   C     0.87073   0.90218   0.72474   0.00000  Uiso   1.00
C198   C     0.01241   0.12674   0.67837   0.00000  Uiso   1.00
C199   C     0.94861   0.20358   0.66958   0.00000  Uiso   1.00
C200   C     0.95015   0.25302   0.61546   0.00000  Uiso   1.00
C201   C     0.88609   0.32056   0.61682   0.00000  Uiso   1.00
C202   C     0.04270   0.12132   0.73294   0.00000  Uiso   1.00
C203   C     0.12336   0.10158   0.73210   0.00000  Uiso   1.00
C204   C     0.13852   0.09986   0.78680   0.00000  Uiso   1.00
C205   C     0.96609   0.07726   0.70020   0.00000  Uiso   1.00
C206   C     0.98235   0.02049   0.67183   0.00000  Uiso   1.00
C207   C     0.93302   0.98166   0.69898   0.00000  Uiso   1.00
H208   H     0.84664   0.17229   0.81874   0.00000  Uiso   1.00
H209   H     0.77229   0.30188   0.76609   0.00000  Uiso   1.00
H210   H     0.94547   0.15046   0.88271   0.00000  Uiso   1.00
H211   H     0.80448   0.06938   0.82245   0.00000  Uiso   1.00
H212   H     0.71779   0.43790   0.68408   0.00000  Uiso   1.00
H213   H     0.08296   0.11859   0.92999   0.00000  Uiso   1.00
H214   H     0.78565   0.94761   0.80293   0.00000  Uiso   1.00
H215   H     0.06168   0.11320   0.63665   0.00000  Uiso   1.00
H216   H     0.99913   0.23955   0.57400   0.00000  Uiso   1.00
H217   H     0.17231   0.08813   0.69062   0.00000  Uiso   1.00
H218   H     0.03132   0.00704   0.63037   0.00000  Uiso   1.00
H219   H     0.90190   0.38731   0.52817   0.00000  Uiso   1.00
H220   H     0.26707   0.06800   0.77409   0.00000  Uiso   1.00
H221   H     0.96976   0.89702   0.64703   0.00000  Uiso   1.00
O222   O     0.76483   0.49679   0.56820   0.00000  Uiso   1.00
O223   O     0.24392   0.07786   0.89083   0.00000  Uiso   1.00
O224   O     0.85386   0.85354   0.72414   0.00000  Uiso   1.00
N225   N     0.76969   0.40865   0.65598   0.00000  Uiso   1.00
N226   N     0.11110   0.11013   0.88589   0.00000  Uiso   1.00
N227   N     0.83316   0.95026   0.76711   0.00000  Uiso   1.00
N228   N     0.86876   0.38142   0.57209   0.00000  Uiso   1.00
N229   N     0.21017   0.08290   0.80200   0.00000  Uiso   1.00
N230   N     0.93223   0.92304   0.68322   0.00000  Uiso   1.00
C231   C     0.41134   0.09033   0.69630   0.00000  Uiso   1.00
C232   C     0.38492   0.05688   0.66151   0.00000  Uiso   1.00
C233   C     0.36304   0.99791   0.68525   0.00000  Uiso   1.00
C234   C     0.34072   0.97553   0.64603   0.00000  Uiso   1.00
C235   C     0.29971   0.91822   0.60125   0.00000  Uiso   1.00
C236   C     0.35346   0.16988   0.69322   0.00000  Uiso   1.00
C237   C     0.30514   0.20592   0.74363   0.00000  Uiso   1.00
C238   C     0.25634   0.27867   0.73109   0.00000  Uiso   1.00
C239   C     0.16655   0.39681   0.73555   0.00000  Uiso   1.00
C240   C     0.49513   0.08887   0.65752   0.00000  Uiso   1.00
C241   C     0.56593   0.05683   0.67790   0.00000  Uiso   1.00
C242   C     0.63641   0.06139   0.63531   0.00000  Uiso   1.00
C243   C     0.76657   0.05376   0.58433   0.00000  Uiso   1.00
C244   C     0.41061   0.15545   0.58443   0.00000  Uiso   1.00
C245   C     0.38452   0.09225   0.60074   0.00000  Uiso   1.00
C246   C     0.36223   0.06995   0.56147   0.00000  Uiso   1.00
C247   C     0.34032   0.01096   0.58515   0.00000  Uiso   1.00
C248   C     0.35306   0.20525   0.63246   0.00000  Uiso   1.00
C249   C     0.30433   0.27796   0.61985   0.00000  Uiso   1.00
C250   C     0.25595   0.31411   0.67022   0.00000  Uiso   1.00
C251   C     0.49473   0.12424   0.59675   0.00000  Uiso   1.00
C252   C     0.56512   0.12887   0.55412   0.00000  Uiso   1.00
C253   C     0.63601   0.09683   0.57444   0.00000  Uiso   1.00
H254   H     0.41164   0.06280   0.74361   0.00000  Uiso   1.00
H255   H     0.36335   0.97056   0.73228   0.00000  Uiso   1.00
H256   H     0.30547   0.17854   0.79064   0.00000  Uiso   1.00
H257   H     0.56621   0.02946   0.72493   0.00000  Uiso   1.00
H258   H     0.30960   0.88390   0.69292   0.00000  Uiso   1.00
H259   H     0.18757   0.32245   0.81599   0.00000  Uiso   1.00
H260   H     0.73740   0.00809   0.67741   0.00000  Uiso   1.00
H261   H     0.41030   0.18299   0.53712   0.00000  Uiso   1.00
H262   H     0.36193   0.09733   0.51445   0.00000  Uiso   1.00
H263   H     0.30404   0.30531   0.57282   0.00000  Uiso   1.00
H264   H     0.56479   0.15624   0.50710   0.00000  Uiso   1.00
H265   H     0.30844   0.98680   0.51613   0.00000  Uiso   1.00
H266   H     0.18641   0.42534   0.63919   0.00000  Uiso   1.00
H267   H     0.73625   0.11099   0.50062   0.00000  Uiso   1.00
O268   O     0.27720   0.87685   0.59335   0.00000  Uiso   1.00
O269   O     0.11712   0.45220   0.75480   0.00000  Uiso   1.00
O270   O     0.83848   0.03978   0.57300   0.00000  Uiso   1.00
N271   N     0.31598   0.91986   0.65442   0.00000  Uiso   1.00
N272   N     0.20188   0.32987   0.76948   0.00000  Uiso   1.00
N273   N     0.71592   0.03600   0.63993   0.00000  Uiso   1.00
N274   N     0.31536   0.97523   0.55929   0.00000  Uiso   1.00
N275   N     0.20126   0.38524   0.67435   0.00000  Uiso   1.00
N276   N     0.71530   0.09136   0.54480   0.00000  Uiso   1.00
C277   C     0.49518   0.81730   0.82917   0.00000  Uiso   1.00
C278   C     0.41852   0.83262   0.88266   0.00000  Uiso   1.00
C279   C     0.36676   0.89985   0.90051   0.00000  Uiso   1.00
C280   C     0.29983   0.90257   0.95062   0.00000  Uiso   1.00
C281   C     0.18300   0.93585   0.02893   0.00000  Uiso   1.00
C282   C     0.48377   0.78064   0.78711   0.00000  Uiso   1.00
C283   C     0.48690   0.80417   0.72462   0.00000  Uiso   1.00
C284   C     0.47491   0.76311   0.69430   0.00000  Uiso   1.00
C285   C     0.45944   0.71566   0.62426   0.00000  Uiso   1.00
C286   C     0.56485   0.76000   0.85696   0.00000  Uiso   1.00
C287   C     0.63616   0.76616   0.85320   0.00000  Uiso   1.00
C288   C     0.69245   0.70772   0.88167   0.00000  Uiso   1.00
C289   C     0.80287   0.62823   0.92008   0.00000  Uiso   1.00
C290   C     0.46835   0.70255   0.88642   0.00000  Uiso   1.00
C291   C     0.40395   0.77029   0.91375   0.00000  Uiso   1.00
C292   C     0.33709   0.77291   0.96385   0.00000  Uiso   1.00
C293   C     0.28524   0.84013   0.98178   0.00000  Uiso   1.00
C294   C     0.46920   0.71832   0.81820   0.00000  Uiso   1.00
C295   C     0.45722   0.67722   0.78797   0.00000  Uiso   1.00
C296   C     0.46032   0.70068   0.72545   0.00000  Uiso   1.00
C297   C     0.55029   0.69768   0.88806   0.00000  Uiso   1.00
C298   C     0.60648   0.63922   0.91654   0.00000  Uiso   1.00
C299   C     0.67786   0.64529   0.91282   0.00000  Uiso   1.00
H300   H     0.50652   0.86581   0.80496   0.00000  Uiso   1.00
H301   H     0.37805   0.94807   0.87643   0.00000  Uiso   1.00
H302   H     0.49818   0.85239   0.70057   0.00000  Uiso   1.00
H303   H     0.64741   0.81440   0.82913   0.00000  Uiso   1.00
H304   H     0.22918   0.01179   0.96937   0.00000  Uiso   1.00
H305   H     0.48250   0.81003   0.59856   0.00000  Uiso   1.00
H306   H     0.79720   0.72991   0.86964   0.00000  Uiso   1.00
H307   H     0.45701   0.65403   0.91063   0.00000  Uiso   1.00
H308   H     0.32583   0.72467   0.98791   0.00000  Uiso   1.00
H309   H     0.44595   0.62899   0.81204   0.00000  Uiso   1.00
H310   H     0.59519   0.59099   0.94060   0.00000  Uiso   1.00
H311   H     0.18679   0.83047   0.05985   0.00000  Uiso   1.00
H312   H     0.44011   0.62871   0.68903   0.00000  Uiso   1.00
H313   H     0.75481   0.54859   0.96012   0.00000  Uiso   1.00
O314   O     0.12257   0.97142   0.06353   0.00000  Uiso   1.00
O315   O     0.45493   0.70672   0.57703   0.00000  Uiso   1.00
O316   O     0.86780   0.60160   0.93269   0.00000  Uiso   1.00
N317   N     0.23722   0.95942   0.98007   0.00000  Uiso   1.00
N318   N     0.47404   0.77079   0.63338   0.00000  Uiso   1.00
N319   N     0.76827   0.69588   0.88681   0.00000  Uiso   1.00
N320   N     0.21441   0.86185   0.02875   0.00000  Uiso   1.00
N321   N     0.45123   0.67323   0.68207   0.00000  Uiso   1.00
N322   N     0.74546   0.59831   0.93549   0.00000  Uiso   1.00
C323   C     0.58176   0.37753   0.78639   0.00000  Uiso   1.00
C324   C     0.59877   0.39435   0.83855   0.00000  Uiso   1.00
C325   C     0.66267   0.41285   0.83294   0.00000  Uiso   1.00
C326   C     0.66769   0.42621   0.88612   0.00000  Uiso   1.00
C327   C     0.70273   0.45313   0.95848   0.00000  Uiso   1.00
C328   C     0.49460   0.42964   0.78422   0.00000  Uiso   1.00
C329   C     0.47091   0.47779   0.73292   0.00000  Uiso   1.00
C330   C     0.38823   0.52085   0.74036   0.00000  Uiso   1.00
C331   C     0.26153   0.60251   0.72835   0.00000  Uiso   1.00
C332   C     0.58014   0.30233   0.80797   0.00000  Uiso   1.00
C333   C     0.62837   0.24344   0.77663   0.00000  Uiso   1.00
C334   C     0.61769   0.17932   0.80407   0.00000  Uiso   1.00
C335   C     0.62381   0.06331   0.82894   0.00000  Uiso   1.00
C336   C     0.47703   0.36838   0.89083   0.00000  Uiso   1.00
C337   C     0.54188   0.38939   0.89528   0.00000  Uiso   1.00
C338   C     0.54680   0.40272   0.94848   0.00000  Uiso   1.00
C339   C     0.61070   0.42123   0.94295   0.00000  Uiso   1.00
C340   C     0.43771   0.42467   0.84094   0.00000  Uiso   1.00
C341   C     0.35504   0.46767   0.84847   0.00000  Uiso   1.00
C342   C     0.33124   0.51587   0.79719   0.00000  Uiso   1.00
C343   C     0.52325   0.29736   0.86470   0.00000  Uiso   1.00
C344   C     0.51249   0.23332   0.89219   0.00000  Uiso   1.00
C345   C     0.56070   0.17434   0.86090   0.00000  Uiso   1.00
H346   H     0.62605   0.38140   0.74222   0.00000  Uiso   1.00
H347   H     0.70668   0.41669   0.78903   0.00000  Uiso   1.00
H348   H     0.51495   0.48162   0.68902   0.00000  Uiso   1.00
H349   H     0.67238   0.24731   0.73274   0.00000  Uiso   1.00
H350   H     0.77098   0.45365   0.86593   0.00000  Uiso   1.00
H351   H     0.36670   0.59053   0.65506   0.00000  Uiso   1.00
H352   H     0.69867   0.09644   0.74724   0.00000  Uiso   1.00
H353   H     0.43273   0.36451   0.93499   0.00000  Uiso   1.00
H354   H     0.50277   0.39888   0.99238   0.00000  Uiso   1.00
H355   H     0.31103   0.46380   0.89237   0.00000  Uiso   1.00
H356   H     0.46846   0.22949   0.93608   0.00000  Uiso   1.00
H357   H     0.60547   0.43920   0.03097   0.00000  Uiso   1.00
H358   H     0.20118   0.57608   0.82010   0.00000  Uiso   1.00
H359   H     0.53316   0.08199   0.91228   0.00000  Uiso   1.00
O360   O     0.73776   0.46936   0.98271   0.00000  Uiso   1.00
O361   O     0.20736   0.64893   0.70606   0.00000  Uiso   1.00
O362   O     0.64291   0.00070   0.82700   0.00000  Uiso   1.00
N363   N     0.72242   0.44552   0.89690   0.00000  Uiso   1.00
N364   N     0.34445   0.57350   0.69975   0.00000  Uiso   1.00
N365   N     0.65480   0.11158   0.78592   0.00000  Uiso   1.00
N366   N     0.63337   0.43774   0.98571   0.00000  Uiso   1.00
N367   N     0.25539   0.56572   0.78856   0.00000  Uiso   1.00
N368   N     0.56574   0.10380   0.87473   0.00000  Uiso   1.00
C369   C     0.97207   0.75235   0.85530   0.00000  Uiso   1.00
C370   C     0.00872   0.67170   0.87925   0.00000  Uiso   1.00
C371   C     0.02857   0.61615   0.84802   0.00000  Uiso   1.00
C372   C     0.06149   0.54595   0.87781   0.00000  Uiso   1.00
C373   C     0.11652   0.42286   0.90603   0.00000  Uiso   1.00
C374   C     0.03008   0.78326   0.85700   0.00000  Uiso   1.00
C375   C     0.06788   0.82152   0.80707   0.00000  Uiso   1.00
C376   C     0.11877   0.84525   0.81813   0.00000  Uiso   1.00
C377   C     0.20692   0.89541   0.81182   0.00000  Uiso   1.00
C378   C     0.89329   0.78435   0.90395   0.00000  Uiso   1.00
C379   C     0.81608   0.82354   0.89349   0.00000  Uiso   1.00
C380   C     0.75181   0.84820   0.94409   0.00000  Uiso   1.00
C381   C     0.62757   0.90005   0.01067   0.00000  Uiso   1.00
C382   C     0.99522   0.72647   0.96374   0.00000  Uiso   1.00
C383   C     0.02129   0.65765   0.93815   0.00000  Uiso   1.00
C384   C     0.05418   0.58752   0.96800   0.00000  Uiso   1.00
C385   C     0.07409   0.53187   0.93682   0.00000  Uiso   1.00
C386   C     0.04265   0.76921   0.91590   0.00000  Uiso   1.00
C387   C     0.09349   0.79289   0.92705   0.00000  Uiso   1.00
C388   C     0.13137   0.83117   0.87714   0.00000  Uiso   1.00
C389   C     0.90586   0.77029   0.96286   0.00000  Uiso   1.00
C390   C     0.84169   0.79490   0.01347   0.00000  Uiso   1.00
C391   C     0.76441   0.83412   0.00309   0.00000  Uiso   1.00
H392   H     0.96228   0.76330   0.80944   0.00000  Uiso   1.00
H393   H     0.01884   0.62705   0.80243   0.00000  Uiso   1.00
H394   H     0.05813   0.83240   0.76149   0.00000  Uiso   1.00
H395   H     0.80638   0.83441   0.84791   0.00000  Uiso   1.00
H396   H     0.08712   0.46980   0.82063   0.00000  Uiso   1.00
H397   H     0.16995   0.90280   0.73431   0.00000  Uiso   1.00
H398   H     0.63907   0.90705   0.91653   0.00000  Uiso   1.00
H399   H     0.00501   0.71553   0.00960   0.00000  Uiso   1.00
H400   H     0.06391   0.57665   0.01358   0.00000  Uiso   1.00
H401   H     0.10320   0.78200   0.97264   0.00000  Uiso   1.00
H402   H     0.85145   0.78401   0.05905   0.00000  Uiso   1.00
H403   H     0.12370   0.42889   0.99200   0.00000  Uiso   1.00
H404   H     0.20653   0.86190   0.90568   0.00000  Uiso   1.00
H405   H     0.67565   0.86615   0.08790   0.00000  Uiso   1.00
O406   O     0.14341   0.35885   0.90531   0.00000  Uiso   1.00
O407   O     0.25207   0.92695   0.79207   0.00000  Uiso   1.00
O408   O     0.55557   0.93252   0.03113   0.00000  Uiso   1.00
N409   N     0.08763   0.47923   0.86042   0.00000  Uiso   1.00
N410   N     0.16508   0.88405   0.77972   0.00000  Uiso   1.00
N411   N     0.66875   0.88804   0.95007   0.00000  Uiso   1.00
N412   N     0.10731   0.45722   0.95264   0.00000  Uiso   1.00
N413   N     0.18476   0.86204   0.87193   0.00000  Uiso   1.00
N414   N     0.68844   0.86603   0.04228   0.00000  Uiso   1.00
C415   C     0.06694   0.40475   0.28634   0.00000  Uiso   1.00
C416   C     0.98410   0.41786   0.33293   0.00000  Uiso   1.00
C417   C     0.92747   0.39261   0.33401   0.00000  Uiso   1.00
C418   C     0.85527   0.41046   0.38037   0.00000  Uiso   1.00
C419   C     0.72890   0.42453   0.44605   0.00000  Uiso   1.00
C420   C     0.06780   0.47934   0.25690   0.00000  Uiso   1.00
C421   C     0.08155   0.50578   0.19405   0.00000  Uiso   1.00
C422   C     0.07982   0.57539   0.17641   0.00000  Uiso   1.00
C423   C     0.08344   0.68489   0.12406   0.00000  Uiso   1.00
C424   C     0.13009   0.36953   0.32429   0.00000  Uiso   1.00
C425   C     0.19623   0.30365   0.31810   0.00000  Uiso   1.00
C426   C     0.24696   0.28081   0.35718   0.00000  Uiso   1.00
C427   C     0.34730   0.21981   0.40946   0.00000  Uiso   1.00
C428   C     0.03946   0.48135   0.36676   0.00000  Uiso   1.00
C429   C     0.96917   0.45947   0.37661   0.00000  Uiso   1.00
C430   C     0.89705   0.47736   0.42299   0.00000  Uiso   1.00
C431   C     0.84032   0.45214   0.42413   0.00000  Uiso   1.00
C432   C     0.05287   0.52095   0.30058   0.00000  Uiso   1.00
C433   C     0.05113   0.59053   0.28303   0.00000  Uiso   1.00
C434   C     0.06487   0.61707   0.22017   0.00000  Uiso   1.00
C435   C     0.11516   0.41114   0.36798   0.00000  Uiso   1.00
C436   C     0.16581   0.38840   0.40708   0.00000  Uiso   1.00
C437   C     0.23201   0.32249   0.40094   0.00000  Uiso   1.00
H438   H     0.07857   0.37236   0.25233   0.00000  Uiso   1.00
H439   H     0.93904   0.36042   0.30019   0.00000  Uiso   1.00
H440   H     0.09311   0.47357   0.16026   0.00000  Uiso   1.00
H441   H     0.20776   0.27147   0.28429   0.00000  Uiso   1.00
H442   H     0.77775   0.36556   0.37251   0.00000  Uiso   1.00
H443   H     0.10263   0.60413   0.07745   0.00000  Uiso   1.00
H444   H     0.34441   0.17796   0.33898   0.00000  Uiso   1.00
H445   H     0.02783   0.51374   0.40077   0.00000  Uiso   1.00
H446   H     0.88551   0.50956   0.45679   0.00000  Uiso   1.00
H447   H     0.03958   0.62271   0.31685   0.00000  Uiso   1.00
H448   H     0.15424   0.42061   0.44088   0.00000  Uiso   1.00
H449   H     0.73430   0.48661   0.49960   0.00000  Uiso   1.00
H450   H     0.05919   0.72518   0.20454   0.00000  Uiso   1.00
H451   H     0.30097   0.29901   0.46608   0.00000  Uiso   1.00
O452   O     0.66331   0.42080   0.47021   0.00000  Uiso   1.00
O453   O     0.08956   0.73380   0.08311   0.00000  Uiso   1.00
O454   O     0.40677   0.17467   0.42623   0.00000  Uiso   1.00
N455   N     0.78706   0.39461   0.39474   0.00000  Uiso   1.00
N456   N     0.09079   0.61767   0.11888   0.00000  Uiso   1.00
N457   N     0.31685   0.21924   0.36338   0.00000  Uiso   1.00
N458   N     0.76368   0.45974   0.46313   0.00000  Uiso   1.00
N459   N     0.06742   0.68280   0.18727   0.00000  Uiso   1.00
N460   N     0.29348   0.28438   0.43177   0.00000  Uiso   1.00
C461   C     0.10410   0.84124   0.22298   0.00000  Uiso   1.00
C462   C     0.11468   0.77903   0.27684   0.00000  Uiso   1.00
C463   C     0.17875   0.71156   0.27539   0.00000  Uiso   1.00
C464   C     0.17730   0.66202   0.32950   0.00000  Uiso   1.00
C465   C     0.20333   0.56276   0.40497   0.00000  Uiso   1.00
C466   C     0.02058   0.86129   0.21348   0.00000  Uiso   1.00
C467   C     0.00554   0.86299   0.15875   0.00000  Uiso   1.00
C468   C     0.92488   0.88272   0.15952   0.00000  Uiso   1.00
C469   C     0.80482   0.91123   0.13661   0.00000  Uiso   1.00
C470   C     0.09719   0.90534   0.24622   0.00000  Uiso   1.00
C471   C     0.14655   0.94410   0.21901   0.00000  Uiso   1.00
C472   C     0.13038   0.00092   0.24733   0.00000  Uiso   1.00
C473   C     0.12927   0.09782   0.27526   0.00000  Uiso   1.00
C474   C     0.98759   0.87326   0.32163   0.00000  Uiso   1.00
C475   C     0.05139   0.79642   0.33042   0.00000  Uiso   1.00
C476   C     0.04985   0.74698   0.38454   0.00000  Uiso   1.00
C477   C     0.11391   0.67944   0.38318   0.00000  Uiso   1.00
C478   C     0.95730   0.87868   0.26706   0.00000  Uiso   1.00
C479   C     0.87664   0.89842   0.26790   0.00000  Uiso   1.00
C480   C     0.86148   0.90014   0.21320   0.00000  Uiso   1.00
C481   C     0.03391   0.92274   0.29980   0.00000  Uiso   1.00
C482   C     0.01765   0.97951   0.32817   0.00000  Uiso   1.00
C483   C     0.06698   0.01834   0.30102   0.00000  Uiso   1.00
H484   H     0.15336   0.82771   0.18126   0.00000  Uiso   1.00
H485   H     0.22771   0.69812   0.23391   0.00000  Uiso   1.00
H486   H     0.05453   0.84954   0.11729   0.00000  Uiso   1.00
H487   H     0.19552   0.93062   0.17755   0.00000  Uiso   1.00
H488   H     0.28221   0.56210   0.31592   0.00000  Uiso   1.00
H489   H     0.91704   0.88141   0.07001   0.00000  Uiso   1.00
H490   H     0.21435   0.05239   0.19707   0.00000  Uiso   1.00
H491   H     0.93832   0.88680   0.36335   0.00000  Uiso   1.00
H492   H     0.00087   0.76045   0.42600   0.00000  Uiso   1.00
H493   H     0.82769   0.91187   0.30938   0.00000  Uiso   1.00
H494   H     0.96868   0.99296   0.36963   0.00000  Uiso   1.00
H495   H     0.09810   0.61269   0.47183   0.00000  Uiso   1.00
H496   H     0.73293   0.93200   0.22591   0.00000  Uiso   1.00
H497   H     0.03024   0.10298   0.35297   0.00000  Uiso   1.00
O498   O     0.23517   0.50321   0.43180   0.00000  Uiso   1.00
O499   O     0.75608   0.92214   0.10917   0.00000  Uiso   1.00
O500   O     0.14614   0.14646   0.27586   0.00000  Uiso   1.00
N501   N     0.23031   0.59135   0.34402   0.00000  Uiso   1.00
N502   N     0.88890   0.88987   0.11411   0.00000  Uiso   1.00
N503   N     0.16684   0.04974   0.23289   0.00000  Uiso   1.00
N504   N     0.13124   0.61858   0.42791   0.00000  Uiso   1.00
N505   N     0.78983   0.91710   0.19800   0.00000  Uiso   1.00
N506   N     0.06777   0.07696   0.31678   0.00000  Uiso   1.00
C507   C     0.58866   0.90967   0.30370   0.00000  Uiso   1.00
C508   C     0.61508   0.94312   0.33849   0.00000  Uiso   1.00
C509   C     0.63696   0.00209   0.31475   0.00000  Uiso   1.00
C510   C     0.65928   0.02447   0.35397   0.00000  Uiso   1.00
C511   C     0.70029   0.08178   0.39875   0.00000  Uiso   1.00
C512   C     0.64654   0.83012   0.30678   0.00000  Uiso   1.00
C513   C     0.69486   0.79408   0.25637   0.00000  Uiso   1.00
C514   C     0.74366   0.72133   0.26891   0.00000  Uiso   1.00
C515   C     0.83345   0.60319   0.26445   0.00000  Uiso   1.00
C516   C     0.50487   0.91113   0.34248   0.00000  Uiso   1.00
C517   C     0.43407   0.94317   0.32210   0.00000  Uiso   1.00
C518   C     0.36359   0.93861   0.36469   0.00000  Uiso   1.00
C519   C     0.23343   0.94624   0.41567   0.00000  Uiso   1.00
C520   C     0.58939   0.84455   0.41557   0.00000  Uiso   1.00
C521   C     0.61548   0.90775   0.39926   0.00000  Uiso   1.00
C522   C     0.63777   0.93005   0.43853   0.00000  Uiso   1.00
C523   C     0.65968   0.98904   0.41485   0.00000  Uiso   1.00
C524   C     0.64694   0.79475   0.36754   0.00000  Uiso   1.00
C525   C     0.69567   0.72204   0.38015   0.00000  Uiso   1.00
C526   C     0.74405   0.68589   0.32978   0.00000  Uiso   1.00
C527   C     0.50527   0.87576   0.40325   0.00000  Uiso   1.00
C528   C     0.43488   0.87113   0.44588   0.00000  Uiso   1.00
C529   C     0.36399   0.90317   0.42556   0.00000  Uiso   1.00
H530   H     0.58836   0.93720   0.25639   0.00000  Uiso   1.00
H531   H     0.63665   0.02944   0.26772   0.00000  Uiso   1.00
H532   H     0.69453   0.82146   0.20936   0.00000  Uiso   1.00
H533   H     0.43379   0.97054   0.27507   0.00000  Uiso   1.00
H534   H     0.69040   0.11610   0.30708   0.00000  Uiso   1.00
H535   H     0.81243   0.67755   0.18401   0.00000  Uiso   1.00
H536   H     0.26260   0.99191   0.32259   0.00000  Uiso   1.00
H537   H     0.58970   0.81701   0.46288   0.00000  Uiso   1.00
H538   H     0.63807   0.90267   0.48555   0.00000  Uiso   1.00
H539   H     0.69596   0.69469   0.42718   0.00000  Uiso   1.00
H540   H     0.43521   0.84376   0.49290   0.00000  Uiso   1.00
H541   H     0.69156   0.01320   0.48387   0.00000  Uiso   1.00
H542   H     0.81359   0.57466   0.36081   0.00000  Uiso   1.00
H543   H     0.26375   0.88901   0.49938   0.00000  Uiso   1.00
O544   O     0.72280   0.12315   0.40665   0.00000  Uiso   1.00
O545   O     0.88288   0.54780   0.24520   0.00000  Uiso   1.00
O546   O     0.16152   0.96022   0.42700   0.00000  Uiso   1.00
N547   N     0.68402   0.08014   0.34558   0.00000  Uiso   1.00
N548   N     0.79812   0.67013   0.23052   0.00000  Uiso   1.00
N549   N     0.28408   0.96400   0.36007   0.00000  Uiso   1.00
N550   N     0.68464   0.02477   0.44071   0.00000  Uiso   1.00
N551   N     0.79874   0.61476   0.32565   0.00000  Uiso   1.00
N552   N     0.28470   0.90864   0.45520   0.00000  Uiso   1.00
