data_job_03135
_audit_creation_date              2018-12-19
_audit_creation_method            'Materials Studio'
_symmetry_space_group_name_H-M    'P1'
_symmetry_Int_Tables_number       1
_symmetry_cell_setting            triclinic
loop_
_symmetry_equiv_pos_as_xyz
  x,y,z
_cell_length_a                    11.2967
_cell_length_b                    18.1540
_cell_length_c                    18.3469
_cell_angle_alpha                 90.0000
_cell_angle_beta                  137.8310
_cell_angle_gamma                 90.0000
loop_
_atom_site_label
_atom_site_type_symbol
_atom_site_fract_x
_atom_site_fract_y
_atom_site_fract_z
_atom_site_U_iso_or_equiv
_atom_site_adp_type
_atom_site_occupancy
C1     C     0.22406   0.46543   0.23589   0.00000  Uiso   1.00
C2     C     0.23637   0.50418   0.16794   0.00000  Uiso   1.00
C3     C     0.09725   0.53676   0.06737   0.00000  Uiso   1.00
C4     C     0.13562   0.56937   0.01829   0.00000  Uiso   1.00
C5     C     0.12865   0.62951   0.90518   0.00000  Uiso   1.00
C6     C     0.29608   0.38794   0.25679   0.00000  Uiso   1.00
C7     C     0.20718   0.32280   0.23095   0.00000  Uiso   1.00
C8     C     0.29584   0.25756   0.25669   0.00000  Uiso   1.00
C9     C     0.38163   0.13724   0.28160   0.00000  Uiso   1.00
C10    C     0.35596   0.50414   0.34576   0.00000  Uiso   1.00
C11    C     0.31741   0.53668   0.39474   0.00000  Uiso   1.00
C12    C     0.45649   0.56925   0.49540   0.00000  Uiso   1.00
C13    C     0.63524   0.62935   0.65845   0.00000  Uiso   1.00
C14    C     0.53960   0.46540   0.32757   0.00000  Uiso   1.00
C15    C     0.40776   0.50416   0.21774   0.00000  Uiso   1.00
C16    C     0.44636   0.53673   0.16881   0.00000  Uiso   1.00
C17    C     0.30732   0.56936   0.06818   0.00000  Uiso   1.00
C18    C     0.46747   0.38792   0.30659   0.00000  Uiso   1.00
C19    C     0.55629   0.32276   0.33238   0.00000  Uiso   1.00
C20    C     0.46754   0.25754   0.30658   0.00000  Uiso   1.00
C21    C     0.52735   0.50412   0.39556   0.00000  Uiso   1.00
C22    C     0.66652   0.53665   0.49617   0.00000  Uiso   1.00
C23    C     0.62819   0.56923   0.54529   0.00000  Uiso   1.00
H24    H     0.09063   0.46544   0.19712   0.00000  Uiso   1.00
H25    H     0.96463   0.53676   0.02885   0.00000  Uiso   1.00
H26    H     0.07456   0.32283   0.19242   0.00000  Uiso   1.00
H27    H     0.18477   0.53668   0.35618   0.00000  Uiso   1.00
H28    H     0.90051   0.61580   0.86424   0.00000  Uiso   1.00
H29    H     0.13232   0.16472   0.20916   0.00000  Uiso   1.00
H30    H     0.36471   0.61566   0.55449   0.00000  Uiso   1.00
H31    H     0.67304   0.46538   0.36635   0.00000  Uiso   1.00
H32    H     0.57900   0.53671   0.20736   0.00000  Uiso   1.00
H33    H     0.68893   0.32277   0.37093   0.00000  Uiso   1.00
H34    H     0.79913   0.53662   0.53469   0.00000  Uiso   1.00
H35    H     0.39915   0.61576   0.00912   0.00000  Uiso   1.00
H36    H     0.63096   0.16467   0.35405   0.00000  Uiso   1.00
H37    H     0.86336   0.61562   0.69937   0.00000  Uiso   1.00
O38    O     0.07745   0.66268   0.82903   0.00000  Uiso   1.00
O39    O     0.38158   0.07087   0.28157   0.00000  Uiso   1.00
O40    O     0.68648   0.66250   0.73462   0.00000  Uiso   1.00
N41    N     0.03078   0.60602   0.92016   0.00000  Uiso   1.00
N42    N     0.24749   0.18428   0.24263   0.00000  Uiso   1.00
N43    N     0.46477   0.60586   0.56549   0.00000  Uiso   1.00
N44    N     0.29910   0.60599   0.99813   0.00000  Uiso   1.00
N45    N     0.51581   0.18425   0.32059   0.00000  Uiso   1.00
N46    N     0.73309   0.60583   0.64346   0.00000  Uiso   1.00
C47    C     0.72406   0.96543   0.23589   0.00000  Uiso   1.00
C48    C     0.73637   0.00418   0.16794   0.00000  Uiso   1.00
C49    C     0.59725   0.03676   0.06737   0.00000  Uiso   1.00
C50    C     0.63562   0.06937   0.01829   0.00000  Uiso   1.00
C51    C     0.62865   0.12951   0.90518   0.00000  Uiso   1.00
C52    C     0.79608   0.88794   0.25679   0.00000  Uiso   1.00
C53    C     0.70718   0.82280   0.23095   0.00000  Uiso   1.00
C54    C     0.79584   0.75756   0.25669   0.00000  Uiso   1.00
C55    C     0.88163   0.63724   0.28160   0.00000  Uiso   1.00
C56    C     0.85596   0.00414   0.34576   0.00000  Uiso   1.00
C57    C     0.81741   0.03668   0.39474   0.00000  Uiso   1.00
C58    C     0.95649   0.06925   0.49540   0.00000  Uiso   1.00
C59    C     0.13524   0.12935   0.65845   0.00000  Uiso   1.00
C60    C     0.03960   0.96540   0.32757   0.00000  Uiso   1.00
C61    C     0.90776   0.00416   0.21774   0.00000  Uiso   1.00
C62    C     0.94636   0.03673   0.16881   0.00000  Uiso   1.00
C63    C     0.80732   0.06936   0.06818   0.00000  Uiso   1.00
C64    C     0.96747   0.88792   0.30659   0.00000  Uiso   1.00
C65    C     0.05629   0.82276   0.33238   0.00000  Uiso   1.00
C66    C     0.96754   0.75754   0.30658   0.00000  Uiso   1.00
C67    C     0.02735   0.00412   0.39556   0.00000  Uiso   1.00
C68    C     0.16652   0.03665   0.49617   0.00000  Uiso   1.00
C69    C     0.12819   0.06923   0.54529   0.00000  Uiso   1.00
H70    H     0.59063   0.96544   0.19712   0.00000  Uiso   1.00
H71    H     0.46463   0.03676   0.02885   0.00000  Uiso   1.00
H72    H     0.57456   0.82283   0.19242   0.00000  Uiso   1.00
H73    H     0.68477   0.03668   0.35618   0.00000  Uiso   1.00
H74    H     0.40051   0.11580   0.86424   0.00000  Uiso   1.00
H75    H     0.63232   0.66472   0.20916   0.00000  Uiso   1.00
H76    H     0.86471   0.11566   0.55449   0.00000  Uiso   1.00
H77    H     0.17304   0.96538   0.36635   0.00000  Uiso   1.00
H78    H     0.07900   0.03671   0.20736   0.00000  Uiso   1.00
H79    H     0.18893   0.82277   0.37093   0.00000  Uiso   1.00
H80    H     0.29913   0.03662   0.53469   0.00000  Uiso   1.00
H81    H     0.89915   0.11576   0.00912   0.00000  Uiso   1.00
H82    H     0.13096   0.66467   0.35405   0.00000  Uiso   1.00
H83    H     0.36336   0.11562   0.69937   0.00000  Uiso   1.00
O84    O     0.57745   0.16268   0.82903   0.00000  Uiso   1.00
O85    O     0.88158   0.57087   0.28157   0.00000  Uiso   1.00
O86    O     0.18648   0.16250   0.73462   0.00000  Uiso   1.00
N87    N     0.53078   0.10602   0.92016   0.00000  Uiso   1.00
N88    N     0.74749   0.68428   0.24263   0.00000  Uiso   1.00
N89    N     0.96477   0.10586   0.56549   0.00000  Uiso   1.00
N90    N     0.79910   0.10599   0.99813   0.00000  Uiso   1.00
N91    N     0.01581   0.68425   0.32059   0.00000  Uiso   1.00
N92    N     0.23309   0.10583   0.64346   0.00000  Uiso   1.00
C93    C     0.22406   0.53457   0.73589   0.00000  Uiso   1.00
C94    C     0.23637   0.49582   0.66794   0.00000  Uiso   1.00
C95    C     0.09725   0.46324   0.56737   0.00000  Uiso   1.00
C96    C     0.13562   0.43063   0.51829   0.00000  Uiso   1.00
C97    C     0.12865   0.37049   0.40518   0.00000  Uiso   1.00
C98    C     0.29608   0.61206   0.75679   0.00000  Uiso   1.00
C99    C     0.20718   0.67720   0.73095   0.00000  Uiso   1.00
C100   C     0.29584   0.74244   0.75669   0.00000  Uiso   1.00
C101   C     0.38163   0.86276   0.78160   0.00000  Uiso   1.00
C102   C     0.35596   0.49586   0.84576   0.00000  Uiso   1.00
C103   C     0.31741   0.46332   0.89474   0.00000  Uiso   1.00
C104   C     0.45649   0.43075   0.99540   0.00000  Uiso   1.00
C105   C     0.63524   0.37065   0.15845   0.00000  Uiso   1.00
C106   C     0.53960   0.53460   0.82757   0.00000  Uiso   1.00
C107   C     0.40776   0.49584   0.71774   0.00000  Uiso   1.00
C108   C     0.44636   0.46327   0.66881   0.00000  Uiso   1.00
C109   C     0.30732   0.43064   0.56818   0.00000  Uiso   1.00
C110   C     0.46747   0.61208   0.80659   0.00000  Uiso   1.00
C111   C     0.55629   0.67724   0.83238   0.00000  Uiso   1.00
C112   C     0.46754   0.74246   0.80658   0.00000  Uiso   1.00
C113   C     0.52735   0.49588   0.89556   0.00000  Uiso   1.00
C114   C     0.66652   0.46335   0.99617   0.00000  Uiso   1.00
C115   C     0.62819   0.43077   0.04529   0.00000  Uiso   1.00
H116   H     0.09063   0.53456   0.69712   0.00000  Uiso   1.00
H117   H     0.96463   0.46324   0.52885   0.00000  Uiso   1.00
H118   H     0.07456   0.67717   0.69242   0.00000  Uiso   1.00
H119   H     0.18477   0.46332   0.85618   0.00000  Uiso   1.00
H120   H     0.90051   0.38420   0.36424   0.00000  Uiso   1.00
H121   H     0.13232   0.83528   0.70916   0.00000  Uiso   1.00
H122   H     0.36471   0.38434   0.05449   0.00000  Uiso   1.00
H123   H     0.67304   0.53462   0.86635   0.00000  Uiso   1.00
H124   H     0.57900   0.46329   0.70736   0.00000  Uiso   1.00
H125   H     0.68893   0.67723   0.87093   0.00000  Uiso   1.00
H126   H     0.79913   0.46338   0.03469   0.00000  Uiso   1.00
H127   H     0.39915   0.38424   0.50912   0.00000  Uiso   1.00
H128   H     0.63096   0.83533   0.85405   0.00000  Uiso   1.00
H129   H     0.86336   0.38438   0.19937   0.00000  Uiso   1.00
O130   O     0.07745   0.33732   0.32903   0.00000  Uiso   1.00
O131   O     0.38158   0.92913   0.78157   0.00000  Uiso   1.00
O132   O     0.68648   0.33750   0.23462   0.00000  Uiso   1.00
N133   N     0.03078   0.39398   0.42016   0.00000  Uiso   1.00
N134   N     0.24749   0.81572   0.74263   0.00000  Uiso   1.00
N135   N     0.46477   0.39414   0.06549   0.00000  Uiso   1.00
N136   N     0.29910   0.39401   0.49813   0.00000  Uiso   1.00
N137   N     0.51581   0.81575   0.82059   0.00000  Uiso   1.00
N138   N     0.73309   0.39417   0.14346   0.00000  Uiso   1.00
C139   C     0.72406   0.03457   0.73589   0.00000  Uiso   1.00
C140   C     0.73637   0.99582   0.66794   0.00000  Uiso   1.00
C141   C     0.59725   0.96324   0.56737   0.00000  Uiso   1.00
C142   C     0.63562   0.93063   0.51829   0.00000  Uiso   1.00
C143   C     0.62865   0.87049   0.40518   0.00000  Uiso   1.00
C144   C     0.79608   0.11206   0.75679   0.00000  Uiso   1.00
C145   C     0.70718   0.17720   0.73095   0.00000  Uiso   1.00
C146   C     0.79584   0.24244   0.75669   0.00000  Uiso   1.00
C147   C     0.88163   0.36276   0.78160   0.00000  Uiso   1.00
C148   C     0.85596   0.99586   0.84576   0.00000  Uiso   1.00
C149   C     0.81741   0.96332   0.89474   0.00000  Uiso   1.00
C150   C     0.95649   0.93075   0.99540   0.00000  Uiso   1.00
C151   C     0.13524   0.87065   0.15845   0.00000  Uiso   1.00
C152   C     0.03960   0.03460   0.82757   0.00000  Uiso   1.00
C153   C     0.90776   0.99584   0.71774   0.00000  Uiso   1.00
C154   C     0.94636   0.96327   0.66881   0.00000  Uiso   1.00
C155   C     0.80732   0.93064   0.56818   0.00000  Uiso   1.00
C156   C     0.96747   0.11208   0.80659   0.00000  Uiso   1.00
C157   C     0.05629   0.17724   0.83238   0.00000  Uiso   1.00
C158   C     0.96754   0.24246   0.80658   0.00000  Uiso   1.00
C159   C     0.02735   0.99588   0.89556   0.00000  Uiso   1.00
C160   C     0.16652   0.96335   0.99617   0.00000  Uiso   1.00
C161   C     0.12819   0.93077   0.04529   0.00000  Uiso   1.00
H162   H     0.59063   0.03456   0.69712   0.00000  Uiso   1.00
H163   H     0.46463   0.96324   0.52885   0.00000  Uiso   1.00
H164   H     0.57456   0.17717   0.69242   0.00000  Uiso   1.00
H165   H     0.68477   0.96332   0.85618   0.00000  Uiso   1.00
H166   H     0.40051   0.88420   0.36424   0.00000  Uiso   1.00
H167   H     0.63232   0.33528   0.70916   0.00000  Uiso   1.00
H168   H     0.86471   0.88434   0.05449   0.00000  Uiso   1.00
H169   H     0.17304   0.03462   0.86635   0.00000  Uiso   1.00
H170   H     0.07900   0.96329   0.70736   0.00000  Uiso   1.00
H171   H     0.18893   0.17723   0.87093   0.00000  Uiso   1.00
H172   H     0.29913   0.96338   0.03469   0.00000  Uiso   1.00
H173   H     0.89915   0.88424   0.50912   0.00000  Uiso   1.00
H174   H     0.13096   0.33533   0.85405   0.00000  Uiso   1.00
H175   H     0.36336   0.88438   0.19937   0.00000  Uiso   1.00
O176   O     0.57745   0.83732   0.32903   0.00000  Uiso   1.00
O177   O     0.88158   0.42913   0.78157   0.00000  Uiso   1.00
O178   O     0.18648   0.83750   0.23462   0.00000  Uiso   1.00
N179   N     0.53078   0.89398   0.42016   0.00000  Uiso   1.00
N180   N     0.74749   0.31572   0.74263   0.00000  Uiso   1.00
N181   N     0.96477   0.89414   0.06549   0.00000  Uiso   1.00
N182   N     0.79910   0.89401   0.49813   0.00000  Uiso   1.00
N183   N     0.01581   0.31575   0.82059   0.00000  Uiso   1.00
N184   N     0.23309   0.89417   0.14346   0.00000  Uiso   1.00
