data_job_02141
_audit_creation_date              2018-12-19
_audit_creation_method            'Materials Studio'
_symmetry_space_group_name_H-M    'P1'
_symmetry_Int_Tables_number       1
_symmetry_cell_setting            triclinic
loop_
_symmetry_equiv_pos_as_xyz
  x,y,z
_cell_length_a                    21.3873
_cell_length_b                    21.3873
_cell_length_c                    7.0368
_cell_angle_alpha                 90.0000
_cell_angle_beta                  90.0000
_cell_angle_gamma                 90.0000
loop_
_atom_site_label
_atom_site_type_symbol
_atom_site_fract_x
_atom_site_fract_y
_atom_site_fract_z
_atom_site_U_iso_or_equiv
_atom_site_adp_type
_atom_site_occupancy
C1     C     0.20003   0.62337   0.68035   0.00000  Uiso   1.00
C2     C     0.14212   0.62065   0.80647   0.00000  Uiso   1.00
C3     C     0.08061   0.62218   0.74378   0.00000  Uiso   1.00
C4     C     0.03426   0.61919   0.88159   0.00000  Uiso   1.00
C5     C     0.94209   0.61567   0.04800   0.00000  Uiso   1.00
C6     C     0.23836   0.67881   0.75110   0.00000  Uiso   1.00
C7     C     0.25778   0.72922   0.64184   0.00000  Uiso   1.00
C8     C     0.29245   0.77518   0.73305   0.00000  Uiso   1.00
C9     C     0.34974   0.86191   0.81346   0.00000  Uiso   1.00
C10    C     0.23816   0.56516   0.72759   0.00000  Uiso   1.00
C11    C     0.25743   0.52002   0.59857   0.00000  Uiso   1.00
C12    C     0.29193   0.47031   0.66998   0.00000  Uiso   1.00
C13    C     0.34891   0.38059   0.71390   0.00000  Uiso   1.00
C14    C     0.22707   0.61535   0.03658   0.00000  Uiso   1.00
C15    C     0.15680   0.61630   0.99996   0.00000  Uiso   1.00
C16    C     0.11053   0.61330   0.13791   0.00000  Uiso   1.00
C17    C     0.04897   0.61482   0.07543   0.00000  Uiso   1.00
C18    C     0.25304   0.67445   0.94458   0.00000  Uiso   1.00
C19    C     0.28769   0.72034   0.03597   0.00000  Uiso   1.00
C20    C     0.30716   0.77081   0.92689   0.00000  Uiso   1.00
C21    C     0.25284   0.56080   0.92109   0.00000  Uiso   1.00
C22    C     0.28733   0.51115   0.99271   0.00000  Uiso   1.00
C23    C     0.30665   0.46594   0.86382   0.00000  Uiso   1.00
H24    H     0.18860   0.62676   0.52971   0.00000  Uiso   1.00
H25    H     0.06927   0.62556   0.59402   0.00000  Uiso   1.00
H26    H     0.24641   0.73257   0.49211   0.00000  Uiso   1.00
H27    H     0.24605   0.52341   0.44885   0.00000  Uiso   1.00
H28    H     0.94344   0.62232   0.75067   0.00000  Uiso   1.00
H29    H     0.31698   0.84796   0.53575   0.00000  Uiso   1.00
H30    H     0.31622   0.40690   0.44453   0.00000  Uiso   1.00
H31    H     0.23851   0.61196   0.18723   0.00000  Uiso   1.00
H32    H     0.12190   0.60993   0.28763   0.00000  Uiso   1.00
H33    H     0.29905   0.71695   0.18571   0.00000  Uiso   1.00
H34    H     0.29869   0.50779   0.14245   0.00000  Uiso   1.00
H35    H     0.98616   0.60964   0.31362   0.00000  Uiso   1.00
H36    H     0.35970   0.83528   0.09870   0.00000  Uiso   1.00
H37    H     0.35894   0.39422   0.00749   0.00000  Uiso   1.00
O38    O     0.88720   0.61494   0.08633   0.00000  Uiso   1.00
O39    O     0.37727   0.91096   0.80436   0.00000  Uiso   1.00
O40    O     0.37627   0.33230   0.68468   0.00000  Uiso   1.00
N41    N     0.96950   0.61960   0.86938   0.00000  Uiso   1.00
N42    N     0.31872   0.83057   0.66845   0.00000  Uiso   1.00
N43    N     0.31803   0.41822   0.58316   0.00000  Uiso   1.00
N44    N     0.99248   0.61278   0.17230   0.00000  Uiso   1.00
N45    N     0.34171   0.82374   0.97137   0.00000  Uiso   1.00
N46    N     0.34102   0.41140   0.88608   0.00000  Uiso   1.00
C47    C     0.79997   0.37663   0.18035   0.00000  Uiso   1.00
C48    C     0.85788   0.37935   0.30647   0.00000  Uiso   1.00
C49    C     0.91939   0.37782   0.24378   0.00000  Uiso   1.00
C50    C     0.96574   0.38081   0.38159   0.00000  Uiso   1.00
C51    C     0.05791   0.38433   0.54800   0.00000  Uiso   1.00
C52    C     0.76164   0.32119   0.25110   0.00000  Uiso   1.00
C53    C     0.74222   0.27078   0.14184   0.00000  Uiso   1.00
C54    C     0.70755   0.22482   0.23305   0.00000  Uiso   1.00
C55    C     0.65026   0.13809   0.31346   0.00000  Uiso   1.00
C56    C     0.76184   0.43484   0.22759   0.00000  Uiso   1.00
C57    C     0.74257   0.47998   0.09857   0.00000  Uiso   1.00
C58    C     0.70807   0.52969   0.16998   0.00000  Uiso   1.00
C59    C     0.65109   0.61941   0.21390   0.00000  Uiso   1.00
C60    C     0.77293   0.38465   0.53658   0.00000  Uiso   1.00
C61    C     0.84320   0.38370   0.49996   0.00000  Uiso   1.00
C62    C     0.88947   0.38670   0.63791   0.00000  Uiso   1.00
C63    C     0.95103   0.38518   0.57543   0.00000  Uiso   1.00
C64    C     0.74696   0.32555   0.44458   0.00000  Uiso   1.00
C65    C     0.71231   0.27966   0.53597   0.00000  Uiso   1.00
C66    C     0.69284   0.22919   0.42689   0.00000  Uiso   1.00
C67    C     0.74716   0.43920   0.42109   0.00000  Uiso   1.00
C68    C     0.71267   0.48885   0.49271   0.00000  Uiso   1.00
C69    C     0.69335   0.53406   0.36382   0.00000  Uiso   1.00
H70    H     0.81140   0.37324   0.02971   0.00000  Uiso   1.00
H71    H     0.93073   0.37444   0.09402   0.00000  Uiso   1.00
H72    H     0.75359   0.26743   0.99211   0.00000  Uiso   1.00
H73    H     0.75395   0.47659   0.94885   0.00000  Uiso   1.00
H74    H     0.05656   0.37768   0.25067   0.00000  Uiso   1.00
H75    H     0.68302   0.15204   0.03575   0.00000  Uiso   1.00
H76    H     0.68378   0.59310   0.94453   0.00000  Uiso   1.00
H77    H     0.76149   0.38804   0.68723   0.00000  Uiso   1.00
H78    H     0.87810   0.39007   0.78763   0.00000  Uiso   1.00
H79    H     0.70095   0.28305   0.68571   0.00000  Uiso   1.00
H80    H     0.70131   0.49221   0.64245   0.00000  Uiso   1.00
H81    H     0.01384   0.39036   0.81362   0.00000  Uiso   1.00
H82    H     0.64030   0.16472   0.59870   0.00000  Uiso   1.00
H83    H     0.64106   0.60578   0.50749   0.00000  Uiso   1.00
O84    O     0.11280   0.38506   0.58633   0.00000  Uiso   1.00
O85    O     0.62273   0.08904   0.30436   0.00000  Uiso   1.00
O86    O     0.62373   0.66770   0.18468   0.00000  Uiso   1.00
N87    N     0.03050   0.38040   0.36938   0.00000  Uiso   1.00
N88    N     0.68128   0.16943   0.16845   0.00000  Uiso   1.00
N89    N     0.68197   0.58178   0.08316   0.00000  Uiso   1.00
N90    N     0.00752   0.38722   0.67230   0.00000  Uiso   1.00
N91    N     0.65829   0.17626   0.47137   0.00000  Uiso   1.00
N92    N     0.65898   0.58860   0.38608   0.00000  Uiso   1.00
C93    C     0.37663   0.20003   0.93035   0.00000  Uiso   1.00
C94    C     0.37935   0.14212   0.05647   0.00000  Uiso   1.00
C95    C     0.37782   0.08061   0.99378   0.00000  Uiso   1.00
C96    C     0.38081   0.03426   0.13159   0.00000  Uiso   1.00
C97    C     0.38433   0.94209   0.29800   0.00000  Uiso   1.00
C98    C     0.32119   0.23836   0.00110   0.00000  Uiso   1.00
C99    C     0.27078   0.25778   0.89184   0.00000  Uiso   1.00
C100   C     0.22482   0.29245   0.98305   0.00000  Uiso   1.00
C101   C     0.13809   0.34974   0.06346   0.00000  Uiso   1.00
C102   C     0.43484   0.23816   0.97759   0.00000  Uiso   1.00
C103   C     0.47998   0.25743   0.84857   0.00000  Uiso   1.00
C104   C     0.52969   0.29193   0.91998   0.00000  Uiso   1.00
C105   C     0.61941   0.34891   0.96390   0.00000  Uiso   1.00
C106   C     0.38465   0.22707   0.28658   0.00000  Uiso   1.00
C107   C     0.38370   0.15680   0.24996   0.00000  Uiso   1.00
C108   C     0.38670   0.11053   0.38791   0.00000  Uiso   1.00
C109   C     0.38518   0.04897   0.32543   0.00000  Uiso   1.00
C110   C     0.32555   0.25304   0.19458   0.00000  Uiso   1.00
C111   C     0.27966   0.28769   0.28597   0.00000  Uiso   1.00
C112   C     0.22919   0.30716   0.17689   0.00000  Uiso   1.00
C113   C     0.43920   0.25284   0.17109   0.00000  Uiso   1.00
C114   C     0.48885   0.28733   0.24271   0.00000  Uiso   1.00
C115   C     0.53406   0.30665   0.11382   0.00000  Uiso   1.00
H116   H     0.37324   0.18860   0.77971   0.00000  Uiso   1.00
H117   H     0.37444   0.06927   0.84402   0.00000  Uiso   1.00
H118   H     0.26743   0.24641   0.74211   0.00000  Uiso   1.00
H119   H     0.47659   0.24605   0.69885   0.00000  Uiso   1.00
H120   H     0.37768   0.94344   0.00067   0.00000  Uiso   1.00
H121   H     0.15204   0.31698   0.78575   0.00000  Uiso   1.00
H122   H     0.59310   0.31622   0.69453   0.00000  Uiso   1.00
H123   H     0.38804   0.23851   0.43723   0.00000  Uiso   1.00
H124   H     0.39007   0.12190   0.53763   0.00000  Uiso   1.00
H125   H     0.28305   0.29905   0.43571   0.00000  Uiso   1.00
H126   H     0.49221   0.29869   0.39245   0.00000  Uiso   1.00
H127   H     0.39036   0.98616   0.56362   0.00000  Uiso   1.00
H128   H     0.16472   0.35970   0.34870   0.00000  Uiso   1.00
H129   H     0.60578   0.35894   0.25749   0.00000  Uiso   1.00
O130   O     0.38506   0.88720   0.33633   0.00000  Uiso   1.00
O131   O     0.08904   0.37727   0.05436   0.00000  Uiso   1.00
O132   O     0.66770   0.37627   0.93468   0.00000  Uiso   1.00
N133   N     0.38040   0.96950   0.11938   0.00000  Uiso   1.00
N134   N     0.16943   0.31872   0.91845   0.00000  Uiso   1.00
N135   N     0.58178   0.31803   0.83316   0.00000  Uiso   1.00
N136   N     0.38722   0.99248   0.42230   0.00000  Uiso   1.00
N137   N     0.17626   0.34171   0.22137   0.00000  Uiso   1.00
N138   N     0.58860   0.34102   0.13608   0.00000  Uiso   1.00
C139   C     0.62337   0.79997   0.43035   0.00000  Uiso   1.00
C140   C     0.62065   0.85788   0.55647   0.00000  Uiso   1.00
C141   C     0.62218   0.91939   0.49378   0.00000  Uiso   1.00
C142   C     0.61919   0.96574   0.63159   0.00000  Uiso   1.00
C143   C     0.61567   0.05791   0.79800   0.00000  Uiso   1.00
C144   C     0.67881   0.76164   0.50110   0.00000  Uiso   1.00
C145   C     0.72922   0.74222   0.39184   0.00000  Uiso   1.00
C146   C     0.77518   0.70755   0.48305   0.00000  Uiso   1.00
C147   C     0.86191   0.65026   0.56346   0.00000  Uiso   1.00
C148   C     0.56516   0.76184   0.47759   0.00000  Uiso   1.00
C149   C     0.52002   0.74257   0.34857   0.00000  Uiso   1.00
C150   C     0.47031   0.70807   0.41998   0.00000  Uiso   1.00
C151   C     0.38059   0.65109   0.46390   0.00000  Uiso   1.00
C152   C     0.61535   0.77293   0.78658   0.00000  Uiso   1.00
C153   C     0.61630   0.84320   0.74996   0.00000  Uiso   1.00
C154   C     0.61330   0.88947   0.88791   0.00000  Uiso   1.00
C155   C     0.61482   0.95103   0.82543   0.00000  Uiso   1.00
C156   C     0.67445   0.74696   0.69458   0.00000  Uiso   1.00
C157   C     0.72034   0.71231   0.78597   0.00000  Uiso   1.00
C158   C     0.77081   0.69284   0.67689   0.00000  Uiso   1.00
C159   C     0.56080   0.74716   0.67109   0.00000  Uiso   1.00
C160   C     0.51115   0.71267   0.74271   0.00000  Uiso   1.00
C161   C     0.46594   0.69335   0.61382   0.00000  Uiso   1.00
H162   H     0.62676   0.81140   0.27971   0.00000  Uiso   1.00
H163   H     0.62556   0.93073   0.34402   0.00000  Uiso   1.00
H164   H     0.73257   0.75359   0.24211   0.00000  Uiso   1.00
H165   H     0.52341   0.75395   0.19885   0.00000  Uiso   1.00
H166   H     0.62232   0.05656   0.50067   0.00000  Uiso   1.00
H167   H     0.84796   0.68302   0.28575   0.00000  Uiso   1.00
H168   H     0.40690   0.68378   0.19453   0.00000  Uiso   1.00
H169   H     0.61196   0.76149   0.93723   0.00000  Uiso   1.00
H170   H     0.60993   0.87810   0.03763   0.00000  Uiso   1.00
H171   H     0.71695   0.70095   0.93571   0.00000  Uiso   1.00
H172   H     0.50779   0.70131   0.89245   0.00000  Uiso   1.00
H173   H     0.60964   0.01384   0.06362   0.00000  Uiso   1.00
H174   H     0.83528   0.64030   0.84870   0.00000  Uiso   1.00
H175   H     0.39422   0.64106   0.75749   0.00000  Uiso   1.00
O176   O     0.61494   0.11280   0.83633   0.00000  Uiso   1.00
O177   O     0.91096   0.62273   0.55436   0.00000  Uiso   1.00
O178   O     0.33230   0.62373   0.43468   0.00000  Uiso   1.00
N179   N     0.61960   0.03050   0.61938   0.00000  Uiso   1.00
N180   N     0.83057   0.68128   0.41845   0.00000  Uiso   1.00
N181   N     0.41822   0.68197   0.33316   0.00000  Uiso   1.00
N182   N     0.61278   0.00752   0.92230   0.00000  Uiso   1.00
N183   N     0.82374   0.65829   0.72137   0.00000  Uiso   1.00
N184   N     0.41140   0.65898   0.63608   0.00000  Uiso   1.00
