data_job_02343
_audit_creation_date              2018-12-19
_audit_creation_method            'Materials Studio'
_symmetry_space_group_name_H-M    'P1'
_symmetry_Int_Tables_number       1
_symmetry_cell_setting            triclinic
loop_
_symmetry_equiv_pos_as_xyz
  x,y,z
_cell_length_a                    20.2160
_cell_length_b                    16.4537
_cell_length_c                    14.3117
_cell_angle_alpha                 90.0000
_cell_angle_beta                  90.0000
_cell_angle_gamma                 90.0000
loop_
_atom_site_label
_atom_site_type_symbol
_atom_site_fract_x
_atom_site_fract_y
_atom_site_fract_z
_atom_site_U_iso_or_equiv
_atom_site_adp_type
_atom_site_occupancy
C1     C     0.04411   0.75333   0.28235   0.00000  Uiso   1.00
C2     C     0.06332   0.82597   0.22200   0.00000  Uiso   1.00
C3     C     0.06091   0.90688   0.24920   0.00000  Uiso   1.00
C4     C     0.08056   0.96432   0.18378   0.00000  Uiso   1.00
C5     C     0.10713   0.08057   0.10365   0.00000  Uiso   1.00
C6     C     0.99128   0.70738   0.22764   0.00000  Uiso   1.00
C7     C     0.92829   0.68857   0.25959   0.00000  Uiso   1.00
C8     C     0.88729   0.64617   0.19892   0.00000  Uiso   1.00
C9     C     0.80202   0.57825   0.12757   0.00000  Uiso   1.00
C10    C     0.10457   0.69796   0.28464   0.00000  Uiso   1.00
C11    C     0.13683   0.67119   0.36452   0.00000  Uiso   1.00
C12    C     0.19121   0.62084   0.35183   0.00000  Uiso   1.00
C13    C     0.28184   0.53829   0.36899   0.00000  Uiso   1.00
C14    C     0.08329   0.71147   0.11781   0.00000  Uiso   1.00
C15    C     0.08460   0.80323   0.13263   0.00000  Uiso   1.00
C16    C     0.10426   0.86057   0.06715   0.00000  Uiso   1.00
C17    C     0.10188   0.94154   0.09424   0.00000  Uiso   1.00
C18    C     0.01256   0.68465   0.13827   0.00000  Uiso   1.00
C19    C     0.97164   0.64226   0.07754   0.00000  Uiso   1.00
C20    C     0.90861   0.62339   0.10938   0.00000  Uiso   1.00
C21    C     0.12585   0.67522   0.19527   0.00000  Uiso   1.00
C22    C     0.18018   0.62489   0.18246   0.00000  Uiso   1.00
C23    C     0.21253   0.59806   0.26230   0.00000  Uiso   1.00
H24    H     0.02754   0.77103   0.35193   0.00000  Uiso   1.00
H25    H     0.04443   0.92445   0.31837   0.00000  Uiso   1.00
H26    H     0.91184   0.70617   0.32876   0.00000  Uiso   1.00
H27    H     0.12035   0.68880   0.43367   0.00000  Uiso   1.00
H28    H     0.07253   0.08452   0.24173   0.00000  Uiso   1.00
H29    H     0.79295   0.62423   0.26365   0.00000  Uiso   1.00
H30    H     0.23264   0.58761   0.48487   0.00000  Uiso   1.00
H31    H     0.09986   0.69377   0.04822   0.00000  Uiso   1.00
H32    H     0.12073   0.84295   0.99799   0.00000  Uiso   1.00
H33    H     0.98813   0.62467   0.00838   0.00000  Uiso   1.00
H34    H     0.19664   0.60730   0.11329   0.00000  Uiso   1.00
H35    H     0.13445   0.01837   0.98170   0.00000  Uiso   1.00
H36    H     0.85487   0.55808   0.00362   0.00000  Uiso   1.00
H37    H     0.29456   0.52146   0.22484   0.00000  Uiso   1.00
O38    O     0.11589   0.15098   0.08414   0.00000  Uiso   1.00
O39    O     0.74910   0.54708   0.11291   0.00000  Uiso   1.00
O40    O     0.32596   0.49904   0.40314   0.00000  Uiso   1.00
N41    N     0.08425   0.04848   0.18743   0.00000  Uiso   1.00
N42    N     0.82286   0.61815   0.20792   0.00000  Uiso   1.00
N43    N     0.23392   0.58389   0.41475   0.00000  Uiso   1.00
N44    N     0.11757   0.01288   0.04751   0.00000  Uiso   1.00
N45    N     0.85618   0.58255   0.06800   0.00000  Uiso   1.00
N46    N     0.26724   0.54830   0.27482   0.00000  Uiso   1.00
C47    C     0.04411   0.25333   0.78235   0.00000  Uiso   1.00
C48    C     0.06332   0.32597   0.72200   0.00000  Uiso   1.00
C49    C     0.06091   0.40688   0.74920   0.00000  Uiso   1.00
C50    C     0.08056   0.46432   0.68378   0.00000  Uiso   1.00
C51    C     0.10713   0.58057   0.60365   0.00000  Uiso   1.00
C52    C     0.99128   0.20738   0.72764   0.00000  Uiso   1.00
C53    C     0.92829   0.18857   0.75959   0.00000  Uiso   1.00
C54    C     0.88729   0.14617   0.69892   0.00000  Uiso   1.00
C55    C     0.80202   0.07825   0.62757   0.00000  Uiso   1.00
C56    C     0.10457   0.19796   0.78464   0.00000  Uiso   1.00
C57    C     0.13683   0.17119   0.86452   0.00000  Uiso   1.00
C58    C     0.19121   0.12084   0.85183   0.00000  Uiso   1.00
C59    C     0.28184   0.03829   0.86899   0.00000  Uiso   1.00
C60    C     0.08329   0.21147   0.61781   0.00000  Uiso   1.00
C61    C     0.08460   0.30323   0.63263   0.00000  Uiso   1.00
C62    C     0.10426   0.36057   0.56715   0.00000  Uiso   1.00
C63    C     0.10188   0.44154   0.59424   0.00000  Uiso   1.00
C64    C     0.01256   0.18465   0.63827   0.00000  Uiso   1.00
C65    C     0.97164   0.14226   0.57754   0.00000  Uiso   1.00
C66    C     0.90861   0.12339   0.60938   0.00000  Uiso   1.00
C67    C     0.12585   0.17522   0.69527   0.00000  Uiso   1.00
C68    C     0.18018   0.12489   0.68246   0.00000  Uiso   1.00
C69    C     0.21253   0.09806   0.76230   0.00000  Uiso   1.00
H70    H     0.02754   0.27103   0.85193   0.00000  Uiso   1.00
H71    H     0.04443   0.42445   0.81837   0.00000  Uiso   1.00
H72    H     0.91184   0.20617   0.82876   0.00000  Uiso   1.00
H73    H     0.12035   0.18880   0.93367   0.00000  Uiso   1.00
H74    H     0.07253   0.58452   0.74173   0.00000  Uiso   1.00
H75    H     0.79295   0.12423   0.76365   0.00000  Uiso   1.00
H76    H     0.23264   0.08761   0.98487   0.00000  Uiso   1.00
H77    H     0.09986   0.19377   0.54822   0.00000  Uiso   1.00
H78    H     0.12073   0.34295   0.49799   0.00000  Uiso   1.00
H79    H     0.98813   0.12467   0.50838   0.00000  Uiso   1.00
H80    H     0.19664   0.10730   0.61329   0.00000  Uiso   1.00
H81    H     0.13445   0.51837   0.48170   0.00000  Uiso   1.00
H82    H     0.85487   0.05808   0.50362   0.00000  Uiso   1.00
H83    H     0.29456   0.02146   0.72484   0.00000  Uiso   1.00
O84    O     0.11589   0.65098   0.58414   0.00000  Uiso   1.00
O85    O     0.74910   0.04708   0.61291   0.00000  Uiso   1.00
O86    O     0.32596   0.99904   0.90314   0.00000  Uiso   1.00
N87    N     0.08425   0.54848   0.68743   0.00000  Uiso   1.00
N88    N     0.82286   0.11815   0.70792   0.00000  Uiso   1.00
N89    N     0.23392   0.08389   0.91475   0.00000  Uiso   1.00
N90    N     0.11757   0.51288   0.54751   0.00000  Uiso   1.00
N91    N     0.85618   0.08255   0.56800   0.00000  Uiso   1.00
N92    N     0.26724   0.04830   0.77482   0.00000  Uiso   1.00
C93    C     0.95589   0.24667   0.28235   0.00000  Uiso   1.00
C94    C     0.93668   0.17403   0.22200   0.00000  Uiso   1.00
C95    C     0.93909   0.09312   0.24920   0.00000  Uiso   1.00
C96    C     0.91944   0.03568   0.18378   0.00000  Uiso   1.00
C97    C     0.89287   0.91943   0.10365   0.00000  Uiso   1.00
C98    C     0.00872   0.29262   0.22764   0.00000  Uiso   1.00
C99    C     0.07171   0.31143   0.25959   0.00000  Uiso   1.00
C100   C     0.11271   0.35383   0.19892   0.00000  Uiso   1.00
C101   C     0.19798   0.42175   0.12757   0.00000  Uiso   1.00
C102   C     0.89543   0.30204   0.28464   0.00000  Uiso   1.00
C103   C     0.86317   0.32881   0.36452   0.00000  Uiso   1.00
C104   C     0.80879   0.37916   0.35183   0.00000  Uiso   1.00
C105   C     0.71816   0.46171   0.36899   0.00000  Uiso   1.00
C106   C     0.91671   0.28853   0.11781   0.00000  Uiso   1.00
C107   C     0.91540   0.19677   0.13263   0.00000  Uiso   1.00
C108   C     0.89574   0.13943   0.06715   0.00000  Uiso   1.00
C109   C     0.89812   0.05846   0.09424   0.00000  Uiso   1.00
C110   C     0.98744   0.31535   0.13827   0.00000  Uiso   1.00
C111   C     0.02836   0.35774   0.07754   0.00000  Uiso   1.00
C112   C     0.09139   0.37661   0.10938   0.00000  Uiso   1.00
C113   C     0.87415   0.32478   0.19527   0.00000  Uiso   1.00
C114   C     0.81982   0.37511   0.18246   0.00000  Uiso   1.00
C115   C     0.78747   0.40194   0.26230   0.00000  Uiso   1.00
H116   H     0.97246   0.22897   0.35193   0.00000  Uiso   1.00
H117   H     0.95557   0.07555   0.31837   0.00000  Uiso   1.00
H118   H     0.08816   0.29383   0.32876   0.00000  Uiso   1.00
H119   H     0.87965   0.31120   0.43367   0.00000  Uiso   1.00
H120   H     0.92747   0.91548   0.24173   0.00000  Uiso   1.00
H121   H     0.20705   0.37577   0.26365   0.00000  Uiso   1.00
H122   H     0.76736   0.41239   0.48487   0.00000  Uiso   1.00
H123   H     0.90014   0.30623   0.04822   0.00000  Uiso   1.00
H124   H     0.87927   0.15705   0.99799   0.00000  Uiso   1.00
H125   H     0.01187   0.37533   0.00838   0.00000  Uiso   1.00
H126   H     0.80336   0.39270   0.11329   0.00000  Uiso   1.00
H127   H     0.86555   0.98163   0.98170   0.00000  Uiso   1.00
H128   H     0.14513   0.44192   0.00362   0.00000  Uiso   1.00
H129   H     0.70544   0.47854   0.22484   0.00000  Uiso   1.00
O130   O     0.88411   0.84902   0.08414   0.00000  Uiso   1.00
O131   O     0.25090   0.45292   0.11291   0.00000  Uiso   1.00
O132   O     0.67404   0.50096   0.40314   0.00000  Uiso   1.00
N133   N     0.91575   0.95152   0.18743   0.00000  Uiso   1.00
N134   N     0.17714   0.38185   0.20792   0.00000  Uiso   1.00
N135   N     0.76608   0.41611   0.41475   0.00000  Uiso   1.00
N136   N     0.88243   0.98712   0.04751   0.00000  Uiso   1.00
N137   N     0.14382   0.41745   0.06800   0.00000  Uiso   1.00
N138   N     0.73276   0.45170   0.27482   0.00000  Uiso   1.00
C139   C     0.95589   0.74667   0.78235   0.00000  Uiso   1.00
C140   C     0.93668   0.67403   0.72200   0.00000  Uiso   1.00
C141   C     0.93909   0.59312   0.74920   0.00000  Uiso   1.00
C142   C     0.91944   0.53568   0.68378   0.00000  Uiso   1.00
C143   C     0.89287   0.41943   0.60365   0.00000  Uiso   1.00
C144   C     0.00872   0.79262   0.72764   0.00000  Uiso   1.00
C145   C     0.07171   0.81143   0.75959   0.00000  Uiso   1.00
C146   C     0.11271   0.85383   0.69892   0.00000  Uiso   1.00
C147   C     0.19798   0.92175   0.62757   0.00000  Uiso   1.00
C148   C     0.89543   0.80204   0.78464   0.00000  Uiso   1.00
C149   C     0.86317   0.82881   0.86452   0.00000  Uiso   1.00
C150   C     0.80879   0.87916   0.85183   0.00000  Uiso   1.00
C151   C     0.71816   0.96171   0.86899   0.00000  Uiso   1.00
C152   C     0.91671   0.78853   0.61781   0.00000  Uiso   1.00
C153   C     0.91540   0.69677   0.63263   0.00000  Uiso   1.00
C154   C     0.89574   0.63943   0.56715   0.00000  Uiso   1.00
C155   C     0.89812   0.55846   0.59424   0.00000  Uiso   1.00
C156   C     0.98744   0.81535   0.63827   0.00000  Uiso   1.00
C157   C     0.02836   0.85774   0.57754   0.00000  Uiso   1.00
C158   C     0.09139   0.87661   0.60938   0.00000  Uiso   1.00
C159   C     0.87415   0.82478   0.69527   0.00000  Uiso   1.00
C160   C     0.81982   0.87511   0.68246   0.00000  Uiso   1.00
C161   C     0.78747   0.90194   0.76230   0.00000  Uiso   1.00
H162   H     0.97246   0.72897   0.85193   0.00000  Uiso   1.00
H163   H     0.95557   0.57555   0.81837   0.00000  Uiso   1.00
H164   H     0.08816   0.79383   0.82876   0.00000  Uiso   1.00
H165   H     0.87965   0.81120   0.93367   0.00000  Uiso   1.00
H166   H     0.92747   0.41548   0.74173   0.00000  Uiso   1.00
H167   H     0.20705   0.87577   0.76365   0.00000  Uiso   1.00
H168   H     0.76736   0.91239   0.98487   0.00000  Uiso   1.00
H169   H     0.90014   0.80623   0.54822   0.00000  Uiso   1.00
H170   H     0.87927   0.65705   0.49799   0.00000  Uiso   1.00
H171   H     0.01187   0.87533   0.50838   0.00000  Uiso   1.00
H172   H     0.80336   0.89270   0.61329   0.00000  Uiso   1.00
H173   H     0.86555   0.48163   0.48170   0.00000  Uiso   1.00
H174   H     0.14513   0.94192   0.50362   0.00000  Uiso   1.00
H175   H     0.70544   0.97854   0.72484   0.00000  Uiso   1.00
O176   O     0.88411   0.34902   0.58414   0.00000  Uiso   1.00
O177   O     0.25090   0.95292   0.61291   0.00000  Uiso   1.00
O178   O     0.67404   0.00096   0.90314   0.00000  Uiso   1.00
N179   N     0.91575   0.45152   0.68743   0.00000  Uiso   1.00
N180   N     0.17714   0.88185   0.70792   0.00000  Uiso   1.00
N181   N     0.76608   0.91611   0.91475   0.00000  Uiso   1.00
N182   N     0.88243   0.48712   0.54751   0.00000  Uiso   1.00
N183   N     0.14382   0.91745   0.56800   0.00000  Uiso   1.00
N184   N     0.73276   0.95170   0.77482   0.00000  Uiso   1.00
C185   C     0.54411   0.74667   0.28235   0.00000  Uiso   1.00
C186   C     0.56332   0.67403   0.22200   0.00000  Uiso   1.00
C187   C     0.56091   0.59312   0.24920   0.00000  Uiso   1.00
C188   C     0.58056   0.53568   0.18378   0.00000  Uiso   1.00
C189   C     0.60713   0.41943   0.10365   0.00000  Uiso   1.00
C190   C     0.49128   0.79262   0.22764   0.00000  Uiso   1.00
C191   C     0.42829   0.81143   0.25959   0.00000  Uiso   1.00
C192   C     0.38729   0.85383   0.19892   0.00000  Uiso   1.00
C193   C     0.30202   0.92175   0.12757   0.00000  Uiso   1.00
C194   C     0.60457   0.80204   0.28464   0.00000  Uiso   1.00
C195   C     0.63683   0.82881   0.36452   0.00000  Uiso   1.00
C196   C     0.69121   0.87916   0.35183   0.00000  Uiso   1.00
C197   C     0.78184   0.96171   0.36899   0.00000  Uiso   1.00
C198   C     0.58329   0.78853   0.11781   0.00000  Uiso   1.00
C199   C     0.58460   0.69677   0.13263   0.00000  Uiso   1.00
C200   C     0.60426   0.63943   0.06715   0.00000  Uiso   1.00
C201   C     0.60188   0.55846   0.09424   0.00000  Uiso   1.00
C202   C     0.51256   0.81535   0.13827   0.00000  Uiso   1.00
C203   C     0.47164   0.85774   0.07754   0.00000  Uiso   1.00
C204   C     0.40861   0.87661   0.10938   0.00000  Uiso   1.00
C205   C     0.62585   0.82478   0.19527   0.00000  Uiso   1.00
C206   C     0.68018   0.87511   0.18246   0.00000  Uiso   1.00
C207   C     0.71253   0.90194   0.26230   0.00000  Uiso   1.00
H208   H     0.52754   0.72897   0.35193   0.00000  Uiso   1.00
H209   H     0.54443   0.57555   0.31837   0.00000  Uiso   1.00
H210   H     0.41184   0.79383   0.32876   0.00000  Uiso   1.00
H211   H     0.62035   0.81120   0.43367   0.00000  Uiso   1.00
H212   H     0.57253   0.41548   0.24173   0.00000  Uiso   1.00
H213   H     0.29295   0.87577   0.26365   0.00000  Uiso   1.00
H214   H     0.73264   0.91239   0.48487   0.00000  Uiso   1.00
H215   H     0.59986   0.80623   0.04822   0.00000  Uiso   1.00
H216   H     0.62073   0.65705   0.99799   0.00000  Uiso   1.00
H217   H     0.48813   0.87533   0.00838   0.00000  Uiso   1.00
H218   H     0.69664   0.89270   0.11329   0.00000  Uiso   1.00
H219   H     0.63445   0.48163   0.98170   0.00000  Uiso   1.00
H220   H     0.35487   0.94192   0.00362   0.00000  Uiso   1.00
H221   H     0.79456   0.97854   0.22484   0.00000  Uiso   1.00
O222   O     0.61589   0.34902   0.08414   0.00000  Uiso   1.00
O223   O     0.24910   0.95292   0.11291   0.00000  Uiso   1.00
O224   O     0.82596   0.00096   0.40314   0.00000  Uiso   1.00
N225   N     0.58425   0.45152   0.18743   0.00000  Uiso   1.00
N226   N     0.32286   0.88185   0.20792   0.00000  Uiso   1.00
N227   N     0.73392   0.91611   0.41475   0.00000  Uiso   1.00
N228   N     0.61757   0.48712   0.04751   0.00000  Uiso   1.00
N229   N     0.35618   0.91745   0.06800   0.00000  Uiso   1.00
N230   N     0.76724   0.95170   0.27482   0.00000  Uiso   1.00
C231   C     0.54411   0.24667   0.78235   0.00000  Uiso   1.00
C232   C     0.56332   0.17403   0.72200   0.00000  Uiso   1.00
C233   C     0.56091   0.09312   0.74920   0.00000  Uiso   1.00
C234   C     0.58056   0.03568   0.68378   0.00000  Uiso   1.00
C235   C     0.60713   0.91943   0.60365   0.00000  Uiso   1.00
C236   C     0.49128   0.29262   0.72764   0.00000  Uiso   1.00
C237   C     0.42829   0.31143   0.75959   0.00000  Uiso   1.00
C238   C     0.38729   0.35383   0.69892   0.00000  Uiso   1.00
C239   C     0.30202   0.42175   0.62757   0.00000  Uiso   1.00
C240   C     0.60457   0.30204   0.78464   0.00000  Uiso   1.00
C241   C     0.63683   0.32881   0.86452   0.00000  Uiso   1.00
C242   C     0.69121   0.37916   0.85183   0.00000  Uiso   1.00
C243   C     0.78184   0.46171   0.86899   0.00000  Uiso   1.00
C244   C     0.58329   0.28853   0.61781   0.00000  Uiso   1.00
C245   C     0.58460   0.19677   0.63263   0.00000  Uiso   1.00
C246   C     0.60426   0.13943   0.56715   0.00000  Uiso   1.00
C247   C     0.60188   0.05846   0.59424   0.00000  Uiso   1.00
C248   C     0.51256   0.31535   0.63827   0.00000  Uiso   1.00
C249   C     0.47164   0.35774   0.57754   0.00000  Uiso   1.00
C250   C     0.40861   0.37661   0.60938   0.00000  Uiso   1.00
C251   C     0.62585   0.32478   0.69527   0.00000  Uiso   1.00
C252   C     0.68018   0.37511   0.68246   0.00000  Uiso   1.00
C253   C     0.71253   0.40194   0.76230   0.00000  Uiso   1.00
H254   H     0.52754   0.22897   0.85193   0.00000  Uiso   1.00
H255   H     0.54443   0.07555   0.81837   0.00000  Uiso   1.00
H256   H     0.41184   0.29383   0.82876   0.00000  Uiso   1.00
H257   H     0.62035   0.31120   0.93367   0.00000  Uiso   1.00
H258   H     0.57253   0.91548   0.74173   0.00000  Uiso   1.00
H259   H     0.29295   0.37577   0.76365   0.00000  Uiso   1.00
H260   H     0.73264   0.41239   0.98487   0.00000  Uiso   1.00
H261   H     0.59986   0.30623   0.54822   0.00000  Uiso   1.00
H262   H     0.62073   0.15705   0.49799   0.00000  Uiso   1.00
H263   H     0.48813   0.37533   0.50838   0.00000  Uiso   1.00
H264   H     0.69664   0.39270   0.61329   0.00000  Uiso   1.00
H265   H     0.63445   0.98163   0.48170   0.00000  Uiso   1.00
H266   H     0.35487   0.44192   0.50362   0.00000  Uiso   1.00
H267   H     0.79456   0.47854   0.72484   0.00000  Uiso   1.00
O268   O     0.61589   0.84902   0.58414   0.00000  Uiso   1.00
O269   O     0.24910   0.45292   0.61291   0.00000  Uiso   1.00
O270   O     0.82596   0.50096   0.90314   0.00000  Uiso   1.00
N271   N     0.58425   0.95152   0.68743   0.00000  Uiso   1.00
N272   N     0.32286   0.38185   0.70792   0.00000  Uiso   1.00
N273   N     0.73392   0.41611   0.91475   0.00000  Uiso   1.00
N274   N     0.61757   0.98712   0.54751   0.00000  Uiso   1.00
N275   N     0.35618   0.41745   0.56800   0.00000  Uiso   1.00
N276   N     0.76724   0.45170   0.77482   0.00000  Uiso   1.00
C277   C     0.45589   0.25333   0.28235   0.00000  Uiso   1.00
C278   C     0.43668   0.32597   0.22200   0.00000  Uiso   1.00
C279   C     0.43909   0.40688   0.24920   0.00000  Uiso   1.00
C280   C     0.41944   0.46432   0.18378   0.00000  Uiso   1.00
C281   C     0.39287   0.58057   0.10365   0.00000  Uiso   1.00
C282   C     0.50872   0.20738   0.22764   0.00000  Uiso   1.00
C283   C     0.57171   0.18857   0.25959   0.00000  Uiso   1.00
C284   C     0.61271   0.14617   0.19892   0.00000  Uiso   1.00
C285   C     0.69798   0.07825   0.12757   0.00000  Uiso   1.00
C286   C     0.39543   0.19796   0.28464   0.00000  Uiso   1.00
C287   C     0.36317   0.17119   0.36452   0.00000  Uiso   1.00
C288   C     0.30879   0.12084   0.35183   0.00000  Uiso   1.00
C289   C     0.21816   0.03829   0.36899   0.00000  Uiso   1.00
C290   C     0.41671   0.21147   0.11781   0.00000  Uiso   1.00
C291   C     0.41540   0.30323   0.13263   0.00000  Uiso   1.00
C292   C     0.39574   0.36057   0.06715   0.00000  Uiso   1.00
C293   C     0.39812   0.44154   0.09424   0.00000  Uiso   1.00
C294   C     0.48744   0.18465   0.13827   0.00000  Uiso   1.00
C295   C     0.52836   0.14226   0.07754   0.00000  Uiso   1.00
C296   C     0.59139   0.12339   0.10938   0.00000  Uiso   1.00
C297   C     0.37415   0.17522   0.19527   0.00000  Uiso   1.00
C298   C     0.31982   0.12489   0.18246   0.00000  Uiso   1.00
C299   C     0.28747   0.09806   0.26230   0.00000  Uiso   1.00
H300   H     0.47246   0.27103   0.35193   0.00000  Uiso   1.00
H301   H     0.45557   0.42445   0.31837   0.00000  Uiso   1.00
H302   H     0.58816   0.20617   0.32876   0.00000  Uiso   1.00
H303   H     0.37965   0.18880   0.43367   0.00000  Uiso   1.00
H304   H     0.42747   0.58452   0.24173   0.00000  Uiso   1.00
H305   H     0.70705   0.12423   0.26365   0.00000  Uiso   1.00
H306   H     0.26736   0.08761   0.48487   0.00000  Uiso   1.00
H307   H     0.40014   0.19377   0.04822   0.00000  Uiso   1.00
H308   H     0.37927   0.34295   0.99799   0.00000  Uiso   1.00
H309   H     0.51187   0.12467   0.00838   0.00000  Uiso   1.00
H310   H     0.30336   0.10730   0.11329   0.00000  Uiso   1.00
H311   H     0.36555   0.51837   0.98170   0.00000  Uiso   1.00
H312   H     0.64513   0.05808   0.00362   0.00000  Uiso   1.00
H313   H     0.20544   0.02146   0.22484   0.00000  Uiso   1.00
O314   O     0.38411   0.65098   0.08414   0.00000  Uiso   1.00
O315   O     0.75090   0.04708   0.11291   0.00000  Uiso   1.00
O316   O     0.17404   0.99904   0.40314   0.00000  Uiso   1.00
N317   N     0.41575   0.54848   0.18743   0.00000  Uiso   1.00
N318   N     0.67714   0.11815   0.20792   0.00000  Uiso   1.00
N319   N     0.26608   0.08389   0.41475   0.00000  Uiso   1.00
N320   N     0.38243   0.51288   0.04751   0.00000  Uiso   1.00
N321   N     0.64382   0.08255   0.06800   0.00000  Uiso   1.00
N322   N     0.23276   0.04830   0.27482   0.00000  Uiso   1.00
C323   C     0.45589   0.75333   0.78235   0.00000  Uiso   1.00
C324   C     0.43668   0.82597   0.72200   0.00000  Uiso   1.00
C325   C     0.43909   0.90688   0.74920   0.00000  Uiso   1.00
C326   C     0.41944   0.96432   0.68378   0.00000  Uiso   1.00
C327   C     0.39287   0.08057   0.60365   0.00000  Uiso   1.00
C328   C     0.50872   0.70738   0.72764   0.00000  Uiso   1.00
C329   C     0.57171   0.68857   0.75959   0.00000  Uiso   1.00
C330   C     0.61271   0.64617   0.69892   0.00000  Uiso   1.00
C331   C     0.69798   0.57825   0.62757   0.00000  Uiso   1.00
C332   C     0.39543   0.69796   0.78464   0.00000  Uiso   1.00
C333   C     0.36317   0.67119   0.86452   0.00000  Uiso   1.00
C334   C     0.30879   0.62084   0.85183   0.00000  Uiso   1.00
C335   C     0.21816   0.53829   0.86899   0.00000  Uiso   1.00
C336   C     0.41671   0.71147   0.61781   0.00000  Uiso   1.00
C337   C     0.41540   0.80323   0.63263   0.00000  Uiso   1.00
C338   C     0.39574   0.86057   0.56715   0.00000  Uiso   1.00
C339   C     0.39812   0.94154   0.59424   0.00000  Uiso   1.00
C340   C     0.48744   0.68465   0.63827   0.00000  Uiso   1.00
C341   C     0.52836   0.64226   0.57754   0.00000  Uiso   1.00
C342   C     0.59139   0.62339   0.60938   0.00000  Uiso   1.00
C343   C     0.37415   0.67522   0.69527   0.00000  Uiso   1.00
C344   C     0.31982   0.62489   0.68246   0.00000  Uiso   1.00
C345   C     0.28747   0.59806   0.76230   0.00000  Uiso   1.00
H346   H     0.47246   0.77103   0.85193   0.00000  Uiso   1.00
H347   H     0.45557   0.92445   0.81837   0.00000  Uiso   1.00
H348   H     0.58816   0.70617   0.82876   0.00000  Uiso   1.00
H349   H     0.37965   0.68880   0.93367   0.00000  Uiso   1.00
H350   H     0.42747   0.08452   0.74173   0.00000  Uiso   1.00
H351   H     0.70705   0.62423   0.76365   0.00000  Uiso   1.00
H352   H     0.26736   0.58761   0.98487   0.00000  Uiso   1.00
H353   H     0.40014   0.69377   0.54822   0.00000  Uiso   1.00
H354   H     0.37927   0.84295   0.49799   0.00000  Uiso   1.00
H355   H     0.51187   0.62467   0.50838   0.00000  Uiso   1.00
H356   H     0.30336   0.60730   0.61329   0.00000  Uiso   1.00
H357   H     0.36555   0.01837   0.48170   0.00000  Uiso   1.00
H358   H     0.64513   0.55808   0.50362   0.00000  Uiso   1.00
H359   H     0.20544   0.52146   0.72484   0.00000  Uiso   1.00
O360   O     0.38411   0.15098   0.58414   0.00000  Uiso   1.00
O361   O     0.75090   0.54708   0.61291   0.00000  Uiso   1.00
O362   O     0.17404   0.49904   0.90314   0.00000  Uiso   1.00
N363   N     0.41575   0.04848   0.68743   0.00000  Uiso   1.00
N364   N     0.67714   0.61815   0.70792   0.00000  Uiso   1.00
N365   N     0.26608   0.58389   0.91475   0.00000  Uiso   1.00
N366   N     0.38243   0.01288   0.54751   0.00000  Uiso   1.00
N367   N     0.64382   0.58255   0.56800   0.00000  Uiso   1.00
N368   N     0.23276   0.54830   0.77482   0.00000  Uiso   1.00
