data_job_06932
_audit_creation_date              2018-12-19
_audit_creation_method            'Materials Studio'
_symmetry_space_group_name_H-M    'P1'
_symmetry_Int_Tables_number       1
_symmetry_cell_setting            triclinic
loop_
_symmetry_equiv_pos_as_xyz
  x,y,z
_cell_length_a                    25.9364
_cell_length_b                    19.6243
_cell_length_c                    17.7602
_cell_angle_alpha                 72.3311
_cell_angle_beta                  98.3520
_cell_angle_gamma                 96.1304
loop_
_atom_site_label
_atom_site_type_symbol
_atom_site_fract_x
_atom_site_fract_y
_atom_site_fract_z
_atom_site_U_iso_or_equiv
_atom_site_adp_type
_atom_site_occupancy
C1     C     0.18100   0.46417   0.59711   0.00000  Uiso   1.00
C2     C     0.23369   0.48754   0.63539   0.00000  Uiso   1.00
C3     C     0.24252   0.54120   0.67262   0.00000  Uiso   1.00
C4     C     0.29353   0.55451   0.70388   0.00000  Uiso   1.00
C5     C     0.36916   0.59676   0.76416   0.00000  Uiso   1.00
C6     C     0.18819   0.47179   0.51116   0.00000  Uiso   1.00
C7     C     0.15876   0.51219   0.44396   0.00000  Uiso   1.00
C8     C     0.17147   0.51222   0.37065   0.00000  Uiso   1.00
C9     C     0.17643   0.52996   0.23808   0.00000  Uiso   1.00
C10    C     0.17245   0.38400   0.63745   0.00000  Uiso   1.00
C11    C     0.12977   0.35059   0.67640   0.00000  Uiso   1.00
C12    C     0.12921   0.27671   0.70940   0.00000  Uiso   1.00
C13    C     0.10973   0.15815   0.77290   0.00000  Uiso   1.00
C14    C     0.25589   0.39238   0.58642   0.00000  Uiso   1.00
C15    C     0.27437   0.44855   0.62957   0.00000  Uiso   1.00
C16    C     0.32538   0.46178   0.66079   0.00000  Uiso   1.00
C17    C     0.33428   0.51545   0.69807   0.00000  Uiso   1.00
C18    C     0.22887   0.43279   0.50535   0.00000  Uiso   1.00
C19    C     0.24162   0.43276   0.43213   0.00000  Uiso   1.00
C20    C     0.21222   0.47316   0.36483   0.00000  Uiso   1.00
C21    C     0.21313   0.34501   0.63164   0.00000  Uiso   1.00
C22    C     0.21263   0.27116   0.66458   0.00000  Uiso   1.00
C23    C     0.16996   0.23765   0.70358   0.00000  Uiso   1.00
H24    H     0.14933   0.49453   0.60163   0.00000  Uiso   1.00
H25    H     0.21103   0.57137   0.67710   0.00000  Uiso   1.00
H26    H     0.12728   0.54235   0.44847   0.00000  Uiso   1.00
H27    H     0.09830   0.38078   0.68089   0.00000  Uiso   1.00
H28    H     0.29738   0.63939   0.75818   0.00000  Uiso   1.00
H29    H     0.12077   0.57818   0.27612   0.00000  Uiso   1.00
H30    H     0.05965   0.23747   0.76620   0.00000  Uiso   1.00
H31    H     0.28756   0.36203   0.58189   0.00000  Uiso   1.00
H32    H     0.35685   0.43160   0.65629   0.00000  Uiso   1.00
H33    H     0.27310   0.40258   0.42766   0.00000  Uiso   1.00
H34    H     0.24411   0.24101   0.66007   0.00000  Uiso   1.00
H35    H     0.41573   0.52594   0.74129   0.00000  Uiso   1.00
H36    H     0.23912   0.46473   0.25922   0.00000  Uiso   1.00
H37    H     0.17800   0.12402   0.74931   0.00000  Uiso   1.00
O38    O     0.39964   0.63084   0.79900   0.00000  Uiso   1.00
O39    O     0.16793   0.55052   0.16655   0.00000  Uiso   1.00
O40    O     0.08775   0.10352   0.80954   0.00000  Uiso   1.00
N41    N     0.31572   0.60313   0.74401   0.00000  Uiso   1.00
N42    N     0.15061   0.54591   0.29331   0.00000  Uiso   1.00
N43    N     0.09346   0.22738   0.75148   0.00000  Uiso   1.00
N44    N     0.37940   0.54209   0.73492   0.00000  Uiso   1.00
N45    N     0.21430   0.48487   0.28422   0.00000  Uiso   1.00
N46    N     0.15715   0.16633   0.74239   0.00000  Uiso   1.00
C47    C     0.63693   0.14473   0.46769   0.00000  Uiso   1.00
C48    C     0.66860   0.21418   0.47055   0.00000  Uiso   1.00
C49    C     0.71642   0.21930   0.51574   0.00000  Uiso   1.00
C50    C     0.73910   0.28775   0.51013   0.00000  Uiso   1.00
C51    C     0.79196   0.38630   0.52206   0.00000  Uiso   1.00
C52    C     0.58339   0.15055   0.49028   0.00000  Uiso   1.00
C53    C     0.55958   0.10217   0.55206   0.00000  Uiso   1.00
C54    C     0.51053   0.11706   0.56306   0.00000  Uiso   1.00
C55    C     0.43110   0.11679   0.60560   0.00000  Uiso   1.00
C56    C     0.62812   0.14652   0.38035   0.00000  Uiso   1.00
C57    C     0.64189   0.09475   0.34969   0.00000  Uiso   1.00
C58    C     0.63049   0.10624   0.26814   0.00000  Uiso   1.00
C59    C     0.62050   0.09972   0.13998   0.00000  Uiso   1.00
C60    C     0.59217   0.25718   0.37737   0.00000  Uiso   1.00
C61    C     0.64429   0.27525   0.42149   0.00000  Uiso   1.00
C62    C     0.66691   0.34372   0.41581   0.00000  Uiso   1.00
C63    C     0.71475   0.34894   0.46098   0.00000  Uiso   1.00
C64    C     0.55909   0.21163   0.44123   0.00000  Uiso   1.00
C65    C     0.51006   0.22659   0.45213   0.00000  Uiso   1.00
C66    C     0.48618   0.17825   0.51392   0.00000  Uiso   1.00
C67    C     0.60381   0.20760   0.33129   0.00000  Uiso   1.00
C68    C     0.59238   0.21917   0.24976   0.00000  Uiso   1.00
C69    C     0.60614   0.16743   0.21899   0.00000  Uiso   1.00
H70    H     0.65585   0.09718   0.50588   0.00000  Uiso   1.00
H71    H     0.73521   0.17202   0.55370   0.00000  Uiso   1.00
H72    H     0.57840   0.05491   0.59001   0.00000  Uiso   1.00
H73    H     0.66070   0.04749   0.38768   0.00000  Uiso   1.00
H74    H     0.81248   0.28194   0.58511   0.00000  Uiso   1.00
H75    H     0.48181   0.03498   0.66165   0.00000  Uiso   1.00
H76    H     0.65537   0.01934   0.23499   0.00000  Uiso   1.00
H77    H     0.57325   0.30473   0.33917   0.00000  Uiso   1.00
H78    H     0.64809   0.39097   0.37784   0.00000  Uiso   1.00
H79    H     0.49126   0.27386   0.41415   0.00000  Uiso   1.00
H80    H     0.57357   0.26644   0.21182   0.00000  Uiso   1.00
H81    H     0.74176   0.45965   0.44237   0.00000  Uiso   1.00
H82    H     0.41109   0.21269   0.51892   0.00000  Uiso   1.00
H83    H     0.58465   0.19705   0.09225   0.00000  Uiso   1.00
O84    O     0.82783   0.42378   0.54220   0.00000  Uiso   1.00
O85    O     0.39400   0.09978   0.64262   0.00000  Uiso   1.00
O86    O     0.62171   0.07926   0.08285   0.00000  Uiso   1.00
N87    N     0.78557   0.31193   0.54619   0.00000  Uiso   1.00
N88    N     0.47642   0.08104   0.61777   0.00000  Uiso   1.00
N89    N     0.63867   0.06641   0.21887   0.00000  Uiso   1.00
N90    N     0.74752   0.40755   0.46939   0.00000  Uiso   1.00
N91    N     0.43836   0.17667   0.54096   0.00000  Uiso   1.00
N92    N     0.60062   0.16204   0.14207   0.00000  Uiso   1.00
C93    C     0.55406   0.58281   0.12927   0.00000  Uiso   1.00
C94    C     0.58392   0.61237   0.19440   0.00000  Uiso   1.00
C95    C     0.59987   0.68379   0.18616   0.00000  Uiso   1.00
C96    C     0.62674   0.69995   0.25279   0.00000  Uiso   1.00
C97    C     0.67153   0.75396   0.34292   0.00000  Uiso   1.00
C98    C     0.58692   0.52556   0.12220   0.00000  Uiso   1.00
C99    C     0.60539   0.52399   0.05326   0.00000  Uiso   1.00
C100   C     0.63477   0.46706   0.05912   0.00000  Uiso   1.00
C101   C     0.68418   0.38628   0.03716   0.00000  Uiso   1.00
C102   C     0.50459   0.54314   0.16234   0.00000  Uiso   1.00
C103   C     0.45384   0.55632   0.12714   0.00000  Uiso   1.00
C104   C     0.41390   0.51417   0.16679   0.00000  Uiso   1.00
C105   C     0.33549   0.46067   0.20714   0.00000  Uiso   1.00
C106   C     0.57339   0.48452   0.26226   0.00000  Uiso   1.00
C107   C     0.59442   0.55898   0.26663   0.00000  Uiso   1.00
C108   C     0.62126   0.57504   0.33329   0.00000  Uiso   1.00
C109   C     0.63726   0.64646   0.32516   0.00000  Uiso   1.00
C110   C     0.59742   0.47218   0.19443   0.00000  Uiso   1.00
C111   C     0.62678   0.41524   0.20040   0.00000  Uiso   1.00
C112   C     0.64529   0.41357   0.13149   0.00000  Uiso   1.00
C113   C     0.51509   0.48975   0.23457   0.00000  Uiso   1.00
C114   C     0.47523   0.44757   0.27428   0.00000  Uiso   1.00
C115   C     0.42442   0.46069   0.23915   0.00000  Uiso   1.00
H116   H     0.54588   0.62437   0.07303   0.00000  Uiso   1.00
H117   H     0.59174   0.72509   0.13025   0.00000  Uiso   1.00
H118   H     0.59725   0.56531   0.99737   0.00000  Uiso   1.00
H119   H     0.44572   0.59764   0.07124   0.00000  Uiso   1.00
H120   H     0.64724   0.81320   0.22553   0.00000  Uiso   1.00
H121   H     0.65883   0.47628   0.94535   0.00000  Uiso   1.00
H122   H     0.33931   0.54445   0.10111   0.00000  Uiso   1.00
H123   H     0.58157   0.44295   0.31849   0.00000  Uiso   1.00
H124   H     0.62939   0.53371   0.38918   0.00000  Uiso   1.00
H125   H     0.63489   0.37393   0.25630   0.00000  Uiso   1.00
H126   H     0.48337   0.40626   0.33017   0.00000  Uiso   1.00
H127   H     0.67779   0.65787   0.43569   0.00000  Uiso   1.00
H128   H     0.68939   0.32095   0.15550   0.00000  Uiso   1.00
H129   H     0.36987   0.38912   0.31127   0.00000  Uiso   1.00
O130   O     0.69334   0.79851   0.37268   0.00000  Uiso   1.00
O131   O     0.70854   0.35648   0.00508   0.00000  Uiso   1.00
O132   O     0.28934   0.44592   0.20944   0.00000  Uiso   1.00
N133   N     0.64786   0.76419   0.26530   0.00000  Uiso   1.00
N134   N     0.65870   0.44919   0.00334   0.00000  Uiso   1.00
N135   N     0.35998   0.51292   0.14896   0.00000  Uiso   1.00
N136   N     0.66430   0.68061   0.37838   0.00000  Uiso   1.00
N137   N     0.67514   0.36561   0.11643   0.00000  Uiso   1.00
N138   N     0.37642   0.42933   0.26205   0.00000  Uiso   1.00
C139   C     0.68727   0.14232   0.92453   0.00000  Uiso   1.00
C140   C     0.73745   0.18128   0.95090   0.00000  Uiso   1.00
C141   C     0.74577   0.20733   0.01640   0.00000  Uiso   1.00
C142   C     0.79437   0.24137   0.03050   0.00000  Uiso   1.00
C143   C     0.86638   0.30066   0.07903   0.00000  Uiso   1.00
C144   C     0.70291   0.07058   0.92139   0.00000  Uiso   1.00
C145   C     0.68217   0.00356   0.96208   0.00000  Uiso   1.00
C146   C     0.70168   0.94442   0.95133   0.00000  Uiso   1.00
C147   C     0.72004   0.83185   0.95401   0.00000  Uiso   1.00
C148   C     0.67047   0.18478   0.83861   0.00000  Uiso   1.00
C149   C     0.62246   0.21376   0.80968   0.00000  Uiso   1.00
C150   C     0.61466   0.25076   0.72921   0.00000  Uiso   1.00
C151   C     0.58266   0.31551   0.60335   0.00000  Uiso   1.00
C152   C     0.75879   0.15646   0.83306   0.00000  Uiso   1.00
C153   C     0.77629   0.18895   0.90122   0.00000  Uiso   1.00
C154   C     0.82489   0.22297   0.91521   0.00000  Uiso   1.00
C155   C     0.83328   0.24907   0.98073   0.00000  Uiso   1.00
C156   C     0.74175   0.07826   0.87172   0.00000  Uiso   1.00
C157   C     0.76129   0.01920   0.86089   0.00000  Uiso   1.00
C158   C     0.74060   0.95211   0.90156   0.00000  Uiso   1.00
C159   C     0.70931   0.19246   0.78893   0.00000  Uiso   1.00
C160   C     0.70159   0.22941   0.70849   0.00000  Uiso   1.00
C161   C     0.65358   0.25845   0.67944   0.00000  Uiso   1.00
H162   H     0.65703   0.13633   0.96320   0.00000  Uiso   1.00
H163   H     0.71570   0.20137   0.05484   0.00000  Uiso   1.00
H164   H     0.65211   0.99763   0.00052   0.00000  Uiso   1.00
H165   H     0.59241   0.20781   0.84814   0.00000  Uiso   1.00
H166   H     0.79788   0.27683   0.13455   0.00000  Uiso   1.00
H167   H     0.66378   0.84725   0.01999   0.00000  Uiso   1.00
H168   H     0.53790   0.29045   0.69867   0.00000  Uiso   1.00
H169   H     0.78903   0.16243   0.79438   0.00000  Uiso   1.00
H170   H     0.85494   0.22890   0.87676   0.00000  Uiso   1.00
H171   H     0.79135   0.02516   0.82244   0.00000  Uiso   1.00
H172   H     0.73165   0.23534   0.67006   0.00000  Uiso   1.00
H173   H     0.91090   0.29918   0.99001   0.00000  Uiso   1.00
H174   H     0.77679   0.86959   0.87545   0.00000  Uiso   1.00
H175   H     0.65091   0.31279   0.55413   0.00000  Uiso   1.00
O176   O     0.89537   0.33123   0.11953   0.00000  Uiso   1.00
O177   O     0.71943   0.76764   0.96922   0.00000  Uiso   1.00
O178   O     0.55428   0.34911   0.54766   0.00000  Uiso   1.00
N179   N     0.81543   0.27298   0.08922   0.00000  Uiso   1.00
N180   N     0.69006   0.87134   0.98212   0.00000  Uiso   1.00
N181   N     0.57237   0.28568   0.68171   0.00000  Uiso   1.00
N182   N     0.87624   0.28500   0.01144   0.00000  Uiso   1.00
N183   N     0.75087   0.88337   0.90435   0.00000  Uiso   1.00
N184   N     0.63318   0.29771   0.60393   0.00000  Uiso   1.00
C185   C     0.14794   0.99113   0.64244   0.00000  Uiso   1.00
C186   C     0.19544   0.00942   0.69605   0.00000  Uiso   1.00
C187   C     0.23262   0.06570   0.67358   0.00000  Uiso   1.00
C188   C     0.27312   0.07344   0.73138   0.00000  Uiso   1.00
C189   C     0.34638   0.10899   0.80285   0.00000  Uiso   1.00
C190   C     0.10055   0.99133   0.68411   0.00000  Uiso   1.00
C191   C     0.05794   0.03239   0.65160   0.00000  Uiso   1.00
C192   C     0.01857   0.02489   0.69935   0.00000  Uiso   1.00
C193   C     0.94449   0.03231   0.75227   0.00000  Uiso   1.00
C194   C     0.15180   0.91348   0.64488   0.00000  Uiso   1.00
C195   C     0.15228   0.88909   0.57938   0.00000  Uiso   1.00
C196   C     0.15604   0.81604   0.59410   0.00000  Uiso   1.00
C197   C     0.16155   0.70260   0.58611   0.00000  Uiso   1.00
C198   C     0.15375   0.90478   0.78505   0.00000  Uiso   1.00
C199   C     0.19859   0.96252   0.77351   0.00000  Uiso   1.00
C200   C     0.23905   0.97016   0.83136   0.00000  Uiso   1.00
C201   C     0.27628   0.02645   0.80898   0.00000  Uiso   1.00
C202   C     0.10370   0.94443   0.76157   0.00000  Uiso   1.00
C203   C     0.06438   0.93685   0.80938   0.00000  Uiso   1.00
C204   C     0.02173   0.97790   0.77695   0.00000  Uiso   1.00
C205   C     0.15496   0.86658   0.72234   0.00000  Uiso   1.00
C206   C     0.15871   0.79355   0.73717   0.00000  Uiso   1.00
C207   C     0.15920   0.76905   0.67170   0.00000  Uiso   1.00
H208   H     0.14547   0.02765   0.58213   0.00000  Uiso   1.00
H209   H     0.23016   0.10199   0.61363   0.00000  Uiso   1.00
H210   H     0.05551   0.06868   0.59165   0.00000  Uiso   1.00
H211   H     0.14984   0.92540   0.51945   0.00000  Uiso   1.00
H212   H     0.32543   0.16375   0.68272   0.00000  Uiso   1.00
H213   H     0.95717   0.09349   0.63636   0.00000  Uiso   1.00
H214   H     0.15606   0.79135   0.48411   0.00000  Uiso   1.00
H215   H     0.15620   0.86826   0.84535   0.00000  Uiso   1.00
H216   H     0.24148   0.93386   0.89130   0.00000  Uiso   1.00
H217   H     0.06683   0.90055   0.86932   0.00000  Uiso   1.00
H218   H     0.16116   0.75727   0.79712   0.00000  Uiso   1.00
H219   H     0.33462   0.02729   0.90808   0.00000  Uiso   1.00
H220   H     0.96635   0.95702   0.86173   0.00000  Uiso   1.00
H221   H     0.16525   0.65489   0.70948   0.00000  Uiso   1.00
O222   O     0.38592   0.14156   0.82088   0.00000  Uiso   1.00
O223   O     0.90277   0.04937   0.76006   0.00000  Uiso   1.00
O224   O     0.16372   0.65298   0.56031   0.00000  Uiso   1.00
N225   N     0.31589   0.12262   0.72945   0.00000  Uiso   1.00
N226   N     0.97159   0.05694   0.68611   0.00000  Uiso   1.00
N227   N     0.15753   0.77447   0.54377   0.00000  Uiso   1.00
N228   N     0.32084   0.04919   0.85072   0.00000  Uiso   1.00
N229   N     0.97654   0.98351   0.80738   0.00000  Uiso   1.00
N230   N     0.16248   0.70104   0.66504   0.00000  Uiso   1.00
C231   C     0.99628   0.67138   0.98647   0.00000  Uiso   1.00
C232   C     0.02187   0.72746   0.02610   0.00000  Uiso   1.00
C233   C     0.06377   0.71749   0.08572   0.00000  Uiso   1.00
C234   C     0.08150   0.77542   0.11413   0.00000  Uiso   1.00
C235   C     0.12481   0.85254   0.18022   0.00000  Uiso   1.00
C236   C     0.99890   0.70481   0.89748   0.00000  Uiso   1.00
C237   C     0.02148   0.67577   0.84896   0.00000  Uiso   1.00
C238   C     0.01987   0.71462   0.76910   0.00000  Uiso   1.00
C239   C     0.02748   0.75654   0.63549   0.00000  Uiso   1.00
C240   C     0.93859   0.66453   0.99777   0.00000  Uiso   1.00
C241   C     0.91045   0.60164   0.03355   0.00000  Uiso   1.00
C242   C     0.85805   0.60658   0.03812   0.00000  Uiso   1.00
C243   C     0.77202   0.58598   0.06023   0.00000  Uiso   1.00
C244   C     0.95326   0.79199   0.93092   0.00000  Uiso   1.00
C245   C     0.99850   0.79297   0.99592   0.00000  Uiso   1.00
C246   C     0.01617   0.85093   0.02426   0.00000  Uiso   1.00
C247   C     0.05809   0.84104   0.08391   0.00000  Uiso   1.00
C248   C     0.97553   0.77031   0.86730   0.00000  Uiso   1.00
C249   C     0.97388   0.80921   0.78750   0.00000  Uiso   1.00
C250   C     0.99646   0.78025   0.73887   0.00000  Uiso   1.00
C251   C     0.91522   0.73005   0.96760   0.00000  Uiso   1.00
C252   C     0.86285   0.73508   0.97210   0.00000  Uiso   1.00
C253   C     0.83464   0.67221   0.00789   0.00000  Uiso   1.00
H254   H     0.01448   0.62038   0.00996   0.00000  Uiso   1.00
H255   H     0.08185   0.66679   0.10905   0.00000  Uiso   1.00
H256   H     0.03956   0.62507   0.87232   0.00000  Uiso   1.00
H257   H     0.92855   0.55096   0.05690   0.00000  Uiso   1.00
H258   H     0.14626   0.74713   0.20558   0.00000  Uiso   1.00
H259   H     0.05707   0.65917   0.70643   0.00000  Uiso   1.00
H260   H     0.82298   0.50287   0.09563   0.00000  Uiso   1.00
H261   H     0.93506   0.84300   0.90743   0.00000  Uiso   1.00
H262   H     0.99808   0.90162   0.00090   0.00000  Uiso   1.00
H263   H     0.95579   0.85991   0.76417   0.00000  Uiso   1.00
H264   H     0.84478   0.78579   0.94874   0.00000  Uiso   1.00
H265   H     0.07826   0.93773   0.11780   0.00000  Uiso   1.00
H266   H     0.98907   0.84976   0.61864   0.00000  Uiso   1.00
H267   H     0.75499   0.69347   0.00785   0.00000  Uiso   1.00
O268   O     0.15516   0.87699   0.22500   0.00000  Uiso   1.00
O269   O     0.03814   0.76157   0.57013   0.00000  Uiso   1.00
O270   O     0.73103   0.55652   0.08077   0.00000  Uiso   1.00
N271   N     0.12160   0.78394   0.17210   0.00000  Uiso   1.00
N272   N     0.03822   0.70170   0.70543   0.00000  Uiso   1.00
N273   N     0.81937   0.55558   0.06929   0.00000  Uiso   1.00
N274   N     0.08501   0.88650   0.12487   0.00000  Uiso   1.00
N275   N     0.00164   0.80426   0.65819   0.00000  Uiso   1.00
N276   N     0.78278   0.65814   0.02205   0.00000  Uiso   1.00
C277   C     0.93818   0.60908   0.27584   0.00000  Uiso   1.00
C278   C     0.89675   0.54839   0.27274   0.00000  Uiso   1.00
C279   C     0.89964   0.49515   0.23722   0.00000  Uiso   1.00
C280   C     0.85769   0.44446   0.24080   0.00000  Uiso   1.00
C281   C     0.79995   0.34982   0.23028   0.00000  Uiso   1.00
C282   C     0.95266   0.60363   0.36372   0.00000  Uiso   1.00
C283   C     0.00255   0.59684   0.40469   0.00000  Uiso   1.00
C284   C     0.00767   0.59267   0.48485   0.00000  Uiso   1.00
C285   C     0.03673   0.58384   0.61556   0.00000  Uiso   1.00
C286   C     0.91057   0.67841   0.23871   0.00000  Uiso   1.00
C287   C     0.92508   0.73451   0.17457   0.00000  Uiso   1.00
C288   C     0.89476   0.79331   0.14949   0.00000  Uiso   1.00
C289   C     0.85848   0.90059   0.08609   0.00000  Uiso   1.00
C290   C     0.85855   0.61374   0.34536   0.00000  Uiso   1.00
C291   C     0.85350   0.55092   0.31050   0.00000  Uiso   1.00
C292   C     0.81154   0.50030   0.31413   0.00000  Uiso   1.00
C293   C     0.81436   0.44700   0.27862   0.00000  Uiso   1.00
C294   C     0.90941   0.60616   0.40148   0.00000  Uiso   1.00
C295   C     0.91445   0.60200   0.48160   0.00000  Uiso   1.00
C296   C     0.96434   0.59520   0.52267   0.00000  Uiso   1.00
C297   C     0.86731   0.68094   0.27646   0.00000  Uiso   1.00
C298   C     0.83698   0.73967   0.25148   0.00000  Uiso   1.00
C299   C     0.85144   0.79585   0.18732   0.00000  Uiso   1.00
H300   H     0.97185   0.60711   0.24645   0.00000  Uiso   1.00
H301   H     0.93312   0.49320   0.20801   0.00000  Uiso   1.00
H302   H     0.03601   0.59489   0.37545   0.00000  Uiso   1.00
H303   H     0.95855   0.73253   0.14537   0.00000  Uiso   1.00
H304   H     0.87110   0.36802   0.18207   0.00000  Uiso   1.00
H305   H     0.08807   0.58246   0.53512   0.00000  Uiso   1.00
H306   H     0.92473   0.87271   0.04994   0.00000  Uiso   1.00
H307   H     0.82488   0.61571   0.37476   0.00000  Uiso   1.00
H308   H     0.77807   0.50228   0.34336   0.00000  Uiso   1.00
H309   H     0.88097   0.60397   0.51080   0.00000  Uiso   1.00
H310   H     0.80351   0.74161   0.28071   0.00000  Uiso   1.00
H311   H     0.74527   0.37538   0.29193   0.00000  Uiso   1.00
H312   H     0.96223   0.58983   0.64497   0.00000  Uiso   1.00
H313   H     0.79889   0.88007   0.15980   0.00000  Uiso   1.00
O314   O     0.78005   0.29691   0.21405   0.00000  Uiso   1.00
O315   O     0.06471   0.57826   0.67722   0.00000  Uiso   1.00
O316   O     0.85041   0.95906   0.04069   0.00000  Uiso   1.00
N317   N     0.84791   0.38532   0.21222   0.00000  Uiso   1.00
N318   N     0.05076   0.58580   0.54230   0.00000  Uiso   1.00
N319   N     0.89805   0.85717   0.08872   0.00000  Uiso   1.00
N320   N     0.78019   0.38929   0.27133   0.00000  Uiso   1.00
N321   N     0.98304   0.58977   0.60141   0.00000  Uiso   1.00
N322   N     0.83034   0.86114   0.14783   0.00000  Uiso   1.00
C323   C     0.37404   0.90340   0.46067   0.00000  Uiso   1.00
C324   C     0.33453   0.84320   0.44846   0.00000  Uiso   1.00
C325   C     0.28732   0.85196   0.39967   0.00000  Uiso   1.00
C326   C     0.25668   0.79015   0.39660   0.00000  Uiso   1.00
C327   C     0.19289   0.70703   0.37089   0.00000  Uiso   1.00
C328   C     0.42545   0.88766   0.43922   0.00000  Uiso   1.00
C329   C     0.45469   0.93380   0.38268   0.00000  Uiso   1.00
C330   C     0.50060   0.90941   0.37184   0.00000  Uiso   1.00
C331   C     0.57799   0.89534   0.33183   0.00000  Uiso   1.00
C332   C     0.38239   0.89345   0.55004   0.00000  Uiso   1.00
C333   C     0.37544   0.94446   0.58668   0.00000  Uiso   1.00
C334   C     0.38510   0.92495   0.66914   0.00000  Uiso   1.00
C335   C     0.39564   0.91985   0.80119   0.00000  Uiso   1.00
C336   C     0.40358   0.77805   0.54197   0.00000  Uiso   1.00
C337   C     0.35057   0.77512   0.49262   0.00000  Uiso   1.00
C338   C     0.32000   0.71328   0.48962   0.00000  Uiso   1.00
C339   C     0.27275   0.72194   0.44084   0.00000  Uiso   1.00
C340   C     0.44150   0.81958   0.48338   0.00000  Uiso   1.00
C341   C     0.48737   0.79512   0.47263   0.00000  Uiso   1.00
C342   C     0.51667   0.84121   0.41608   0.00000  Uiso   1.00
C343   C     0.39843   0.82536   0.59420   0.00000  Uiso   1.00
C344   C     0.40812   0.80577   0.67662   0.00000  Uiso   1.00
C345   C     0.40118   0.85674   0.71338   0.00000  Uiso   1.00
H346   H     0.36156   0.95641   0.42629   0.00000  Uiso   1.00
H347   H     0.27492   0.90466   0.36550   0.00000  Uiso   1.00
H348   H     0.44227   0.98649   0.34852   0.00000  Uiso   1.00
H349   H     0.36303   0.99714   0.55248   0.00000  Uiso   1.00
H350   H     0.18595   0.81726   0.31756   0.00000  Uiso   1.00
H351   H     0.53883   0.98981   0.28177   0.00000  Uiso   1.00
H352   H     0.37173   0.01227   0.71187   0.00000  Uiso   1.00
H353   H     0.41607   0.72505   0.57635   0.00000  Uiso   1.00
H354   H     0.33242   0.66060   0.52380   0.00000  Uiso   1.00
H355   H     0.49977   0.74243   0.50681   0.00000  Uiso   1.00
H356   H     0.42053   0.75308   0.71078   0.00000  Uiso   1.00
H357   H     0.23262   0.61917   0.44604   0.00000  Uiso   1.00
H358   H     0.58550   0.79172   0.41024   0.00000  Uiso   1.00
H359   H     0.41840   0.81418   0.84034   0.00000  Uiso   1.00
O360   O     0.15328   0.67999   0.34450   0.00000  Uiso   1.00
O361   O     0.61625   0.90638   0.29755   0.00000  Uiso   1.00
O362   O     0.39702   0.93585   0.86183   0.00000  Uiso   1.00
N363   N     0.20841   0.77948   0.35502   0.00000  Uiso   1.00
N364   N     0.53832   0.94080   0.32155   0.00000  Uiso   1.00
N365   N     0.38211   0.96181   0.72365   0.00000  Uiso   1.00
N366   N     0.23352   0.67289   0.42415   0.00000  Uiso   1.00
N367   N     0.56344   0.83421   0.39068   0.00000  Uiso   1.00
N368   N     0.40723   0.85522   0.79279   0.00000  Uiso   1.00
C369   C     0.55257   0.41573   0.81589   0.00000  Uiso   1.00
C370   C     0.51187   0.39178   0.75635   0.00000  Uiso   1.00
C371   C     0.47644   0.33264   0.77432   0.00000  Uiso   1.00
C372   C     0.44239   0.31978   0.71144   0.00000  Uiso   1.00
C373   C     0.37895   0.27580   0.63086   0.00000  Uiso   1.00
C374   C     0.54243   0.49305   0.80714   0.00000  Uiso   1.00
C375   C     0.53270   0.51905   0.86782   0.00000  Uiso   1.00
C376   C     0.52438   0.59145   0.84770   0.00000  Uiso   1.00
C377   C     0.50843   0.70470   0.84598   0.00000  Uiso   1.00
C378   C     0.60516   0.41882   0.78574   0.00000  Uiso   1.00
C379   C     0.64818   0.38243   0.82845   0.00000  Uiso   1.00
C380   C     0.69269   0.39235   0.79032   0.00000  Uiso   1.00
C381   C     0.77414   0.39034   0.75539   0.00000  Uiso   1.00
C382   C     0.55511   0.49808   0.67224   0.00000  Uiso   1.00
C383   C     0.51324   0.43651   0.67832   0.00000  Uiso   1.00
C384   C     0.47924   0.42374   0.61540   0.00000  Uiso   1.00
C385   C     0.44377   0.36459   0.63328   0.00000  Uiso   1.00
C386   C     0.54380   0.53777   0.72912   0.00000  Uiso   1.00
C387   C     0.53550   0.61015   0.70890   0.00000  Uiso   1.00
C388   C     0.52576   0.63626   0.76953   0.00000  Uiso   1.00
C389   C     0.60654   0.46354   0.70772   0.00000  Uiso   1.00
C390   C     0.65098   0.47353   0.66952   0.00000  Uiso   1.00
C391   C     0.69406   0.43715   0.71216   0.00000  Uiso   1.00
H392   H     0.55150   0.38092   0.87663   0.00000  Uiso   1.00
H393   H     0.47538   0.29804   0.83471   0.00000  Uiso   1.00
H394   H     0.53164   0.48442   0.92820   0.00000  Uiso   1.00
H395   H     0.64710   0.34782   0.88883   0.00000  Uiso   1.00
H396   H     0.39158   0.22589   0.75384   0.00000  Uiso   1.00
H397   H     0.51022   0.61890   0.95096   0.00000  Uiso   1.00
H398   H     0.75370   0.33084   0.86794   0.00000  Uiso   1.00
H399   H     0.55618   0.53290   0.61150   0.00000  Uiso   1.00
H400   H     0.48031   0.45836   0.55502   0.00000  Uiso   1.00
H401   H     0.53657   0.64475   0.64851   0.00000  Uiso   1.00
H402   H     0.65203   0.50814   0.60914   0.00000  Uiso   1.00
H403   H     0.39558   0.35602   0.52683   0.00000  Uiso   1.00
H404   H     0.51423   0.74903   0.72396   0.00000  Uiso   1.00
H405   H     0.75770   0.46097   0.64094   0.00000  Uiso   1.00
O406   O     0.34358   0.23919   0.60797   0.00000  Uiso   1.00
O407   O     0.49924   0.75480   0.86659   0.00000  Uiso   1.00
O408   O     0.81868   0.37688   0.75768   0.00000  Uiso   1.00
N409   N     0.40294   0.26674   0.70816   0.00000  Uiso   1.00
N410   N     0.51386   0.63417   0.89245   0.00000  Uiso   1.00
N411   N     0.74149   0.36488   0.81485   0.00000  Uiso   1.00
N412   N     0.40510   0.33676   0.58601   0.00000  Uiso   1.00
N413   N     0.51601   0.70419   0.77030   0.00000  Uiso   1.00
N414   N     0.74365   0.43490   0.69270   0.00000  Uiso   1.00
C415   C     0.45361   0.79818   0.09270   0.00000  Uiso   1.00
C416   C     0.40548   0.77876   0.04097   0.00000  Uiso   1.00
C417   C     0.40544   0.74597   0.98185   0.00000  Uiso   1.00
C418   C     0.35734   0.73272   0.94121   0.00000  Uiso   1.00
C419   C     0.28967   0.69972   0.85813   0.00000  Uiso   1.00
C420   C     0.45323   0.87838   0.08108   0.00000  Uiso   1.00
C421   C     0.49333   0.92936   0.05569   0.00000  Uiso   1.00
C422   C     0.48543   0.99997   0.04883   0.00000  Uiso   1.00
C423   C     0.49190   0.12163   0.02808   0.00000  Uiso   1.00
C424   C     0.44364   0.76122   0.17864   0.00000  Uiso   1.00
C425   C     0.47569   0.71371   0.23531   0.00000  Uiso   1.00
C426   C     0.45972   0.68569   0.31060   0.00000  Uiso   1.00
C427   C     0.45130   0.62545   0.44133   0.00000  Uiso   1.00
C428   C     0.36827   0.83293   0.12567   0.00000  Uiso   1.00
C429   C     0.35913   0.79764   0.05887   0.00000  Uiso   1.00
C430   C     0.31102   0.78442   0.01832   0.00000  Uiso   1.00
C431   C     0.31091   0.75162   0.95915   0.00000  Uiso   1.00
C432   C     0.40688   0.89726   0.09898   0.00000  Uiso   1.00
C433   C     0.39892   0.96781   0.09216   0.00000  Uiso   1.00
C434   C     0.43900   0.01888   0.06677   0.00000  Uiso   1.00
C435   C     0.39729   0.78010   0.19655   0.00000  Uiso   1.00
C436   C     0.38127   0.75216   0.27177   0.00000  Uiso   1.00
C437   C     0.41329   0.70460   0.32853   0.00000  Uiso   1.00
H438   H     0.48969   0.78349   0.07876   0.00000  Uiso   1.00
H439   H     0.44132   0.73138   0.96800   0.00000  Uiso   1.00
H440   H     0.52920   0.91473   0.04185   0.00000  Uiso   1.00
H441   H     0.51155   0.69911   0.22143   0.00000  Uiso   1.00
H442   H     0.36724   0.68195   0.85308   0.00000  Uiso   1.00
H443   H     0.55255   0.06856   0.00882   0.00000  Uiso   1.00
H444   H     0.51534   0.61389   0.38750   0.00000  Uiso   1.00
H445   H     0.33219   0.84763   0.13961   0.00000  Uiso   1.00
H446   H     0.27516   0.79904   0.03219   0.00000  Uiso   1.00
H447   H     0.36305   0.98240   0.10603   0.00000  Uiso   1.00
H448   H     0.34540   0.76678   0.28561   0.00000  Uiso   1.00
H449   H     0.23238   0.73687   0.90517   0.00000  Uiso   1.00
H450   H     0.41770   0.12349   0.06091   0.00000  Uiso   1.00
H451   H     0.38049   0.66881   0.43959   0.00000  Uiso   1.00
O452   O     0.26514   0.67631   0.80735   0.00000  Uiso   1.00
O453   O     0.50827   0.18353   0.01168   0.00000  Uiso   1.00
O454   O     0.45945   0.58700   0.50849   0.00000  Uiso   1.00
N455   N     0.34333   0.70153   0.88010   0.00000  Uiso   1.00
N456   N     0.51658   0.06299   0.02568   0.00000  Uiso   1.00
N457   N     0.48180   0.63793   0.37972   0.00000  Uiso   1.00
N458   N     0.27076   0.73109   0.90813   0.00000  Uiso   1.00
N459   N     0.44401   0.09255   0.05371   0.00000  Uiso   1.00
N460   N     0.40924   0.66748   0.40775   0.00000  Uiso   1.00
C461   C     0.88746   0.99540   0.40501   0.00000  Uiso   1.00
C462   C     0.84664   0.98974   0.33576   0.00000  Uiso   1.00
C463   C     0.80074   0.94609   0.34163   0.00000  Uiso   1.00
C464   C     0.76855   0.94861   0.27132   0.00000  Uiso   1.00
C465   C     0.70315   0.93302   0.17497   0.00000  Uiso   1.00
C466   C     0.93894   0.97827   0.38511   0.00000  Uiso   1.00
C467   C     0.97065   0.92498   0.43249   0.00000  Uiso   1.00
C468   C     0.01615   0.91785   0.40371   0.00000  Uiso   1.00
C469   C     0.09407   0.88448   0.38401   0.00000  Uiso   1.00
C470   C     0.89357   0.07443   0.40142   0.00000  Uiso   1.00
C471   C     0.88714   0.10200   0.46252   0.00000  Uiso   1.00
C472   C     0.89446   0.17584   0.44748   0.00000  Uiso   1.00
C473   C     0.90194   0.29177   0.45310   0.00000  Uiso   1.00
C474   C     0.91192   0.07749   0.26969   0.00000  Uiso   1.00
C475   C     0.85993   0.03433   0.26226   0.00000  Uiso   1.00
C476   C     0.82779   0.03691   0.19192   0.00000  Uiso   1.00
C477   C     0.78185   0.99328   0.19768   0.00000  Uiso   1.00
C478   C     0.95222   0.02285   0.31162   0.00000  Uiso   1.00
C479   C     0.99770   0.01580   0.28277   0.00000  Uiso   1.00
C480   C     0.02946   0.96252   0.33008   0.00000  Uiso   1.00
C481   C     0.90685   0.11902   0.32792   0.00000  Uiso   1.00
C482   C     0.91419   0.19282   0.31280   0.00000  Uiso   1.00
C483   C     0.90777   0.22050   0.37385   0.00000  Uiso   1.00
H484   H     0.87713   0.96068   0.46223   0.00000  Uiso   1.00
H485   H     0.79048   0.91159   0.39852   0.00000  Uiso   1.00
H486   H     0.96036   0.89049   0.48936   0.00000  Uiso   1.00
H487   H     0.87686   0.06748   0.51938   0.00000  Uiso   1.00
H488   H     0.70028   0.87680   0.29547   0.00000  Uiso   1.00
H489   H     0.05849   0.83233   0.48703   0.00000  Uiso   1.00
H490   H     0.88242   0.20555   0.55034   0.00000  Uiso   1.00
H491   H     0.92226   0.11220   0.21247   0.00000  Uiso   1.00
H492   H     0.83808   0.07142   0.13505   0.00000  Uiso   1.00
H493   H     0.00796   0.05032   0.22589   0.00000  Uiso   1.00
H494   H     0.92447   0.22731   0.25591   0.00000  Uiso   1.00
H495   H     0.73892   0.00653   0.08163   0.00000  Uiso   1.00
H496   H     0.09713   0.96206   0.27318   0.00000  Uiso   1.00
H497   H     0.92106   0.33528   0.33649   0.00000  Uiso   1.00
O498   O     0.66342   0.91209   0.14213   0.00000  Uiso   1.00
O499   O     0.13338   0.85375   0.39345   0.00000  Uiso   1.00
O500   O     0.90238   0.34341   0.47650   0.00000  Uiso   1.00
N501   N     0.72092   0.91294   0.25577   0.00000  Uiso   1.00
N502   N     0.05582   0.87135   0.43486   0.00000  Uiso   1.00
N503   N     0.89123   0.22028   0.49405   0.00000  Uiso   1.00
N504   N     0.74171   0.98275   0.14070   0.00000  Uiso   1.00
N505   N     0.07661   0.94116   0.31979   0.00000  Uiso   1.00
N506   N     0.91202   0.29009   0.37898   0.00000  Uiso   1.00
C507   C     0.05242   0.37883   0.87705   0.00000  Uiso   1.00
C508   C     0.01346   0.33072   0.84001   0.00000  Uiso   1.00
C509   C     0.97804   0.35375   0.77250   0.00000  Uiso   1.00
C510   C     0.94574   0.30134   0.74814   0.00000  Uiso   1.00
C511   C     0.88477   0.23771   0.68430   0.00000  Uiso   1.00
C512   C     0.04154   0.36170   0.96318   0.00000  Uiso   1.00
C513   C     0.02973   0.41079   0.99923   0.00000  Uiso   1.00
C514   C     0.02107   0.38446   0.07856   0.00000  Uiso   1.00
C515   C     0.00373   0.36894   0.20596   0.00000  Uiso   1.00
C516   C     0.10610   0.35223   0.88060   0.00000  Uiso   1.00
C517   C     0.14858   0.39335   0.84723   0.00000  Uiso   1.00
C518   C     0.19429   0.35905   0.85705   0.00000  Uiso   1.00
C519   C     0.27719   0.32882   0.85623   0.00000  Uiso   1.00
C520   C     0.05805   0.24479   0.95385   0.00000  Uiso   1.00
C521   C     0.01652   0.25791   0.88173   0.00000  Uiso   1.00
C522   C     0.98427   0.20545   0.85746   0.00000  Uiso   1.00
C523   C     0.94880   0.22840   0.78992   0.00000  Uiso   1.00
C524   C     0.04460   0.28889   0.00490   0.00000  Uiso   1.00
C525   C     0.03596   0.26249   0.08419   0.00000  Uiso   1.00
C526   C     0.02413   0.31152   0.12035   0.00000  Uiso   1.00
C527   C     0.10916   0.27942   0.92231   0.00000  Uiso   1.00
C528   C     0.15481   0.24505   0.93220   0.00000  Uiso   1.00
C529   C     0.19735   0.28611   0.89884   0.00000  Uiso   1.00
H530   H     0.05003   0.43552   0.84458   0.00000  Uiso   1.00
H531   H     0.97568   0.41010   0.74023   0.00000  Uiso   1.00
H532   H     0.02737   0.46713   0.96693   0.00000  Uiso   1.00
H533   H     0.14620   0.44969   0.81496   0.00000  Uiso   1.00
H534   H     0.89458   0.34982   0.64296   0.00000  Uiso   1.00
H535   H     0.00359   0.47007   0.12097   0.00000  Uiso   1.00
H536   H     0.25417   0.43330   0.80050   0.00000  Uiso   1.00
H537   H     0.06043   0.18810   0.98633   0.00000  Uiso   1.00
H538   H     0.98664   0.14911   0.88976   0.00000  Uiso   1.00
H539   H     0.03833   0.20614   0.11646   0.00000  Uiso   1.00
H540   H     0.15716   0.18870   0.96448   0.00000  Uiso   1.00
H541   H     0.90348   0.13799   0.76432   0.00000  Uiso   1.00
H542   H     0.01249   0.25824   0.24234   0.00000  Uiso   1.00
H543   H     0.26306   0.22147   0.92186   0.00000  Uiso   1.00
O544   O     0.85029   0.22272   0.63757   0.00000  Uiso   1.00
O545   O     0.99331   0.38049   0.26471   0.00000  Uiso   1.00
O546   O     0.32207   0.33225   0.84425   0.00000  Uiso   1.00
N547   N     0.90681   0.30532   0.68476   0.00000  Uiso   1.00
N548   N     0.00871   0.41774   0.13168   0.00000  Uiso   1.00
N549   N     0.24299   0.38337   0.83208   0.00000  Uiso   1.00
N550   N     0.91160   0.19133   0.75007   0.00000  Uiso   1.00
N551   N     0.01350   0.30376   0.19698   0.00000  Uiso   1.00
N552   N     0.24778   0.26939   0.89738   0.00000  Uiso   1.00
