data_job_05730
_audit_creation_date              2018-12-19
_audit_creation_method            'Materials Studio'
_symmetry_space_group_name_H-M    'P1'
_symmetry_Int_Tables_number       1
_symmetry_cell_setting            triclinic
loop_
_symmetry_equiv_pos_as_xyz
  x,y,z
_cell_length_a                    18.3504
_cell_length_b                    17.8867
_cell_length_c                    18.0279
_cell_angle_alpha                 90.0000
_cell_angle_beta                  90.0000
_cell_angle_gamma                 90.0000
loop_
_atom_site_label
_atom_site_type_symbol
_atom_site_fract_x
_atom_site_fract_y
_atom_site_fract_z
_atom_site_U_iso_or_equiv
_atom_site_adp_type
_atom_site_occupancy
C1     C     0.07857   0.86883   0.06354   0.00000  Uiso   1.00
C2     C     0.08825   0.91049   0.99041   0.00000  Uiso   1.00
C3     C     0.12251   0.97909   0.98158   0.00000  Uiso   1.00
C4     C     0.12575   0.00788   0.91014   0.00000  Uiso   1.00
C5     C     0.14531   0.07845   0.80577   0.00000  Uiso   1.00
C6     C     0.99690   0.85547   0.07187   0.00000  Uiso   1.00
C7     C     0.95436   0.87780   0.13155   0.00000  Uiso   1.00
C8     C     0.88071   0.86026   0.12868   0.00000  Uiso   1.00
C9     C     0.75846   0.84536   0.15082   0.00000  Uiso   1.00
C10    C     0.11274   0.79197   0.05216   0.00000  Uiso   1.00
C11    C     0.16759   0.76089   0.09527   0.00000  Uiso   1.00
C12    C     0.19146   0.68988   0.07582   0.00000  Uiso   1.00
C13    C     0.24907   0.57639   0.06735   0.00000  Uiso   1.00
C14    C     0.02341   0.79798   0.95236   0.00000  Uiso   1.00
C15    C     0.05829   0.87201   0.93002   0.00000  Uiso   1.00
C16    C     0.06148   0.90071   0.85857   0.00000  Uiso   1.00
C17    C     0.09574   0.96933   0.84964   0.00000  Uiso   1.00
C18    C     0.96694   0.81699   0.01149   0.00000  Uiso   1.00
C19    C     0.89333   0.79941   0.00854   0.00000  Uiso   1.00
C20    C     0.85069   0.82171   0.06819   0.00000  Uiso   1.00
C21    C     0.08278   0.75349   0.99177   0.00000  Uiso   1.00
C22    C     0.10657   0.68251   0.97226   0.00000  Uiso   1.00
C23    C     0.16144   0.65134   0.01533   0.00000  Uiso   1.00
H24    H     0.10189   0.89879   0.11056   0.00000  Uiso   1.00
H25    H     0.14568   0.00885   0.02833   0.00000  Uiso   1.00
H26    H     0.97756   0.90757   0.17827   0.00000  Uiso   1.00
H27    H     0.19076   0.79069   0.14200   0.00000  Uiso   1.00
H28    H     0.18100   0.11393   0.91053   0.00000  Uiso   1.00
H29    H     0.82651   0.90034   0.22671   0.00000  Uiso   1.00
H30    H     0.27609   0.65387   0.15022   0.00000  Uiso   1.00
H31    H     0.00008   0.76802   0.90535   0.00000  Uiso   1.00
H32    H     0.03829   0.87092   0.81185   0.00000  Uiso   1.00
H33    H     0.87017   0.76963   0.96180   0.00000  Uiso   1.00
H34    H     0.08337   0.65275   0.92552   0.00000  Uiso   1.00
H35    H     0.09383   0.00198   0.73483   0.00000  Uiso   1.00
H36    H     0.73935   0.78838   0.05101   0.00000  Uiso   1.00
H37    H     0.18892   0.54192   0.97452   0.00000  Uiso   1.00
O38    O     0.16436   0.12801   0.76488   0.00000  Uiso   1.00
O39    O     0.69930   0.84778   0.17970   0.00000  Uiso   1.00
O40    O     0.28913   0.52442   0.07935   0.00000  Uiso   1.00
N41    N     0.15525   0.07345   0.88201   0.00000  Uiso   1.00
N42    N     0.82383   0.87377   0.17761   0.00000  Uiso   1.00
N43    N     0.24413   0.64333   0.10612   0.00000  Uiso   1.00
N44    N     0.10835   0.01321   0.78746   0.00000  Uiso   1.00
N45    N     0.77693   0.81353   0.08307   0.00000  Uiso   1.00
N46    N     0.19723   0.58309   0.01157   0.00000  Uiso   1.00
C47    C     0.57452   0.14166   0.42322   0.00000  Uiso   1.00
C48    C     0.58295   0.09447   0.49314   0.00000  Uiso   1.00
C49    C     0.61088   0.02244   0.49618   0.00000  Uiso   1.00
C50    C     0.61406   0.98877   0.56550   0.00000  Uiso   1.00
C51    C     0.63075   0.90984   0.66434   0.00000  Uiso   1.00
C52    C     0.49425   0.16338   0.41941   0.00000  Uiso   1.00
C53    C     0.44760   0.14928   0.36045   0.00000  Uiso   1.00
C54    C     0.37611   0.17363   0.36769   0.00000  Uiso   1.00
C55    C     0.25510   0.20172   0.35204   0.00000  Uiso   1.00
C56    C     0.61619   0.21395   0.43776   0.00000  Uiso   1.00
C57    C     0.67206   0.24239   0.39422   0.00000  Uiso   1.00
C58    C     0.70323   0.30932   0.41691   0.00000  Uiso   1.00
C59    C     0.77156   0.41594   0.42975   0.00000  Uiso   1.00
C60    C     0.53051   0.20998   0.54091   0.00000  Uiso   1.00
C61    C     0.55904   0.13158   0.55707   0.00000  Uiso   1.00
C62    C     0.56218   0.09802   0.62640   0.00000  Uiso   1.00
C63    C     0.59011   0.02594   0.62954   0.00000  Uiso   1.00
C64    C     0.47034   0.20048   0.48333   0.00000  Uiso   1.00
C65    C     0.39890   0.22486   0.49067   0.00000  Uiso   1.00
C66    C     0.35216   0.21080   0.43174   0.00000  Uiso   1.00
C67    C     0.59229   0.25105   0.50169   0.00000  Uiso   1.00
C68    C     0.62337   0.31796   0.52444   0.00000  Uiso   1.00
C69    C     0.67928   0.34650   0.48095   0.00000  Uiso   1.00
H70    H     0.59313   0.11278   0.37345   0.00000  Uiso   1.00
H71    H     0.62937   0.99374   0.44669   0.00000  Uiso   1.00
H72    H     0.46612   0.12057   0.31098   0.00000  Uiso   1.00
H73    H     0.69055   0.21366   0.34475   0.00000  Uiso   1.00
H74    H     0.65898   0.87812   0.55610   0.00000  Uiso   1.00
H75    H     0.31476   0.14557   0.26992   0.00000  Uiso   1.00
H76    H     0.78802   0.34187   0.34113   0.00000  Uiso   1.00
H77    H     0.51189   0.23887   0.59069   0.00000  Uiso   1.00
H78    H     0.54368   0.12675   0.67586   0.00000  Uiso   1.00
H79    H     0.38042   0.25358   0.54014   0.00000  Uiso   1.00
H80    H     0.60485   0.34666   0.57392   0.00000  Uiso   1.00
H81    H     0.58942   0.98607   0.74210   0.00000  Uiso   1.00
H82    H     0.24521   0.25352   0.45592   0.00000  Uiso   1.00
H83    H     0.71846   0.44982   0.52713   0.00000  Uiso   1.00
O84    O     0.64655   0.85605   0.70120   0.00000  Uiso   1.00
O85    O     0.19496   0.20695   0.32575   0.00000  Uiso   1.00
O86    O     0.81586   0.46449   0.41918   0.00000  Uiso   1.00
N87    N     0.63826   0.91891   0.58818   0.00000  Uiso   1.00
N88    N     0.31644   0.16896   0.32063   0.00000  Uiso   1.00
N89    N     0.75888   0.35249   0.38720   0.00000  Uiso   1.00
N90    N     0.60083   0.97700   0.68827   0.00000  Uiso   1.00
N91    N     0.27901   0.22705   0.42072   0.00000  Uiso   1.00
N92    N     0.72145   0.41058   0.48728   0.00000  Uiso   1.00
C93    C     0.92143   0.13117   0.06354   0.00000  Uiso   1.00
C94    C     0.91175   0.08951   0.99041   0.00000  Uiso   1.00
C95    C     0.87749   0.02091   0.98158   0.00000  Uiso   1.00
C96    C     0.87425   0.99212   0.91014   0.00000  Uiso   1.00
C97    C     0.85469   0.92155   0.80577   0.00000  Uiso   1.00
C98    C     0.00310   0.14453   0.07187   0.00000  Uiso   1.00
C99    C     0.04564   0.12220   0.13155   0.00000  Uiso   1.00
C100   C     0.11929   0.13974   0.12868   0.00000  Uiso   1.00
C101   C     0.24154   0.15464   0.15082   0.00000  Uiso   1.00
C102   C     0.88726   0.20803   0.05216   0.00000  Uiso   1.00
C103   C     0.83241   0.23911   0.09527   0.00000  Uiso   1.00
C104   C     0.80854   0.31012   0.07582   0.00000  Uiso   1.00
C105   C     0.75093   0.42361   0.06735   0.00000  Uiso   1.00
C106   C     0.97659   0.20202   0.95236   0.00000  Uiso   1.00
C107   C     0.94171   0.12799   0.93002   0.00000  Uiso   1.00
C108   C     0.93852   0.09929   0.85857   0.00000  Uiso   1.00
C109   C     0.90426   0.03067   0.84964   0.00000  Uiso   1.00
C110   C     0.03306   0.18301   0.01149   0.00000  Uiso   1.00
C111   C     0.10667   0.20059   0.00854   0.00000  Uiso   1.00
C112   C     0.14931   0.17829   0.06819   0.00000  Uiso   1.00
C113   C     0.91722   0.24651   0.99177   0.00000  Uiso   1.00
C114   C     0.89343   0.31749   0.97226   0.00000  Uiso   1.00
C115   C     0.83856   0.34866   0.01533   0.00000  Uiso   1.00
H116   H     0.89811   0.10121   0.11056   0.00000  Uiso   1.00
H117   H     0.85432   0.99115   0.02833   0.00000  Uiso   1.00
H118   H     0.02244   0.09243   0.17827   0.00000  Uiso   1.00
H119   H     0.80924   0.20931   0.14200   0.00000  Uiso   1.00
H120   H     0.81900   0.88607   0.91053   0.00000  Uiso   1.00
H121   H     0.17349   0.09966   0.22671   0.00000  Uiso   1.00
H122   H     0.72391   0.34613   0.15022   0.00000  Uiso   1.00
H123   H     0.99992   0.23198   0.90535   0.00000  Uiso   1.00
H124   H     0.96171   0.12908   0.81185   0.00000  Uiso   1.00
H125   H     0.12983   0.23037   0.96180   0.00000  Uiso   1.00
H126   H     0.91663   0.34725   0.92552   0.00000  Uiso   1.00
H127   H     0.90617   0.99802   0.73483   0.00000  Uiso   1.00
H128   H     0.26065   0.21162   0.05101   0.00000  Uiso   1.00
H129   H     0.81108   0.45808   0.97452   0.00000  Uiso   1.00
O130   O     0.83564   0.87199   0.76488   0.00000  Uiso   1.00
O131   O     0.30070   0.15222   0.17970   0.00000  Uiso   1.00
O132   O     0.71087   0.47558   0.07935   0.00000  Uiso   1.00
N133   N     0.84475   0.92655   0.88201   0.00000  Uiso   1.00
N134   N     0.17617   0.12623   0.17761   0.00000  Uiso   1.00
N135   N     0.75587   0.35667   0.10612   0.00000  Uiso   1.00
N136   N     0.89165   0.98679   0.78746   0.00000  Uiso   1.00
N137   N     0.22307   0.18647   0.08307   0.00000  Uiso   1.00
N138   N     0.80277   0.41691   0.01157   0.00000  Uiso   1.00
C139   C     0.42548   0.85834   0.42322   0.00000  Uiso   1.00
C140   C     0.41705   0.90553   0.49314   0.00000  Uiso   1.00
C141   C     0.38912   0.97756   0.49618   0.00000  Uiso   1.00
C142   C     0.38594   0.01123   0.56550   0.00000  Uiso   1.00
C143   C     0.36925   0.09016   0.66434   0.00000  Uiso   1.00
C144   C     0.50575   0.83662   0.41941   0.00000  Uiso   1.00
C145   C     0.55240   0.85072   0.36045   0.00000  Uiso   1.00
C146   C     0.62389   0.82637   0.36769   0.00000  Uiso   1.00
C147   C     0.74490   0.79828   0.35204   0.00000  Uiso   1.00
C148   C     0.38381   0.78605   0.43776   0.00000  Uiso   1.00
C149   C     0.32794   0.75761   0.39422   0.00000  Uiso   1.00
C150   C     0.29677   0.69068   0.41691   0.00000  Uiso   1.00
C151   C     0.22844   0.58406   0.42975   0.00000  Uiso   1.00
C152   C     0.46949   0.79002   0.54091   0.00000  Uiso   1.00
C153   C     0.44096   0.86842   0.55707   0.00000  Uiso   1.00
C154   C     0.43782   0.90198   0.62640   0.00000  Uiso   1.00
C155   C     0.40989   0.97406   0.62954   0.00000  Uiso   1.00
C156   C     0.52966   0.79952   0.48333   0.00000  Uiso   1.00
C157   C     0.60110   0.77514   0.49067   0.00000  Uiso   1.00
C158   C     0.64784   0.78920   0.43174   0.00000  Uiso   1.00
C159   C     0.40771   0.74895   0.50169   0.00000  Uiso   1.00
C160   C     0.37663   0.68204   0.52444   0.00000  Uiso   1.00
C161   C     0.32072   0.65350   0.48095   0.00000  Uiso   1.00
H162   H     0.40687   0.88722   0.37345   0.00000  Uiso   1.00
H163   H     0.37063   0.00626   0.44669   0.00000  Uiso   1.00
H164   H     0.53388   0.87943   0.31098   0.00000  Uiso   1.00
H165   H     0.30945   0.78634   0.34475   0.00000  Uiso   1.00
H166   H     0.34102   0.12188   0.55610   0.00000  Uiso   1.00
H167   H     0.68524   0.85443   0.26992   0.00000  Uiso   1.00
H168   H     0.21198   0.65813   0.34113   0.00000  Uiso   1.00
H169   H     0.48811   0.76113   0.59069   0.00000  Uiso   1.00
H170   H     0.45632   0.87325   0.67586   0.00000  Uiso   1.00
H171   H     0.61958   0.74642   0.54014   0.00000  Uiso   1.00
H172   H     0.39515   0.65334   0.57392   0.00000  Uiso   1.00
H173   H     0.41058   0.01393   0.74210   0.00000  Uiso   1.00
H174   H     0.75479   0.74648   0.45592   0.00000  Uiso   1.00
H175   H     0.28154   0.55018   0.52713   0.00000  Uiso   1.00
O176   O     0.35345   0.14395   0.70120   0.00000  Uiso   1.00
O177   O     0.80504   0.79305   0.32575   0.00000  Uiso   1.00
O178   O     0.18414   0.53551   0.41918   0.00000  Uiso   1.00
N179   N     0.36174   0.08109   0.58818   0.00000  Uiso   1.00
N180   N     0.68356   0.83104   0.32063   0.00000  Uiso   1.00
N181   N     0.24112   0.64751   0.38720   0.00000  Uiso   1.00
N182   N     0.39917   0.02300   0.68827   0.00000  Uiso   1.00
N183   N     0.72099   0.77295   0.42072   0.00000  Uiso   1.00
N184   N     0.27855   0.58942   0.48728   0.00000  Uiso   1.00
C185   C     0.07857   0.13117   0.56354   0.00000  Uiso   1.00
C186   C     0.08825   0.08951   0.49041   0.00000  Uiso   1.00
C187   C     0.12251   0.02091   0.48158   0.00000  Uiso   1.00
C188   C     0.12575   0.99212   0.41014   0.00000  Uiso   1.00
C189   C     0.14531   0.92155   0.30577   0.00000  Uiso   1.00
C190   C     0.99690   0.14453   0.57187   0.00000  Uiso   1.00
C191   C     0.95436   0.12220   0.63155   0.00000  Uiso   1.00
C192   C     0.88071   0.13974   0.62868   0.00000  Uiso   1.00
C193   C     0.75846   0.15464   0.65082   0.00000  Uiso   1.00
C194   C     0.11274   0.20803   0.55216   0.00000  Uiso   1.00
C195   C     0.16759   0.23911   0.59527   0.00000  Uiso   1.00
C196   C     0.19146   0.31012   0.57582   0.00000  Uiso   1.00
C197   C     0.24907   0.42361   0.56735   0.00000  Uiso   1.00
C198   C     0.02341   0.20202   0.45236   0.00000  Uiso   1.00
C199   C     0.05829   0.12799   0.43002   0.00000  Uiso   1.00
C200   C     0.06148   0.09929   0.35857   0.00000  Uiso   1.00
C201   C     0.09574   0.03067   0.34964   0.00000  Uiso   1.00
C202   C     0.96694   0.18301   0.51149   0.00000  Uiso   1.00
C203   C     0.89333   0.20059   0.50854   0.00000  Uiso   1.00
C204   C     0.85069   0.17829   0.56819   0.00000  Uiso   1.00
C205   C     0.08278   0.24651   0.49177   0.00000  Uiso   1.00
C206   C     0.10657   0.31749   0.47226   0.00000  Uiso   1.00
C207   C     0.16144   0.34866   0.51533   0.00000  Uiso   1.00
H208   H     0.10189   0.10121   0.61056   0.00000  Uiso   1.00
H209   H     0.14568   0.99115   0.52833   0.00000  Uiso   1.00
H210   H     0.97756   0.09243   0.67827   0.00000  Uiso   1.00
H211   H     0.19076   0.20931   0.64200   0.00000  Uiso   1.00
H212   H     0.18100   0.88607   0.41053   0.00000  Uiso   1.00
H213   H     0.82651   0.09966   0.72671   0.00000  Uiso   1.00
H214   H     0.27609   0.34613   0.65022   0.00000  Uiso   1.00
H215   H     0.00008   0.23198   0.40535   0.00000  Uiso   1.00
H216   H     0.03829   0.12908   0.31185   0.00000  Uiso   1.00
H217   H     0.87017   0.23037   0.46180   0.00000  Uiso   1.00
H218   H     0.08337   0.34725   0.42552   0.00000  Uiso   1.00
H219   H     0.09383   0.99802   0.23483   0.00000  Uiso   1.00
H220   H     0.73935   0.21162   0.55101   0.00000  Uiso   1.00
H221   H     0.18892   0.45808   0.47452   0.00000  Uiso   1.00
O222   O     0.16436   0.87199   0.26488   0.00000  Uiso   1.00
O223   O     0.69930   0.15222   0.67970   0.00000  Uiso   1.00
O224   O     0.28913   0.47558   0.57935   0.00000  Uiso   1.00
N225   N     0.15525   0.92655   0.38201   0.00000  Uiso   1.00
N226   N     0.82383   0.12623   0.67761   0.00000  Uiso   1.00
N227   N     0.24413   0.35667   0.60612   0.00000  Uiso   1.00
N228   N     0.10835   0.98679   0.28746   0.00000  Uiso   1.00
N229   N     0.77693   0.18647   0.58307   0.00000  Uiso   1.00
N230   N     0.19723   0.41691   0.51157   0.00000  Uiso   1.00
C231   C     0.57452   0.85834   0.92322   0.00000  Uiso   1.00
C232   C     0.58295   0.90553   0.99314   0.00000  Uiso   1.00
C233   C     0.61088   0.97756   0.99618   0.00000  Uiso   1.00
C234   C     0.61406   0.01123   0.06550   0.00000  Uiso   1.00
C235   C     0.63075   0.09016   0.16434   0.00000  Uiso   1.00
C236   C     0.49425   0.83662   0.91941   0.00000  Uiso   1.00
C237   C     0.44760   0.85072   0.86045   0.00000  Uiso   1.00
C238   C     0.37611   0.82637   0.86769   0.00000  Uiso   1.00
C239   C     0.25510   0.79828   0.85204   0.00000  Uiso   1.00
C240   C     0.61619   0.78605   0.93776   0.00000  Uiso   1.00
C241   C     0.67206   0.75761   0.89422   0.00000  Uiso   1.00
C242   C     0.70323   0.69068   0.91691   0.00000  Uiso   1.00
C243   C     0.77156   0.58406   0.92975   0.00000  Uiso   1.00
C244   C     0.53051   0.79002   0.04091   0.00000  Uiso   1.00
C245   C     0.55904   0.86842   0.05707   0.00000  Uiso   1.00
C246   C     0.56218   0.90198   0.12640   0.00000  Uiso   1.00
C247   C     0.59011   0.97406   0.12954   0.00000  Uiso   1.00
C248   C     0.47034   0.79952   0.98333   0.00000  Uiso   1.00
C249   C     0.39890   0.77514   0.99067   0.00000  Uiso   1.00
C250   C     0.35216   0.78920   0.93174   0.00000  Uiso   1.00
C251   C     0.59229   0.74895   0.00169   0.00000  Uiso   1.00
C252   C     0.62337   0.68204   0.02444   0.00000  Uiso   1.00
C253   C     0.67928   0.65350   0.98095   0.00000  Uiso   1.00
H254   H     0.59313   0.88722   0.87345   0.00000  Uiso   1.00
H255   H     0.62937   0.00626   0.94669   0.00000  Uiso   1.00
H256   H     0.46612   0.87943   0.81098   0.00000  Uiso   1.00
H257   H     0.69055   0.78634   0.84475   0.00000  Uiso   1.00
H258   H     0.65898   0.12188   0.05610   0.00000  Uiso   1.00
H259   H     0.31476   0.85443   0.76992   0.00000  Uiso   1.00
H260   H     0.78802   0.65813   0.84113   0.00000  Uiso   1.00
H261   H     0.51189   0.76113   0.09069   0.00000  Uiso   1.00
H262   H     0.54368   0.87325   0.17586   0.00000  Uiso   1.00
H263   H     0.38042   0.74642   0.04014   0.00000  Uiso   1.00
H264   H     0.60485   0.65334   0.07392   0.00000  Uiso   1.00
H265   H     0.58942   0.01393   0.24210   0.00000  Uiso   1.00
H266   H     0.24521   0.74648   0.95592   0.00000  Uiso   1.00
H267   H     0.71846   0.55018   0.02713   0.00000  Uiso   1.00
O268   O     0.64655   0.14395   0.20120   0.00000  Uiso   1.00
O269   O     0.19496   0.79305   0.82575   0.00000  Uiso   1.00
O270   O     0.81586   0.53551   0.91918   0.00000  Uiso   1.00
N271   N     0.63826   0.08109   0.08818   0.00000  Uiso   1.00
N272   N     0.31644   0.83104   0.82063   0.00000  Uiso   1.00
N273   N     0.75888   0.64751   0.88720   0.00000  Uiso   1.00
N274   N     0.60083   0.02300   0.18827   0.00000  Uiso   1.00
N275   N     0.27901   0.77295   0.92072   0.00000  Uiso   1.00
N276   N     0.72145   0.58942   0.98728   0.00000  Uiso   1.00
C277   C     0.92143   0.86883   0.56354   0.00000  Uiso   1.00
C278   C     0.91175   0.91049   0.49041   0.00000  Uiso   1.00
C279   C     0.87749   0.97909   0.48158   0.00000  Uiso   1.00
C280   C     0.87425   0.00788   0.41014   0.00000  Uiso   1.00
C281   C     0.85469   0.07845   0.30577   0.00000  Uiso   1.00
C282   C     0.00310   0.85547   0.57187   0.00000  Uiso   1.00
C283   C     0.04564   0.87780   0.63155   0.00000  Uiso   1.00
C284   C     0.11929   0.86026   0.62868   0.00000  Uiso   1.00
C285   C     0.24154   0.84536   0.65082   0.00000  Uiso   1.00
C286   C     0.88726   0.79197   0.55216   0.00000  Uiso   1.00
C287   C     0.83241   0.76089   0.59527   0.00000  Uiso   1.00
C288   C     0.80854   0.68988   0.57582   0.00000  Uiso   1.00
C289   C     0.75093   0.57639   0.56735   0.00000  Uiso   1.00
C290   C     0.97659   0.79798   0.45236   0.00000  Uiso   1.00
C291   C     0.94171   0.87201   0.43002   0.00000  Uiso   1.00
C292   C     0.93852   0.90071   0.35857   0.00000  Uiso   1.00
C293   C     0.90426   0.96933   0.34964   0.00000  Uiso   1.00
C294   C     0.03306   0.81699   0.51149   0.00000  Uiso   1.00
C295   C     0.10667   0.79941   0.50854   0.00000  Uiso   1.00
C296   C     0.14931   0.82171   0.56819   0.00000  Uiso   1.00
C297   C     0.91722   0.75349   0.49177   0.00000  Uiso   1.00
C298   C     0.89343   0.68251   0.47226   0.00000  Uiso   1.00
C299   C     0.83856   0.65134   0.51533   0.00000  Uiso   1.00
H300   H     0.89811   0.89879   0.61056   0.00000  Uiso   1.00
H301   H     0.85432   0.00885   0.52833   0.00000  Uiso   1.00
H302   H     0.02244   0.90757   0.67827   0.00000  Uiso   1.00
H303   H     0.80924   0.79069   0.64200   0.00000  Uiso   1.00
H304   H     0.81900   0.11393   0.41053   0.00000  Uiso   1.00
H305   H     0.17349   0.90034   0.72671   0.00000  Uiso   1.00
H306   H     0.72391   0.65387   0.65022   0.00000  Uiso   1.00
H307   H     0.99992   0.76802   0.40535   0.00000  Uiso   1.00
H308   H     0.96171   0.87092   0.31185   0.00000  Uiso   1.00
H309   H     0.12983   0.76963   0.46180   0.00000  Uiso   1.00
H310   H     0.91663   0.65275   0.42552   0.00000  Uiso   1.00
H311   H     0.90617   0.00198   0.23483   0.00000  Uiso   1.00
H312   H     0.26065   0.78838   0.55101   0.00000  Uiso   1.00
H313   H     0.81108   0.54192   0.47452   0.00000  Uiso   1.00
O314   O     0.83564   0.12801   0.26488   0.00000  Uiso   1.00
O315   O     0.30070   0.84778   0.67970   0.00000  Uiso   1.00
O316   O     0.71087   0.52442   0.57935   0.00000  Uiso   1.00
N317   N     0.84475   0.07345   0.38201   0.00000  Uiso   1.00
N318   N     0.17617   0.87377   0.67761   0.00000  Uiso   1.00
N319   N     0.75587   0.64333   0.60612   0.00000  Uiso   1.00
N320   N     0.89165   0.01321   0.28746   0.00000  Uiso   1.00
N321   N     0.22307   0.81353   0.58307   0.00000  Uiso   1.00
N322   N     0.80277   0.58309   0.51157   0.00000  Uiso   1.00
C323   C     0.42548   0.14166   0.92322   0.00000  Uiso   1.00
C324   C     0.41705   0.09447   0.99314   0.00000  Uiso   1.00
C325   C     0.38912   0.02244   0.99618   0.00000  Uiso   1.00
C326   C     0.38594   0.98877   0.06550   0.00000  Uiso   1.00
C327   C     0.36925   0.90984   0.16434   0.00000  Uiso   1.00
C328   C     0.50575   0.16338   0.91941   0.00000  Uiso   1.00
C329   C     0.55240   0.14928   0.86045   0.00000  Uiso   1.00
C330   C     0.62389   0.17363   0.86769   0.00000  Uiso   1.00
C331   C     0.74490   0.20172   0.85204   0.00000  Uiso   1.00
C332   C     0.38381   0.21395   0.93776   0.00000  Uiso   1.00
C333   C     0.32794   0.24239   0.89422   0.00000  Uiso   1.00
C334   C     0.29677   0.30932   0.91691   0.00000  Uiso   1.00
C335   C     0.22844   0.41594   0.92975   0.00000  Uiso   1.00
C336   C     0.46949   0.20998   0.04091   0.00000  Uiso   1.00
C337   C     0.44096   0.13158   0.05707   0.00000  Uiso   1.00
C338   C     0.43782   0.09802   0.12640   0.00000  Uiso   1.00
C339   C     0.40989   0.02594   0.12954   0.00000  Uiso   1.00
C340   C     0.52966   0.20048   0.98333   0.00000  Uiso   1.00
C341   C     0.60110   0.22486   0.99067   0.00000  Uiso   1.00
C342   C     0.64784   0.21080   0.93174   0.00000  Uiso   1.00
C343   C     0.40771   0.25105   0.00169   0.00000  Uiso   1.00
C344   C     0.37663   0.31796   0.02444   0.00000  Uiso   1.00
C345   C     0.32072   0.34650   0.98095   0.00000  Uiso   1.00
H346   H     0.40687   0.11278   0.87345   0.00000  Uiso   1.00
H347   H     0.37063   0.99374   0.94669   0.00000  Uiso   1.00
H348   H     0.53388   0.12057   0.81098   0.00000  Uiso   1.00
H349   H     0.30945   0.21366   0.84475   0.00000  Uiso   1.00
H350   H     0.34102   0.87812   0.05610   0.00000  Uiso   1.00
H351   H     0.68524   0.14557   0.76992   0.00000  Uiso   1.00
H352   H     0.21198   0.34187   0.84113   0.00000  Uiso   1.00
H353   H     0.48811   0.23887   0.09069   0.00000  Uiso   1.00
H354   H     0.45632   0.12675   0.17586   0.00000  Uiso   1.00
H355   H     0.61958   0.25358   0.04014   0.00000  Uiso   1.00
H356   H     0.39515   0.34666   0.07392   0.00000  Uiso   1.00
H357   H     0.41058   0.98607   0.24210   0.00000  Uiso   1.00
H358   H     0.75479   0.25352   0.95592   0.00000  Uiso   1.00
H359   H     0.28154   0.44982   0.02713   0.00000  Uiso   1.00
O360   O     0.35345   0.85605   0.20120   0.00000  Uiso   1.00
O361   O     0.80504   0.20695   0.82575   0.00000  Uiso   1.00
O362   O     0.18414   0.46449   0.91918   0.00000  Uiso   1.00
N363   N     0.36174   0.91891   0.08818   0.00000  Uiso   1.00
N364   N     0.68356   0.16896   0.82063   0.00000  Uiso   1.00
N365   N     0.24112   0.35249   0.88720   0.00000  Uiso   1.00
N366   N     0.39917   0.97700   0.18827   0.00000  Uiso   1.00
N367   N     0.72099   0.22705   0.92072   0.00000  Uiso   1.00
N368   N     0.27855   0.41058   0.98728   0.00000  Uiso   1.00
