data_job_01967
_audit_creation_date              2018-12-19
_audit_creation_method            'Materials Studio'
_symmetry_space_group_name_H-M    'P1'
_symmetry_Int_Tables_number       1
_symmetry_cell_setting            triclinic
loop_
_symmetry_equiv_pos_as_xyz
  x,y,z
_cell_length_a                    10.4908
_cell_length_b                    14.5191
_cell_length_c                    21.7721
_cell_angle_alpha                 90.0000
_cell_angle_beta                  126.9260
_cell_angle_gamma                 90.0000
loop_
_atom_site_label
_atom_site_type_symbol
_atom_site_fract_x
_atom_site_fract_y
_atom_site_fract_z
_atom_site_U_iso_or_equiv
_atom_site_adp_type
_atom_site_occupancy
C1     C     0.40507   0.02545   0.30746   0.00000  Uiso   1.00
C2     C     0.28821   0.94855   0.28942   0.00000  Uiso   1.00
C3     C     0.14662   0.95898   0.28068   0.00000  Uiso   1.00
C4     C     0.05638   0.88015   0.26430   0.00000  Uiso   1.00
C5     C     0.86740   0.77383   0.23744   0.00000  Uiso   1.00
C6     C     0.56553   0.99591   0.38032   0.00000  Uiso   1.00
C7     C     0.65712   0.04617   0.44801   0.00000  Uiso   1.00
C8     C     0.80033   0.00722   0.50814   0.00000  Uiso   1.00
C9     C     0.04196   0.97446   0.62240   0.00000  Uiso   1.00
C10    C     0.42419   0.02325   0.24336   0.00000  Uiso   1.00
C11    C     0.39698   0.09651   0.19590   0.00000  Uiso   1.00
C12    C     0.42124   0.08059   0.14074   0.00000  Uiso   1.00
C13    C     0.44341   0.09028   0.04234   0.00000  Uiso   1.00
C14    C     0.49657   0.86691   0.29390   0.00000  Uiso   1.00
C15    C     0.33792   0.86243   0.28205   0.00000  Uiso   1.00
C16    C     0.24786   0.78357   0.26568   0.00000  Uiso   1.00
C17    C     0.10616   0.79389   0.25692   0.00000  Uiso   1.00
C18    C     0.61523   0.90980   0.37296   0.00000  Uiso   1.00
C19    C     0.75835   0.87076   0.43301   0.00000  Uiso   1.00
C20    C     0.85013   0.92095   0.50077   0.00000  Uiso   1.00
C21    C     0.47389   0.93714   0.23599   0.00000  Uiso   1.00
C22    C     0.49821   0.92110   0.18090   0.00000  Uiso   1.00
C23    C     0.47103   0.99432   0.13336   0.00000  Uiso   1.00
H24    H     0.36639   0.09249   0.31320   0.00000  Uiso   1.00
H25    H     0.10821   0.02563   0.28639   0.00000  Uiso   1.00
H26    H     0.61863   0.11281   0.45369   0.00000  Uiso   1.00
H27    H     0.35853   0.16314   0.20162   0.00000  Uiso   1.00
H28    H     0.84392   0.91352   0.25345   0.00000  Uiso   1.00
H29    H     0.92020   0.09736   0.60620   0.00000  Uiso   1.00
H30    H     0.37171   0.20349   0.07466   0.00000  Uiso   1.00
H31    H     0.53527   0.79987   0.28817   0.00000  Uiso   1.00
H32    H     0.28635   0.71694   0.25998   0.00000  Uiso   1.00
H33    H     0.79678   0.80413   0.42728   0.00000  Uiso   1.00
H34    H     0.53667   0.85445   0.17522   0.00000  Uiso   1.00
H35    H     0.98850   0.66298   0.23202   0.00000  Uiso   1.00
H36    H     0.06479   0.84682   0.58477   0.00000  Uiso   1.00
H37    H     0.51630   0.95295   0.05323   0.00000  Uiso   1.00
O38    O     0.74944   0.73897   0.22467   0.00000  Uiso   1.00
O39    O     0.16149   0.98017   0.68745   0.00000  Uiso   1.00
O40    O     0.44188   0.11941   0.99010   0.00000  Uiso   1.00
N41    N     0.91209   0.86594   0.25226   0.00000  Uiso   1.00
N42    N     0.91834   0.03781   0.58206   0.00000  Uiso   1.00
N43    N     0.40559   0.13704   0.08514   0.00000  Uiso   1.00
N44    N     0.98989   0.73112   0.24072   0.00000  Uiso   1.00
N45    N     0.99614   0.90300   0.57053   0.00000  Uiso   1.00
N46    N     0.48339   0.00223   0.07360   0.00000  Uiso   1.00
C47    C     0.59493   0.52545   0.19254   0.00000  Uiso   1.00
C48    C     0.71179   0.44855   0.21058   0.00000  Uiso   1.00
C49    C     0.85338   0.45898   0.21932   0.00000  Uiso   1.00
C50    C     0.94362   0.38015   0.23570   0.00000  Uiso   1.00
C51    C     0.13260   0.27383   0.26256   0.00000  Uiso   1.00
C52    C     0.43447   0.49591   0.11968   0.00000  Uiso   1.00
C53    C     0.34288   0.54617   0.05199   0.00000  Uiso   1.00
C54    C     0.19967   0.50722   0.99186   0.00000  Uiso   1.00
C55    C     0.95804   0.47446   0.87760   0.00000  Uiso   1.00
C56    C     0.57581   0.52325   0.25664   0.00000  Uiso   1.00
C57    C     0.60302   0.59651   0.30410   0.00000  Uiso   1.00
C58    C     0.57876   0.58059   0.35926   0.00000  Uiso   1.00
C59    C     0.55659   0.59028   0.45766   0.00000  Uiso   1.00
C60    C     0.50343   0.36691   0.20610   0.00000  Uiso   1.00
C61    C     0.66208   0.36243   0.21795   0.00000  Uiso   1.00
C62    C     0.75214   0.28357   0.23432   0.00000  Uiso   1.00
C63    C     0.89384   0.29389   0.24308   0.00000  Uiso   1.00
C64    C     0.38477   0.40980   0.12704   0.00000  Uiso   1.00
C65    C     0.24165   0.37076   0.06699   0.00000  Uiso   1.00
C66    C     0.14987   0.42095   0.99923   0.00000  Uiso   1.00
C67    C     0.52611   0.43714   0.26401   0.00000  Uiso   1.00
C68    C     0.50179   0.42110   0.31910   0.00000  Uiso   1.00
C69    C     0.52897   0.49432   0.36664   0.00000  Uiso   1.00
H70    H     0.63361   0.59249   0.18680   0.00000  Uiso   1.00
H71    H     0.89179   0.52563   0.21361   0.00000  Uiso   1.00
H72    H     0.38137   0.61281   0.04631   0.00000  Uiso   1.00
H73    H     0.64147   0.66314   0.29838   0.00000  Uiso   1.00
H74    H     0.15608   0.41352   0.24655   0.00000  Uiso   1.00
H75    H     0.07980   0.59736   0.89380   0.00000  Uiso   1.00
H76    H     0.62829   0.70349   0.42534   0.00000  Uiso   1.00
H77    H     0.46473   0.29987   0.21183   0.00000  Uiso   1.00
H78    H     0.71365   0.21694   0.24002   0.00000  Uiso   1.00
H79    H     0.20322   0.30413   0.07272   0.00000  Uiso   1.00
H80    H     0.46333   0.35445   0.32478   0.00000  Uiso   1.00
H81    H     0.01150   0.16298   0.26798   0.00000  Uiso   1.00
H82    H     0.93521   0.34682   0.91523   0.00000  Uiso   1.00
H83    H     0.48370   0.45295   0.44677   0.00000  Uiso   1.00
O84    O     0.25056   0.23897   0.27533   0.00000  Uiso   1.00
O85    O     0.83851   0.48017   0.81255   0.00000  Uiso   1.00
O86    O     0.55812   0.61941   0.50990   0.00000  Uiso   1.00
N87    N     0.08791   0.36594   0.24774   0.00000  Uiso   1.00
N88    N     0.08166   0.53781   0.91794   0.00000  Uiso   1.00
N89    N     0.59441   0.63704   0.41486   0.00000  Uiso   1.00
N90    N     0.01011   0.23112   0.25928   0.00000  Uiso   1.00
N91    N     0.00386   0.40300   0.92947   0.00000  Uiso   1.00
N92    N     0.51661   0.50223   0.42640   0.00000  Uiso   1.00
C93    C     0.59493   0.97455   0.69254   0.00000  Uiso   1.00
C94    C     0.71179   0.05145   0.71058   0.00000  Uiso   1.00
C95    C     0.85338   0.04102   0.71932   0.00000  Uiso   1.00
C96    C     0.94362   0.11985   0.73570   0.00000  Uiso   1.00
C97    C     0.13260   0.22617   0.76256   0.00000  Uiso   1.00
C98    C     0.43447   0.00409   0.61968   0.00000  Uiso   1.00
C99    C     0.34288   0.95383   0.55199   0.00000  Uiso   1.00
C100   C     0.19967   0.99278   0.49186   0.00000  Uiso   1.00
C101   C     0.95804   0.02554   0.37760   0.00000  Uiso   1.00
C102   C     0.57581   0.97675   0.75664   0.00000  Uiso   1.00
C103   C     0.60302   0.90349   0.80410   0.00000  Uiso   1.00
C104   C     0.57876   0.91941   0.85926   0.00000  Uiso   1.00
C105   C     0.55659   0.90972   0.95766   0.00000  Uiso   1.00
C106   C     0.50343   0.13309   0.70610   0.00000  Uiso   1.00
C107   C     0.66208   0.13757   0.71795   0.00000  Uiso   1.00
C108   C     0.75214   0.21643   0.73432   0.00000  Uiso   1.00
C109   C     0.89384   0.20611   0.74308   0.00000  Uiso   1.00
C110   C     0.38477   0.09020   0.62704   0.00000  Uiso   1.00
C111   C     0.24165   0.12924   0.56699   0.00000  Uiso   1.00
C112   C     0.14987   0.07905   0.49923   0.00000  Uiso   1.00
C113   C     0.52611   0.06286   0.76401   0.00000  Uiso   1.00
C114   C     0.50179   0.07890   0.81910   0.00000  Uiso   1.00
C115   C     0.52897   0.00568   0.86664   0.00000  Uiso   1.00
H116   H     0.63361   0.90751   0.68680   0.00000  Uiso   1.00
H117   H     0.89179   0.97437   0.71361   0.00000  Uiso   1.00
H118   H     0.38137   0.88719   0.54631   0.00000  Uiso   1.00
H119   H     0.64147   0.83686   0.79838   0.00000  Uiso   1.00
H120   H     0.15608   0.08648   0.74655   0.00000  Uiso   1.00
H121   H     0.07980   0.90264   0.39380   0.00000  Uiso   1.00
H122   H     0.62829   0.79651   0.92534   0.00000  Uiso   1.00
H123   H     0.46473   0.20013   0.71183   0.00000  Uiso   1.00
H124   H     0.71365   0.28306   0.74002   0.00000  Uiso   1.00
H125   H     0.20322   0.19587   0.57272   0.00000  Uiso   1.00
H126   H     0.46333   0.14555   0.82478   0.00000  Uiso   1.00
H127   H     0.01150   0.33702   0.76798   0.00000  Uiso   1.00
H128   H     0.93521   0.15318   0.41523   0.00000  Uiso   1.00
H129   H     0.48370   0.04705   0.94677   0.00000  Uiso   1.00
O130   O     0.25056   0.26103   0.77533   0.00000  Uiso   1.00
O131   O     0.83851   0.01983   0.31255   0.00000  Uiso   1.00
O132   O     0.55812   0.88059   0.00990   0.00000  Uiso   1.00
N133   N     0.08791   0.13406   0.74774   0.00000  Uiso   1.00
N134   N     0.08166   0.96219   0.41794   0.00000  Uiso   1.00
N135   N     0.59441   0.86296   0.91486   0.00000  Uiso   1.00
N136   N     0.01011   0.26888   0.75928   0.00000  Uiso   1.00
N137   N     0.00386   0.09700   0.42947   0.00000  Uiso   1.00
N138   N     0.51661   0.99777   0.92640   0.00000  Uiso   1.00
C139   C     0.40507   0.47455   0.80746   0.00000  Uiso   1.00
C140   C     0.28821   0.55145   0.78942   0.00000  Uiso   1.00
C141   C     0.14662   0.54102   0.78068   0.00000  Uiso   1.00
C142   C     0.05638   0.61985   0.76430   0.00000  Uiso   1.00
C143   C     0.86740   0.72617   0.73744   0.00000  Uiso   1.00
C144   C     0.56553   0.50409   0.88032   0.00000  Uiso   1.00
C145   C     0.65712   0.45383   0.94801   0.00000  Uiso   1.00
C146   C     0.80033   0.49278   0.00814   0.00000  Uiso   1.00
C147   C     0.04196   0.52554   0.12240   0.00000  Uiso   1.00
C148   C     0.42419   0.47675   0.74336   0.00000  Uiso   1.00
C149   C     0.39698   0.40349   0.69590   0.00000  Uiso   1.00
C150   C     0.42124   0.41941   0.64074   0.00000  Uiso   1.00
C151   C     0.44341   0.40972   0.54234   0.00000  Uiso   1.00
C152   C     0.49657   0.63309   0.79390   0.00000  Uiso   1.00
C153   C     0.33792   0.63757   0.78205   0.00000  Uiso   1.00
C154   C     0.24786   0.71643   0.76568   0.00000  Uiso   1.00
C155   C     0.10616   0.70611   0.75692   0.00000  Uiso   1.00
C156   C     0.61523   0.59020   0.87296   0.00000  Uiso   1.00
C157   C     0.75835   0.62924   0.93301   0.00000  Uiso   1.00
C158   C     0.85013   0.57905   0.00077   0.00000  Uiso   1.00
C159   C     0.47389   0.56286   0.73599   0.00000  Uiso   1.00
C160   C     0.49821   0.57890   0.68090   0.00000  Uiso   1.00
C161   C     0.47103   0.50568   0.63336   0.00000  Uiso   1.00
H162   H     0.36639   0.40751   0.81320   0.00000  Uiso   1.00
H163   H     0.10821   0.47437   0.78639   0.00000  Uiso   1.00
H164   H     0.61863   0.38719   0.95369   0.00000  Uiso   1.00
H165   H     0.35853   0.33686   0.70162   0.00000  Uiso   1.00
H166   H     0.84392   0.58648   0.75345   0.00000  Uiso   1.00
H167   H     0.92020   0.40264   0.10620   0.00000  Uiso   1.00
H168   H     0.37171   0.29651   0.57466   0.00000  Uiso   1.00
H169   H     0.53527   0.70013   0.78817   0.00000  Uiso   1.00
H170   H     0.28635   0.78306   0.75998   0.00000  Uiso   1.00
H171   H     0.79678   0.69587   0.92728   0.00000  Uiso   1.00
H172   H     0.53667   0.64555   0.67522   0.00000  Uiso   1.00
H173   H     0.98850   0.83702   0.73202   0.00000  Uiso   1.00
H174   H     0.06479   0.65318   0.08477   0.00000  Uiso   1.00
H175   H     0.51630   0.54705   0.55323   0.00000  Uiso   1.00
O176   O     0.74944   0.76103   0.72467   0.00000  Uiso   1.00
O177   O     0.16149   0.51983   0.18745   0.00000  Uiso   1.00
O178   O     0.44188   0.38059   0.49010   0.00000  Uiso   1.00
N179   N     0.91209   0.63406   0.75226   0.00000  Uiso   1.00
N180   N     0.91834   0.46219   0.08206   0.00000  Uiso   1.00
N181   N     0.40559   0.36296   0.58514   0.00000  Uiso   1.00
N182   N     0.98989   0.76888   0.74072   0.00000  Uiso   1.00
N183   N     0.99614   0.59700   0.07053   0.00000  Uiso   1.00
N184   N     0.48339   0.49777   0.57360   0.00000  Uiso   1.00
