data_job_04498
_audit_creation_date              2018-12-19
_audit_creation_method            'Materials Studio'
_symmetry_space_group_name_H-M    'P1'
_symmetry_Int_Tables_number       1
_symmetry_cell_setting            triclinic
loop_
_symmetry_equiv_pos_as_xyz
  x,y,z
_cell_length_a                    16.2319
_cell_length_b                    28.2478
_cell_length_c                    10.6231
_cell_angle_alpha                 90.0000
_cell_angle_beta                  90.0000
_cell_angle_gamma                 90.0000
loop_
_atom_site_label
_atom_site_type_symbol
_atom_site_fract_x
_atom_site_fract_y
_atom_site_fract_z
_atom_site_U_iso_or_equiv
_atom_site_adp_type
_atom_site_occupancy
C1     C     0.90767   0.90548   0.76297   0.00000  Uiso   1.00
C2     C     0.90617   0.89552   0.90404   0.00000  Uiso   1.00
C3     C     0.84446   0.87155   0.96817   0.00000  Uiso   1.00
C4     C     0.85452   0.86609   0.09715   0.00000  Uiso   1.00
C5     C     0.84163   0.84792   0.30669   0.00000  Uiso   1.00
C6     C     0.91619   0.95901   0.74957   0.00000  Uiso   1.00
C7     C     0.86291   0.98842   0.68382   0.00000  Uiso   1.00
C8     C     0.88141   0.03641   0.68276   0.00000  Uiso   1.00
C9     C     0.88410   0.11680   0.65241   0.00000  Uiso   1.00
C10    C     0.98810   0.88449   0.71412   0.00000  Uiso   1.00
C11    C     0.99528   0.85126   0.61853   0.00000  Uiso   1.00
C12    C     0.07433   0.83651   0.58759   0.00000  Uiso   1.00
C13    C     0.18867   0.80120   0.50220   0.00000  Uiso   1.00
C14    C     0.03528   0.93841   0.87797   0.00000  Uiso   1.00
C15    C     0.97548   0.91340   0.96650   0.00000  Uiso   1.00
C16    C     0.98565   0.90798   0.09541   0.00000  Uiso   1.00
C17    C     0.92396   0.88400   0.15972   0.00000  Uiso   1.00
C18    C     0.98550   0.97689   0.81203   0.00000  Uiso   1.00
C19    C     0.00409   0.02485   0.81105   0.00000  Uiso   1.00
C20    C     0.95085   0.05432   0.74533   0.00000  Uiso   1.00
C21    C     0.05741   0.90237   0.77658   0.00000  Uiso   1.00
C22    C     0.13646   0.88768   0.74577   0.00000  Uiso   1.00
C23    C     0.14376   0.85443   0.65016   0.00000  Uiso   1.00
H24    H     0.85371   0.89156   0.71434   0.00000  Uiso   1.00
H25    H     0.79083   0.85772   0.91980   0.00000  Uiso   1.00
H26    H     0.80928   0.97457   0.63549   0.00000  Uiso   1.00
H27    H     0.94163   0.83743   0.57022   0.00000  Uiso   1.00
H28    H     0.75167   0.82810   0.17515   0.00000  Uiso   1.00
H29    H     0.79058   0.07448   0.57562   0.00000  Uiso   1.00
H30    H     0.06967   0.78529   0.43797   0.00000  Uiso   1.00
H31    H     0.08924   0.95233   0.92660   0.00000  Uiso   1.00
H32    H     0.03929   0.92182   0.14372   0.00000  Uiso   1.00
H33    H     0.05773   0.03867   0.85940   0.00000  Uiso   1.00
H34    H     0.19008   0.90153   0.79413   0.00000  Uiso   1.00
H35    H     0.95332   0.88013   0.35689   0.00000  Uiso   1.00
H36    H     0.99224   0.12651   0.75734   0.00000  Uiso   1.00
H37    H     0.27133   0.83731   0.61971   0.00000  Uiso   1.00
O38    O     0.81537   0.83296   0.40502   0.00000  Uiso   1.00
O39    O     0.86643   0.15620   0.61843   0.00000  Uiso   1.00
O40    O     0.23259   0.77678   0.43786   0.00000  Uiso   1.00
N41    N     0.80599   0.84453   0.18812   0.00000  Uiso   1.00
N42    N     0.84237   0.07488   0.62761   0.00000  Uiso   1.00
N43    N     0.10329   0.80451   0.49890   0.00000  Uiso   1.00
N44    N     0.91450   0.87252   0.28591   0.00000  Uiso   1.00
N45    N     0.95088   0.10287   0.72540   0.00000  Uiso   1.00
N46    N     0.21180   0.83251   0.59669   0.00000  Uiso   1.00
C47    C     0.00140   0.18357   0.29002   0.00000  Uiso   1.00
C48    C     0.99937   0.19262   0.14853   0.00000  Uiso   1.00
C49    C     0.06262   0.21229   0.07791   0.00000  Uiso   1.00
C50    C     0.04875   0.21765   0.94974   0.00000  Uiso   1.00
C51    C     0.05695   0.23379   0.73847   0.00000  Uiso   1.00
C52    C     0.98354   0.13095   0.30703   0.00000  Uiso   1.00
C53    C     0.03348   0.09878   0.36969   0.00000  Uiso   1.00
C54    C     0.00627   0.05223   0.37496   0.00000  Uiso   1.00
C55    C     0.98987   0.97264   0.40985   0.00000  Uiso   1.00
C56    C     0.92731   0.20966   0.34455   0.00000  Uiso   1.00
C57    C     0.92996   0.24366   0.43877   0.00000  Uiso   1.00
C58    C     0.85540   0.26336   0.47564   0.00000  Uiso   1.00
C59    C     0.75168   0.30598   0.56877   0.00000  Uiso   1.00
C60    C     0.86426   0.15809   0.18797   0.00000  Uiso   1.00
C61    C     0.92488   0.17878   0.09311   0.00000  Uiso   1.00
C62    C     0.91091   0.18411   0.96501   0.00000  Uiso   1.00
C63    C     0.97413   0.20379   0.89421   0.00000  Uiso   1.00
C64    C     0.90906   0.11712   0.25161   0.00000  Uiso   1.00
C65    C     0.88177   0.07060   0.25679   0.00000  Uiso   1.00
C66    C     0.93166   0.03836   0.31943   0.00000  Uiso   1.00
C67    C     0.85282   0.19583   0.28912   0.00000  Uiso   1.00
C68    C     0.77824   0.21548   0.32586   0.00000  Uiso   1.00
C69    C     0.78078   0.24950   0.42011   0.00000  Uiso   1.00
H70    H     0.05938   0.19434   0.33317   0.00000  Uiso   1.00
H71    H     0.12026   0.22299   0.12084   0.00000  Uiso   1.00
H72    H     0.09112   0.10950   0.41259   0.00000  Uiso   1.00
H73    H     0.98761   0.25436   0.48164   0.00000  Uiso   1.00
H74    H     0.15492   0.24865   0.86098   0.00000  Uiso   1.00
H75    H     0.09345   0.00935   0.47618   0.00000  Uiso   1.00
H76    H     0.87519   0.31480   0.62181   0.00000  Uiso   1.00
H77    H     0.80627   0.14732   0.14482   0.00000  Uiso   1.00
H78    H     0.85326   0.17340   0.92214   0.00000  Uiso   1.00
H79    H     0.82412   0.05990   0.21389   0.00000  Uiso   1.00
H80    H     0.72061   0.20476   0.28295   0.00000  Uiso   1.00
H81    H     0.93821   0.20839   0.69971   0.00000  Uiso   1.00
H82    H     0.87675   0.96909   0.31492   0.00000  Uiso   1.00
H83    H     0.65848   0.27455   0.46053   0.00000  Uiso   1.00
O84    O     0.08205   0.24651   0.63725   0.00000  Uiso   1.00
O85    O     0.00141   0.93256   0.44440   0.00000  Uiso   1.00
O86    O     0.71505   0.33331   0.63544   0.00000  Uiso   1.00
N87    N     0.09746   0.23560   0.85359   0.00000  Uiso   1.00
N88    N     0.04000   0.01187   0.42875   0.00000  Uiso   1.00
N89    N     0.83594   0.29744   0.56492   0.00000  Uiso   1.00
N90    N     0.98085   0.21394   0.76681   0.00000  Uiso   1.00
N91    N     0.92340   0.99021   0.34197   0.00000  Uiso   1.00
N92    N     0.71933   0.27578   0.47814   0.00000  Uiso   1.00
C93    C     0.59233   0.09452   0.26297   0.00000  Uiso   1.00
C94    C     0.59383   0.10448   0.40404   0.00000  Uiso   1.00
C95    C     0.65554   0.12845   0.46817   0.00000  Uiso   1.00
C96    C     0.64548   0.13391   0.59715   0.00000  Uiso   1.00
C97    C     0.65837   0.15208   0.80669   0.00000  Uiso   1.00
C98    C     0.58381   0.04099   0.24957   0.00000  Uiso   1.00
C99    C     0.63709   0.01158   0.18382   0.00000  Uiso   1.00
C100   C     0.61859   0.96359   0.18276   0.00000  Uiso   1.00
C101   C     0.61590   0.88320   0.15241   0.00000  Uiso   1.00
C102   C     0.51190   0.11551   0.21412   0.00000  Uiso   1.00
C103   C     0.50472   0.14874   0.11853   0.00000  Uiso   1.00
C104   C     0.42567   0.16349   0.08759   0.00000  Uiso   1.00
C105   C     0.31133   0.19880   0.00220   0.00000  Uiso   1.00
C106   C     0.46472   0.06159   0.37797   0.00000  Uiso   1.00
C107   C     0.52452   0.08660   0.46650   0.00000  Uiso   1.00
C108   C     0.51435   0.09202   0.59541   0.00000  Uiso   1.00
C109   C     0.57604   0.11600   0.65972   0.00000  Uiso   1.00
C110   C     0.51450   0.02311   0.31203   0.00000  Uiso   1.00
C111   C     0.49591   0.97515   0.31105   0.00000  Uiso   1.00
C112   C     0.54915   0.94568   0.24533   0.00000  Uiso   1.00
C113   C     0.44259   0.09763   0.27658   0.00000  Uiso   1.00
C114   C     0.36354   0.11232   0.24577   0.00000  Uiso   1.00
C115   C     0.35624   0.14557   0.15016   0.00000  Uiso   1.00
H116   H     0.64629   0.10844   0.21434   0.00000  Uiso   1.00
H117   H     0.70917   0.14228   0.41980   0.00000  Uiso   1.00
H118   H     0.69072   0.02543   0.13549   0.00000  Uiso   1.00
H119   H     0.55837   0.16257   0.07022   0.00000  Uiso   1.00
H120   H     0.74833   0.17190   0.67515   0.00000  Uiso   1.00
H121   H     0.70942   0.92552   0.07562   0.00000  Uiso   1.00
H122   H     0.43033   0.21471   0.93797   0.00000  Uiso   1.00
H123   H     0.41076   0.04767   0.42660   0.00000  Uiso   1.00
H124   H     0.46071   0.07818   0.64372   0.00000  Uiso   1.00
H125   H     0.44227   0.96133   0.35940   0.00000  Uiso   1.00
H126   H     0.30992   0.09847   0.29413   0.00000  Uiso   1.00
H127   H     0.54668   0.11987   0.85689   0.00000  Uiso   1.00
H128   H     0.50776   0.87349   0.25734   0.00000  Uiso   1.00
H129   H     0.22867   0.16269   0.11971   0.00000  Uiso   1.00
O130   O     0.68463   0.16704   0.90502   0.00000  Uiso   1.00
O131   O     0.63357   0.84380   0.11843   0.00000  Uiso   1.00
O132   O     0.26741   0.22322   0.93786   0.00000  Uiso   1.00
N133   N     0.69401   0.15547   0.68812   0.00000  Uiso   1.00
N134   N     0.65763   0.92512   0.12761   0.00000  Uiso   1.00
N135   N     0.39671   0.19549   0.99890   0.00000  Uiso   1.00
N136   N     0.58550   0.12748   0.78591   0.00000  Uiso   1.00
N137   N     0.54912   0.89713   0.22540   0.00000  Uiso   1.00
N138   N     0.28820   0.16749   0.09669   0.00000  Uiso   1.00
C139   C     0.49860   0.81643   0.79002   0.00000  Uiso   1.00
C140   C     0.50063   0.80738   0.64853   0.00000  Uiso   1.00
C141   C     0.43738   0.78771   0.57791   0.00000  Uiso   1.00
C142   C     0.45125   0.78235   0.44974   0.00000  Uiso   1.00
C143   C     0.44305   0.76621   0.23847   0.00000  Uiso   1.00
C144   C     0.51646   0.86905   0.80703   0.00000  Uiso   1.00
C145   C     0.46652   0.90122   0.86969   0.00000  Uiso   1.00
C146   C     0.49373   0.94777   0.87496   0.00000  Uiso   1.00
C147   C     0.51013   0.02736   0.90985   0.00000  Uiso   1.00
C148   C     0.57269   0.79034   0.84455   0.00000  Uiso   1.00
C149   C     0.57004   0.75634   0.93877   0.00000  Uiso   1.00
C150   C     0.64460   0.73664   0.97564   0.00000  Uiso   1.00
C151   C     0.74832   0.69402   0.06877   0.00000  Uiso   1.00
C152   C     0.63574   0.84191   0.68797   0.00000  Uiso   1.00
C153   C     0.57512   0.82122   0.59311   0.00000  Uiso   1.00
C154   C     0.58909   0.81589   0.46501   0.00000  Uiso   1.00
C155   C     0.52587   0.79621   0.39421   0.00000  Uiso   1.00
C156   C     0.59094   0.88288   0.75161   0.00000  Uiso   1.00
C157   C     0.61823   0.92940   0.75679   0.00000  Uiso   1.00
C158   C     0.56834   0.96164   0.81943   0.00000  Uiso   1.00
C159   C     0.64718   0.80417   0.78912   0.00000  Uiso   1.00
C160   C     0.72176   0.78452   0.82586   0.00000  Uiso   1.00
C161   C     0.71922   0.75050   0.92011   0.00000  Uiso   1.00
H162   H     0.44062   0.80566   0.83317   0.00000  Uiso   1.00
H163   H     0.37974   0.77701   0.62084   0.00000  Uiso   1.00
H164   H     0.40888   0.89050   0.91259   0.00000  Uiso   1.00
H165   H     0.51239   0.74564   0.98164   0.00000  Uiso   1.00
H166   H     0.34508   0.75135   0.36098   0.00000  Uiso   1.00
H167   H     0.40655   0.99065   0.97618   0.00000  Uiso   1.00
H168   H     0.62481   0.68520   0.12181   0.00000  Uiso   1.00
H169   H     0.69373   0.85268   0.64482   0.00000  Uiso   1.00
H170   H     0.64674   0.82660   0.42214   0.00000  Uiso   1.00
H171   H     0.67588   0.94010   0.71389   0.00000  Uiso   1.00
H172   H     0.77939   0.79524   0.78295   0.00000  Uiso   1.00
H173   H     0.56179   0.79161   0.19971   0.00000  Uiso   1.00
H174   H     0.62325   0.03091   0.81492   0.00000  Uiso   1.00
H175   H     0.84152   0.72545   0.96053   0.00000  Uiso   1.00
O176   O     0.41795   0.75349   0.13725   0.00000  Uiso   1.00
O177   O     0.49859   0.06744   0.94440   0.00000  Uiso   1.00
O178   O     0.78495   0.66669   0.13544   0.00000  Uiso   1.00
N179   N     0.40254   0.76440   0.35359   0.00000  Uiso   1.00
N180   N     0.46000   0.98813   0.92875   0.00000  Uiso   1.00
N181   N     0.66406   0.70256   0.06492   0.00000  Uiso   1.00
N182   N     0.51915   0.78606   0.26681   0.00000  Uiso   1.00
N183   N     0.57660   0.00979   0.84197   0.00000  Uiso   1.00
N184   N     0.78067   0.72422   0.97814   0.00000  Uiso   1.00
C185   C     0.09233   0.40548   0.73703   0.00000  Uiso   1.00
C186   C     0.09383   0.39552   0.59596   0.00000  Uiso   1.00
C187   C     0.15554   0.37155   0.53183   0.00000  Uiso   1.00
C188   C     0.14548   0.36609   0.40285   0.00000  Uiso   1.00
C189   C     0.15837   0.34792   0.19331   0.00000  Uiso   1.00
C190   C     0.08381   0.45901   0.75043   0.00000  Uiso   1.00
C191   C     0.13709   0.48842   0.81618   0.00000  Uiso   1.00
C192   C     0.11859   0.53641   0.81724   0.00000  Uiso   1.00
C193   C     0.11590   0.61680   0.84759   0.00000  Uiso   1.00
C194   C     0.01190   0.38449   0.78588   0.00000  Uiso   1.00
C195   C     0.00472   0.35126   0.88147   0.00000  Uiso   1.00
C196   C     0.92567   0.33651   0.91241   0.00000  Uiso   1.00
C197   C     0.81133   0.30120   0.99780   0.00000  Uiso   1.00
C198   C     0.96472   0.43841   0.62203   0.00000  Uiso   1.00
C199   C     0.02452   0.41340   0.53350   0.00000  Uiso   1.00
C200   C     0.01435   0.40798   0.40459   0.00000  Uiso   1.00
C201   C     0.07604   0.38400   0.34028   0.00000  Uiso   1.00
C202   C     0.01450   0.47689   0.68797   0.00000  Uiso   1.00
C203   C     0.99591   0.52485   0.68895   0.00000  Uiso   1.00
C204   C     0.04915   0.55432   0.75467   0.00000  Uiso   1.00
C205   C     0.94259   0.40237   0.72342   0.00000  Uiso   1.00
C206   C     0.86354   0.38768   0.75423   0.00000  Uiso   1.00
C207   C     0.85624   0.35443   0.84984   0.00000  Uiso   1.00
H208   H     0.14629   0.39156   0.78566   0.00000  Uiso   1.00
H209   H     0.20917   0.35772   0.58020   0.00000  Uiso   1.00
H210   H     0.19072   0.47457   0.86451   0.00000  Uiso   1.00
H211   H     0.05837   0.33743   0.92978   0.00000  Uiso   1.00
H212   H     0.24833   0.32810   0.32485   0.00000  Uiso   1.00
H213   H     0.20942   0.57448   0.92438   0.00000  Uiso   1.00
H214   H     0.93033   0.28529   0.06203   0.00000  Uiso   1.00
H215   H     0.91076   0.45233   0.57340   0.00000  Uiso   1.00
H216   H     0.96071   0.42182   0.35628   0.00000  Uiso   1.00
H217   H     0.94227   0.53867   0.64060   0.00000  Uiso   1.00
H218   H     0.80992   0.40153   0.70587   0.00000  Uiso   1.00
H219   H     0.04668   0.38013   0.14311   0.00000  Uiso   1.00
H220   H     0.00776   0.62651   0.74266   0.00000  Uiso   1.00
H221   H     0.72867   0.33731   0.88029   0.00000  Uiso   1.00
O222   O     0.18463   0.33296   0.09498   0.00000  Uiso   1.00
O223   O     0.13357   0.65620   0.88157   0.00000  Uiso   1.00
O224   O     0.76741   0.27678   0.06214   0.00000  Uiso   1.00
N225   N     0.19401   0.34453   0.31188   0.00000  Uiso   1.00
N226   N     0.15763   0.57488   0.87239   0.00000  Uiso   1.00
N227   N     0.89671   0.30451   0.00110   0.00000  Uiso   1.00
N228   N     0.08550   0.37252   0.21409   0.00000  Uiso   1.00
N229   N     0.04912   0.60287   0.77460   0.00000  Uiso   1.00
N230   N     0.78820   0.33251   0.90331   0.00000  Uiso   1.00
C231   C     0.99860   0.68357   0.20998   0.00000  Uiso   1.00
C232   C     0.00063   0.69262   0.35147   0.00000  Uiso   1.00
C233   C     0.93738   0.71229   0.42209   0.00000  Uiso   1.00
C234   C     0.95125   0.71765   0.55026   0.00000  Uiso   1.00
C235   C     0.94305   0.73379   0.76153   0.00000  Uiso   1.00
C236   C     0.01646   0.63095   0.19297   0.00000  Uiso   1.00
C237   C     0.96652   0.59878   0.13031   0.00000  Uiso   1.00
C238   C     0.99373   0.55223   0.12504   0.00000  Uiso   1.00
C239   C     0.01013   0.47264   0.09015   0.00000  Uiso   1.00
C240   C     0.07269   0.70966   0.15545   0.00000  Uiso   1.00
C241   C     0.07004   0.74366   0.06123   0.00000  Uiso   1.00
C242   C     0.14460   0.76336   0.02436   0.00000  Uiso   1.00
C243   C     0.24832   0.80598   0.93123   0.00000  Uiso   1.00
C244   C     0.13574   0.65809   0.31203   0.00000  Uiso   1.00
C245   C     0.07512   0.67878   0.40689   0.00000  Uiso   1.00
C246   C     0.08909   0.68411   0.53499   0.00000  Uiso   1.00
C247   C     0.02587   0.70379   0.60579   0.00000  Uiso   1.00
C248   C     0.09094   0.61712   0.24839   0.00000  Uiso   1.00
C249   C     0.11823   0.57060   0.24321   0.00000  Uiso   1.00
C250   C     0.06834   0.53836   0.18057   0.00000  Uiso   1.00
C251   C     0.14718   0.69583   0.21088   0.00000  Uiso   1.00
C252   C     0.22176   0.71548   0.17414   0.00000  Uiso   1.00
C253   C     0.21922   0.74950   0.07989   0.00000  Uiso   1.00
H254   H     0.94062   0.69434   0.16683   0.00000  Uiso   1.00
H255   H     0.87974   0.72299   0.37916   0.00000  Uiso   1.00
H256   H     0.90888   0.60950   0.08741   0.00000  Uiso   1.00
H257   H     0.01239   0.75436   0.01836   0.00000  Uiso   1.00
H258   H     0.84508   0.74865   0.63902   0.00000  Uiso   1.00
H259   H     0.90655   0.50935   0.02382   0.00000  Uiso   1.00
H260   H     0.12481   0.81480   0.87819   0.00000  Uiso   1.00
H261   H     0.19373   0.64732   0.35518   0.00000  Uiso   1.00
H262   H     0.14674   0.67340   0.57786   0.00000  Uiso   1.00
H263   H     0.17588   0.55990   0.28611   0.00000  Uiso   1.00
H264   H     0.27939   0.70476   0.21705   0.00000  Uiso   1.00
H265   H     0.06179   0.70839   0.80029   0.00000  Uiso   1.00
H266   H     0.12325   0.46909   0.18508   0.00000  Uiso   1.00
H267   H     0.34152   0.77455   0.03947   0.00000  Uiso   1.00
O268   O     0.91795   0.74651   0.86275   0.00000  Uiso   1.00
O269   O     0.99859   0.43256   0.05560   0.00000  Uiso   1.00
O270   O     0.28495   0.83331   0.86456   0.00000  Uiso   1.00
N271   N     0.90254   0.73560   0.64641   0.00000  Uiso   1.00
N272   N     0.96000   0.51187   0.07125   0.00000  Uiso   1.00
N273   N     0.16406   0.79744   0.93508   0.00000  Uiso   1.00
N274   N     0.01915   0.71394   0.73319   0.00000  Uiso   1.00
N275   N     0.07660   0.49021   0.15803   0.00000  Uiso   1.00
N276   N     0.28067   0.77578   0.02186   0.00000  Uiso   1.00
C277   C     0.40767   0.59452   0.23703   0.00000  Uiso   1.00
C278   C     0.40617   0.60448   0.09596   0.00000  Uiso   1.00
C279   C     0.34446   0.62845   0.03183   0.00000  Uiso   1.00
C280   C     0.35452   0.63391   0.90285   0.00000  Uiso   1.00
C281   C     0.34163   0.65208   0.69331   0.00000  Uiso   1.00
C282   C     0.41619   0.54099   0.25043   0.00000  Uiso   1.00
C283   C     0.36291   0.51158   0.31618   0.00000  Uiso   1.00
C284   C     0.38141   0.46359   0.31724   0.00000  Uiso   1.00
C285   C     0.38410   0.38320   0.34759   0.00000  Uiso   1.00
C286   C     0.48810   0.61551   0.28588   0.00000  Uiso   1.00
C287   C     0.49528   0.64874   0.38147   0.00000  Uiso   1.00
C288   C     0.57433   0.66349   0.41241   0.00000  Uiso   1.00
C289   C     0.68867   0.69880   0.49780   0.00000  Uiso   1.00
C290   C     0.53528   0.56159   0.12203   0.00000  Uiso   1.00
C291   C     0.47548   0.58660   0.03350   0.00000  Uiso   1.00
C292   C     0.48565   0.59202   0.90459   0.00000  Uiso   1.00
C293   C     0.42396   0.61600   0.84028   0.00000  Uiso   1.00
C294   C     0.48550   0.52311   0.18797   0.00000  Uiso   1.00
C295   C     0.50409   0.47515   0.18895   0.00000  Uiso   1.00
C296   C     0.45085   0.44568   0.25467   0.00000  Uiso   1.00
C297   C     0.55741   0.59763   0.22342   0.00000  Uiso   1.00
C298   C     0.63646   0.61232   0.25423   0.00000  Uiso   1.00
C299   C     0.64376   0.64557   0.34984   0.00000  Uiso   1.00
H300   H     0.35371   0.60844   0.28566   0.00000  Uiso   1.00
H301   H     0.29083   0.64228   0.08020   0.00000  Uiso   1.00
H302   H     0.30928   0.52543   0.36451   0.00000  Uiso   1.00
H303   H     0.44163   0.66257   0.42978   0.00000  Uiso   1.00
H304   H     0.25167   0.67190   0.82485   0.00000  Uiso   1.00
H305   H     0.29058   0.42552   0.42438   0.00000  Uiso   1.00
H306   H     0.56967   0.71471   0.56203   0.00000  Uiso   1.00
H307   H     0.58924   0.54767   0.07340   0.00000  Uiso   1.00
H308   H     0.53929   0.57818   0.85628   0.00000  Uiso   1.00
H309   H     0.55773   0.46133   0.14060   0.00000  Uiso   1.00
H310   H     0.69008   0.59847   0.20587   0.00000  Uiso   1.00
H311   H     0.45332   0.61987   0.64311   0.00000  Uiso   1.00
H312   H     0.49224   0.37349   0.24266   0.00000  Uiso   1.00
H313   H     0.77133   0.66269   0.38029   0.00000  Uiso   1.00
O314   O     0.31537   0.66704   0.59498   0.00000  Uiso   1.00
O315   O     0.36643   0.34380   0.38157   0.00000  Uiso   1.00
O316   O     0.73259   0.72322   0.56214   0.00000  Uiso   1.00
N317   N     0.30599   0.65547   0.81188   0.00000  Uiso   1.00
N318   N     0.34237   0.42512   0.37239   0.00000  Uiso   1.00
N319   N     0.60329   0.69549   0.50110   0.00000  Uiso   1.00
N320   N     0.41450   0.62748   0.71409   0.00000  Uiso   1.00
N321   N     0.45088   0.39713   0.27460   0.00000  Uiso   1.00
N322   N     0.71180   0.66749   0.40331   0.00000  Uiso   1.00
C323   C     0.50140   0.31643   0.70998   0.00000  Uiso   1.00
C324   C     0.49937   0.30738   0.85147   0.00000  Uiso   1.00
C325   C     0.56262   0.28771   0.92209   0.00000  Uiso   1.00
C326   C     0.54875   0.28235   0.05026   0.00000  Uiso   1.00
C327   C     0.55695   0.26621   0.26153   0.00000  Uiso   1.00
C328   C     0.48354   0.36905   0.69297   0.00000  Uiso   1.00
C329   C     0.53348   0.40122   0.63031   0.00000  Uiso   1.00
C330   C     0.50627   0.44777   0.62504   0.00000  Uiso   1.00
C331   C     0.48987   0.52736   0.59015   0.00000  Uiso   1.00
C332   C     0.42731   0.29034   0.65545   0.00000  Uiso   1.00
C333   C     0.42996   0.25634   0.56123   0.00000  Uiso   1.00
C334   C     0.35540   0.23664   0.52436   0.00000  Uiso   1.00
C335   C     0.25168   0.19402   0.43123   0.00000  Uiso   1.00
C336   C     0.36426   0.34191   0.81203   0.00000  Uiso   1.00
C337   C     0.42488   0.32122   0.90689   0.00000  Uiso   1.00
C338   C     0.41091   0.31589   0.03499   0.00000  Uiso   1.00
C339   C     0.47413   0.29621   0.10579   0.00000  Uiso   1.00
C340   C     0.40906   0.38288   0.74839   0.00000  Uiso   1.00
C341   C     0.38177   0.42940   0.74321   0.00000  Uiso   1.00
C342   C     0.43166   0.46164   0.68057   0.00000  Uiso   1.00
C343   C     0.35282   0.30417   0.71088   0.00000  Uiso   1.00
C344   C     0.27824   0.28452   0.67414   0.00000  Uiso   1.00
C345   C     0.28078   0.25050   0.57989   0.00000  Uiso   1.00
H346   H     0.55938   0.30566   0.66683   0.00000  Uiso   1.00
H347   H     0.62026   0.27701   0.87916   0.00000  Uiso   1.00
H348   H     0.59112   0.39050   0.58741   0.00000  Uiso   1.00
H349   H     0.48761   0.24564   0.51836   0.00000  Uiso   1.00
H350   H     0.65492   0.25135   0.13902   0.00000  Uiso   1.00
H351   H     0.59345   0.49065   0.52382   0.00000  Uiso   1.00
H352   H     0.37519   0.18520   0.37819   0.00000  Uiso   1.00
H353   H     0.30627   0.35268   0.85518   0.00000  Uiso   1.00
H354   H     0.35326   0.32660   0.07786   0.00000  Uiso   1.00
H355   H     0.32412   0.44010   0.78611   0.00000  Uiso   1.00
H356   H     0.22061   0.29524   0.71705   0.00000  Uiso   1.00
H357   H     0.43821   0.29161   0.30029   0.00000  Uiso   1.00
H358   H     0.37675   0.53091   0.68508   0.00000  Uiso   1.00
H359   H     0.15848   0.22545   0.53947   0.00000  Uiso   1.00
O360   O     0.58205   0.25349   0.36275   0.00000  Uiso   1.00
O361   O     0.50141   0.56744   0.55560   0.00000  Uiso   1.00
O362   O     0.21505   0.16669   0.36456   0.00000  Uiso   1.00
N363   N     0.59746   0.26440   0.14641   0.00000  Uiso   1.00
N364   N     0.54000   0.48813   0.57125   0.00000  Uiso   1.00
N365   N     0.33594   0.20256   0.43508   0.00000  Uiso   1.00
N366   N     0.48085   0.28606   0.23319   0.00000  Uiso   1.00
N367   N     0.42340   0.50979   0.65803   0.00000  Uiso   1.00
N368   N     0.21933   0.22422   0.52186   0.00000  Uiso   1.00
