data_job_04874
_audit_creation_date              2018-12-19
_audit_creation_method            'Materials Studio'
_symmetry_space_group_name_H-M    'P1'
_symmetry_Int_Tables_number       1
_symmetry_cell_setting            triclinic
loop_
_symmetry_equiv_pos_as_xyz
  x,y,z
_cell_length_a                    19.7114
_cell_length_b                    14.2924
_cell_length_c                    13.8138
_cell_angle_alpha                 90.0000
_cell_angle_beta                  141.2570
_cell_angle_gamma                 90.0000
loop_
_atom_site_label
_atom_site_type_symbol
_atom_site_fract_x
_atom_site_fract_y
_atom_site_fract_z
_atom_site_U_iso_or_equiv
_atom_site_adp_type
_atom_site_occupancy
C1     C     0.46439   0.61017   0.14068   0.00000  Uiso   1.00
C2     C     0.45937   0.69217   0.20558   0.00000  Uiso   1.00
C3     C     0.47081   0.78589   0.19414   0.00000  Uiso   1.00
C4     C     0.46368   0.85028   0.26119   0.00000  Uiso   1.00
C5     C     0.45867   0.98192   0.35052   0.00000  Uiso   1.00
C6     C     0.55306   0.54546   0.27723   0.00000  Uiso   1.00
C7     C     0.64327   0.51583   0.32601   0.00000  Uiso   1.00
C8     C     0.71499   0.45671   0.45335   0.00000  Uiso   1.00
C9     C     0.85540   0.36053   0.65384   0.00000  Uiso   1.00
C10    C     0.35811   0.55702   0.03477   0.00000  Uiso   1.00
C11    C     0.28440   0.53708   0.87970   0.00000  Uiso   1.00
C12    C     0.19199   0.48767   0.80292   0.00000  Uiso   1.00
C13    C     0.02970   0.40944   0.62696   0.00000  Uiso   1.00
C14    C     0.43136   0.55784   0.28009   0.00000  Uiso   1.00
C15    C     0.44143   0.66374   0.28131   0.00000  Uiso   1.00
C16    C     0.43427   0.72800   0.34838   0.00000  Uiso   1.00
C17    C     0.44570   0.82181   0.33704   0.00000  Uiso   1.00
C18    C     0.53513   0.51704   0.35295   0.00000  Uiso   1.00
C19    C     0.60673   0.45794   0.48025   0.00000  Uiso   1.00
C20    C     0.69702   0.42823   0.52921   0.00000  Uiso   1.00
C21    C     0.34016   0.52860   0.11049   0.00000  Uiso   1.00
C22    C     0.24786   0.47920   0.03394   0.00000  Uiso   1.00
C23    C     0.17402   0.45920   0.87878   0.00000  Uiso   1.00
H24    H     0.47836   0.63229   0.08173   0.00000  Uiso   1.00
H25    H     0.48471   0.80786   0.13555   0.00000  Uiso   1.00
H26    H     0.65713   0.53783   0.26738   0.00000  Uiso   1.00
H27    H     0.29831   0.55909   0.82114   0.00000  Uiso   1.00
H28    H     0.48387   0.98997   0.22865   0.00000  Uiso   1.00
H29    H     0.84741   0.42058   0.50659   0.00000  Uiso   1.00
H30    H     0.09078   0.46540   0.56561   0.00000  Uiso   1.00
H31    H     0.41739   0.53571   0.33905   0.00000  Uiso   1.00
H32    H     0.42039   0.70599   0.40698   0.00000  Uiso   1.00
H33    H     0.59281   0.43596   0.53881   0.00000  Uiso   1.00
H34    H     0.23400   0.45722   0.09257   0.00000  Uiso   1.00
H35    H     0.43167   0.90729   0.44896   0.00000  Uiso   1.00
H36    H     0.79521   0.33789   0.72690   0.00000  Uiso   1.00
H37    H     0.03858   0.38272   0.78592   0.00000  Uiso   1.00
O38    O     0.46088   0.06238   0.37889   0.00000  Uiso   1.00
O39    O     0.93782   0.31534   0.74352   0.00000  Uiso   1.00
O40    O     0.94514   0.37416   0.50898   0.00000  Uiso   1.00
N41    N     0.47115   0.94714   0.27115   0.00000  Uiso   1.00
N42    N     0.81105   0.41481   0.53102   0.00000  Uiso   1.00
N43    N     0.10368   0.45669   0.65129   0.00000  Uiso   1.00
N44    N     0.44306   0.90265   0.38969   0.00000  Uiso   1.00
N45    N     0.78296   0.37032   0.64957   0.00000  Uiso   1.00
N46    N     0.07559   0.41220   0.76984   0.00000  Uiso   1.00
C47    C     0.96487   0.95431   0.18146   0.00000  Uiso   1.00
C48    C     0.96368   0.05241   0.22353   0.00000  Uiso   1.00
C49    C     0.97843   0.13521   0.18915   0.00000  Uiso   1.00
C50    C     0.97450   0.21774   0.23767   0.00000  Uiso   1.00
C51    C     0.97545   0.37012   0.29089   0.00000  Uiso   1.00
C52    C     0.05142   0.90014   0.33321   0.00000  Uiso   1.00
C53    C     0.13993   0.85490   0.39102   0.00000  Uiso   1.00
C54    C     0.20984   0.80924   0.53186   0.00000  Uiso   1.00
C55    C     0.34697   0.72515   0.75530   0.00000  Uiso   1.00
C56    C     0.85675   0.90992   0.08860   0.00000  Uiso   1.00
C57    C     0.78160   0.87287   0.94077   0.00000  Uiso   1.00
C58    C     0.68763   0.83542   0.87568   0.00000  Uiso   1.00
C59    C     0.52251   0.76652   0.71934   0.00000  Uiso   1.00
C60    C     0.93165   0.95364   0.32876   0.00000  Uiso   1.00
C61    C     0.94564   0.05204   0.30354   0.00000  Uiso   1.00
C62    C     0.94167   0.13447   0.35212   0.00000  Uiso   1.00
C63    C     0.95641   0.21737   0.31782   0.00000  Uiso   1.00
C64    C     0.03338   0.89977   0.41321   0.00000  Uiso   1.00
C65    C     0.10317   0.85416   0.55399   0.00000  Uiso   1.00
C66    C     0.19177   0.80887   0.61201   0.00000  Uiso   1.00
C67    C     0.83871   0.90955   0.16861   0.00000  Uiso   1.00
C68    C     0.74484   0.87214   0.10374   0.00000  Uiso   1.00
C69    C     0.66956   0.83505   0.95584   0.00000  Uiso   1.00
H70    H     0.97892   0.95459   0.11918   0.00000  Uiso   1.00
H71    H     0.99240   0.13546   0.12724   0.00000  Uiso   1.00
H72    H     0.15386   0.85519   0.32907   0.00000  Uiso   1.00
H73    H     0.79559   0.87317   0.87889   0.00000  Uiso   1.00
H74    H     0.99943   0.33583   0.17152   0.00000  Uiso   1.00
H75    H     0.33986   0.74483   0.59706   0.00000  Uiso   1.00
H76    H     0.58437   0.78274   0.64777   0.00000  Uiso   1.00
H77    H     0.91760   0.95335   0.39106   0.00000  Uiso   1.00
H78    H     0.92771   0.13416   0.41404   0.00000  Uiso   1.00
H79    H     0.08918   0.85389   0.61587   0.00000  Uiso   1.00
H80    H     0.73091   0.87187   0.16569   0.00000  Uiso   1.00
H81    H     0.94693   0.33478   0.40430   0.00000  Uiso   1.00
H82    H     0.28737   0.74377   0.82984   0.00000  Uiso   1.00
H83    H     0.53187   0.78169   0.88055   0.00000  Uiso   1.00
O84    O     0.98097   0.45426   0.29816   0.00000  Uiso   1.00
O85    O     0.42760   0.67889   0.85644   0.00000  Uiso   1.00
O86    O     0.43641   0.72863   0.61100   0.00000  Uiso   1.00
N87    N     0.98566   0.31077   0.22312   0.00000  Uiso   1.00
N88    N     0.30396   0.75823   0.62099   0.00000  Uiso   1.00
N89    N     0.59765   0.79365   0.73350   0.00000  Uiso   1.00
N90    N     0.95741   0.31020   0.34838   0.00000  Uiso   1.00
N91    N     0.27571   0.75767   0.74625   0.00000  Uiso   1.00
N92    N     0.56940   0.79309   0.85875   0.00000  Uiso   1.00
C93    C     0.46439   0.38983   0.64068   0.00000  Uiso   1.00
C94    C     0.45937   0.30783   0.70558   0.00000  Uiso   1.00
C95    C     0.47081   0.21411   0.69414   0.00000  Uiso   1.00
C96    C     0.46368   0.14972   0.76119   0.00000  Uiso   1.00
C97    C     0.45867   0.01808   0.85052   0.00000  Uiso   1.00
C98    C     0.55306   0.45454   0.77723   0.00000  Uiso   1.00
C99    C     0.64327   0.48417   0.82601   0.00000  Uiso   1.00
C100   C     0.71499   0.54329   0.95335   0.00000  Uiso   1.00
C101   C     0.85540   0.63947   0.15384   0.00000  Uiso   1.00
C102   C     0.35811   0.44298   0.53477   0.00000  Uiso   1.00
C103   C     0.28440   0.46292   0.37970   0.00000  Uiso   1.00
C104   C     0.19199   0.51233   0.30292   0.00000  Uiso   1.00
C105   C     0.02970   0.59056   0.12696   0.00000  Uiso   1.00
C106   C     0.43136   0.44216   0.78009   0.00000  Uiso   1.00
C107   C     0.44143   0.33626   0.78131   0.00000  Uiso   1.00
C108   C     0.43427   0.27200   0.84838   0.00000  Uiso   1.00
C109   C     0.44570   0.17819   0.83704   0.00000  Uiso   1.00
C110   C     0.53513   0.48296   0.85295   0.00000  Uiso   1.00
C111   C     0.60673   0.54206   0.98025   0.00000  Uiso   1.00
C112   C     0.69702   0.57177   0.02921   0.00000  Uiso   1.00
C113   C     0.34016   0.47140   0.61049   0.00000  Uiso   1.00
C114   C     0.24786   0.52080   0.53394   0.00000  Uiso   1.00
C115   C     0.17402   0.54080   0.37878   0.00000  Uiso   1.00
H116   H     0.47836   0.36771   0.58173   0.00000  Uiso   1.00
H117   H     0.48471   0.19214   0.63555   0.00000  Uiso   1.00
H118   H     0.65713   0.46217   0.76738   0.00000  Uiso   1.00
H119   H     0.29831   0.44091   0.32114   0.00000  Uiso   1.00
H120   H     0.48387   0.01003   0.72865   0.00000  Uiso   1.00
H121   H     0.84741   0.57942   0.00659   0.00000  Uiso   1.00
H122   H     0.09078   0.53460   0.06561   0.00000  Uiso   1.00
H123   H     0.41739   0.46429   0.83905   0.00000  Uiso   1.00
H124   H     0.42039   0.29401   0.90698   0.00000  Uiso   1.00
H125   H     0.59281   0.56404   0.03881   0.00000  Uiso   1.00
H126   H     0.23400   0.54278   0.59257   0.00000  Uiso   1.00
H127   H     0.43167   0.09271   0.94896   0.00000  Uiso   1.00
H128   H     0.79521   0.66211   0.22690   0.00000  Uiso   1.00
H129   H     0.03858   0.61728   0.28592   0.00000  Uiso   1.00
O130   O     0.46088   0.93762   0.87889   0.00000  Uiso   1.00
O131   O     0.93782   0.68466   0.24352   0.00000  Uiso   1.00
O132   O     0.94514   0.62584   0.00898   0.00000  Uiso   1.00
N133   N     0.47115   0.05286   0.77115   0.00000  Uiso   1.00
N134   N     0.81105   0.58519   0.03102   0.00000  Uiso   1.00
N135   N     0.10368   0.54331   0.15129   0.00000  Uiso   1.00
N136   N     0.44306   0.09735   0.88969   0.00000  Uiso   1.00
N137   N     0.78296   0.62968   0.14957   0.00000  Uiso   1.00
N138   N     0.07559   0.58780   0.26984   0.00000  Uiso   1.00
C139   C     0.96487   0.04569   0.68146   0.00000  Uiso   1.00
C140   C     0.96368   0.94759   0.72353   0.00000  Uiso   1.00
C141   C     0.97843   0.86479   0.68915   0.00000  Uiso   1.00
C142   C     0.97450   0.78226   0.73767   0.00000  Uiso   1.00
C143   C     0.97545   0.62988   0.79089   0.00000  Uiso   1.00
C144   C     0.05142   0.09986   0.83321   0.00000  Uiso   1.00
C145   C     0.13993   0.14510   0.89102   0.00000  Uiso   1.00
C146   C     0.20984   0.19076   0.03186   0.00000  Uiso   1.00
C147   C     0.34697   0.27485   0.25530   0.00000  Uiso   1.00
C148   C     0.85675   0.09008   0.58860   0.00000  Uiso   1.00
C149   C     0.78160   0.12713   0.44077   0.00000  Uiso   1.00
C150   C     0.68763   0.16458   0.37568   0.00000  Uiso   1.00
C151   C     0.52251   0.23348   0.21934   0.00000  Uiso   1.00
C152   C     0.93165   0.04636   0.82876   0.00000  Uiso   1.00
C153   C     0.94564   0.94796   0.80354   0.00000  Uiso   1.00
C154   C     0.94167   0.86553   0.85212   0.00000  Uiso   1.00
C155   C     0.95641   0.78263   0.81782   0.00000  Uiso   1.00
C156   C     0.03338   0.10023   0.91321   0.00000  Uiso   1.00
C157   C     0.10317   0.14584   0.05399   0.00000  Uiso   1.00
C158   C     0.19177   0.19113   0.11201   0.00000  Uiso   1.00
C159   C     0.83871   0.09045   0.66861   0.00000  Uiso   1.00
C160   C     0.74484   0.12786   0.60374   0.00000  Uiso   1.00
C161   C     0.66956   0.16495   0.45584   0.00000  Uiso   1.00
H162   H     0.97892   0.04541   0.61918   0.00000  Uiso   1.00
H163   H     0.99240   0.86454   0.62724   0.00000  Uiso   1.00
H164   H     0.15386   0.14481   0.82907   0.00000  Uiso   1.00
H165   H     0.79559   0.12683   0.37889   0.00000  Uiso   1.00
H166   H     0.99943   0.66417   0.67152   0.00000  Uiso   1.00
H167   H     0.33986   0.25517   0.09706   0.00000  Uiso   1.00
H168   H     0.58437   0.21726   0.14777   0.00000  Uiso   1.00
H169   H     0.91760   0.04665   0.89106   0.00000  Uiso   1.00
H170   H     0.92771   0.86584   0.91404   0.00000  Uiso   1.00
H171   H     0.08918   0.14611   0.11587   0.00000  Uiso   1.00
H172   H     0.73091   0.12813   0.66569   0.00000  Uiso   1.00
H173   H     0.94693   0.66522   0.90430   0.00000  Uiso   1.00
H174   H     0.28737   0.25623   0.32984   0.00000  Uiso   1.00
H175   H     0.53187   0.21831   0.38055   0.00000  Uiso   1.00
O176   O     0.98097   0.54574   0.79816   0.00000  Uiso   1.00
O177   O     0.42760   0.32111   0.35644   0.00000  Uiso   1.00
O178   O     0.43641   0.27137   0.11100   0.00000  Uiso   1.00
N179   N     0.98566   0.68923   0.72312   0.00000  Uiso   1.00
N180   N     0.30396   0.24177   0.12099   0.00000  Uiso   1.00
N181   N     0.59765   0.20635   0.23350   0.00000  Uiso   1.00
N182   N     0.95741   0.68980   0.84838   0.00000  Uiso   1.00
N183   N     0.27571   0.24233   0.24625   0.00000  Uiso   1.00
N184   N     0.56940   0.20691   0.35875   0.00000  Uiso   1.00
