data_job_02921
_audit_creation_date              2018-12-19
_audit_creation_method            'Materials Studio'
_symmetry_space_group_name_H-M    'P1'
_symmetry_Int_Tables_number       1
_symmetry_cell_setting            triclinic
loop_
_symmetry_equiv_pos_as_xyz
  x,y,z
_cell_length_a                    16.4105
_cell_length_b                    10.0063
_cell_length_c                    20.5540
_cell_angle_alpha                 90.0000
_cell_angle_beta                  61.7826
_cell_angle_gamma                 90.0000
loop_
_atom_site_label
_atom_site_type_symbol
_atom_site_fract_x
_atom_site_fract_y
_atom_site_fract_z
_atom_site_U_iso_or_equiv
_atom_site_adp_type
_atom_site_occupancy
C1     C     0.20688   0.51335   0.42315   0.00000  Uiso   1.00
C2     C     0.16209   0.61003   0.39214   0.00000  Uiso   1.00
C3     C     0.06850   0.63983   0.42397   0.00000  Uiso   1.00
C4     C     0.04127   0.73085   0.38700   0.00000  Uiso   1.00
C5     C     0.96196   0.87194   0.34893   0.00000  Uiso   1.00
C6     C     0.25874   0.41108   0.36241   0.00000  Uiso   1.00
C7     C     0.24641   0.27360   0.36924   0.00000  Uiso   1.00
C8     C     0.30055   0.19715   0.30725   0.00000  Uiso   1.00
C9     C     0.37133   0.02937   0.22304   0.00000  Uiso   1.00
C10    C     0.28074   0.59340   0.43111   0.00000  Uiso   1.00
C11    C     0.28693   0.60919   0.49572   0.00000  Uiso   1.00
C12    C     0.35961   0.68622   0.49156   0.00000  Uiso   1.00
C13    C     0.46456   0.80150   0.51403   0.00000  Uiso   1.00
C14    C     0.32498   0.62202   0.30089   0.00000  Uiso   1.00
C15    C     0.22624   0.66905   0.32573   0.00000  Uiso   1.00
C16    C     0.19915   0.76006   0.28870   0.00000  Uiso   1.00
C17    C     0.10553   0.78999   0.32047   0.00000  Uiso   1.00
C18    C     0.32288   0.47010   0.29600   0.00000  Uiso   1.00
C19    C     0.37706   0.39384   0.23398   0.00000  Uiso   1.00
C20    C     0.36481   0.25628   0.24072   0.00000  Uiso   1.00
C21    C     0.34489   0.65243   0.36471   0.00000  Uiso   1.00
C22    C     0.41758   0.72943   0.36045   0.00000  Uiso   1.00
C23    C     0.42387   0.74535   0.42504   0.00000  Uiso   1.00
H24    H     0.15694   0.46738   0.47484   0.00000  Uiso   1.00
H25    H     0.01887   0.59411   0.47535   0.00000  Uiso   1.00
H26    H     0.19677   0.22795   0.42064   0.00000  Uiso   1.00
H27    H     0.23728   0.56350   0.54709   0.00000  Uiso   1.00
H28    H     0.89408   0.76061   0.44662   0.00000  Uiso   1.00
H29    H     0.26920   0.98854   0.33127   0.00000  Uiso   1.00
H30    H     0.35463   0.69609   0.59792   0.00000  Uiso   1.00
H31    H     0.37492   0.66797   0.24919   0.00000  Uiso   1.00
H32    H     0.24881   0.80572   0.23732   0.00000  Uiso   1.00
H33    H     0.42670   0.43955   0.18261   0.00000  Uiso   1.00
H34    H     0.46721   0.77509   0.30906   0.00000  Uiso   1.00
H35    H     0.08070   0.93236   0.25342   0.00000  Uiso   1.00
H36    H     0.45582   0.16027   0.13807   0.00000  Uiso   1.00
H37    H     0.54125   0.86783   0.40472   0.00000  Uiso   1.00
O38    O     0.90050   0.93344   0.34627   0.00000  Uiso   1.00
O39    O     0.39265   0.92051   0.19493   0.00000  Uiso   1.00
O40    O     0.50472   0.84880   0.54477   0.00000  Uiso   1.00
N41    N     0.95531   0.78215   0.40279   0.00000  Uiso   1.00
N42    N     0.30601   0.06030   0.29493   0.00000  Uiso   1.00
N43    N     0.38590   0.72178   0.54423   0.00000  Uiso   1.00
N44    N     0.05573   0.87456   0.29883   0.00000  Uiso   1.00
N45    N     0.40643   0.15272   0.19097   0.00000  Uiso   1.00
N46    N     0.48631   0.81419   0.44027   0.00000  Uiso   1.00
C47    C     0.79312   0.51335   0.07685   0.00000  Uiso   1.00
C48    C     0.83791   0.61003   0.10786   0.00000  Uiso   1.00
C49    C     0.93150   0.63983   0.07603   0.00000  Uiso   1.00
C50    C     0.95873   0.73085   0.11300   0.00000  Uiso   1.00
C51    C     0.03804   0.87194   0.15107   0.00000  Uiso   1.00
C52    C     0.74126   0.41108   0.13759   0.00000  Uiso   1.00
C53    C     0.75359   0.27360   0.13076   0.00000  Uiso   1.00
C54    C     0.69945   0.19715   0.19275   0.00000  Uiso   1.00
C55    C     0.62867   0.02937   0.27696   0.00000  Uiso   1.00
C56    C     0.71926   0.59340   0.06889   0.00000  Uiso   1.00
C57    C     0.71307   0.60919   0.00428   0.00000  Uiso   1.00
C58    C     0.64039   0.68622   0.00844   0.00000  Uiso   1.00
C59    C     0.53544   0.80150   0.98597   0.00000  Uiso   1.00
C60    C     0.67502   0.62202   0.19911   0.00000  Uiso   1.00
C61    C     0.77376   0.66905   0.17427   0.00000  Uiso   1.00
C62    C     0.80085   0.76006   0.21130   0.00000  Uiso   1.00
C63    C     0.89447   0.78999   0.17953   0.00000  Uiso   1.00
C64    C     0.67712   0.47010   0.20400   0.00000  Uiso   1.00
C65    C     0.62294   0.39384   0.26602   0.00000  Uiso   1.00
C66    C     0.63519   0.25628   0.25928   0.00000  Uiso   1.00
C67    C     0.65511   0.65243   0.13529   0.00000  Uiso   1.00
C68    C     0.58242   0.72943   0.13955   0.00000  Uiso   1.00
C69    C     0.57613   0.74535   0.07496   0.00000  Uiso   1.00
H70    H     0.84306   0.46738   0.02516   0.00000  Uiso   1.00
H71    H     0.98113   0.59411   0.02465   0.00000  Uiso   1.00
H72    H     0.80323   0.22795   0.07936   0.00000  Uiso   1.00
H73    H     0.76272   0.56350   0.95291   0.00000  Uiso   1.00
H74    H     0.10592   0.76061   0.05338   0.00000  Uiso   1.00
H75    H     0.73080   0.98854   0.16873   0.00000  Uiso   1.00
H76    H     0.64537   0.69609   0.90208   0.00000  Uiso   1.00
H77    H     0.62508   0.66797   0.25081   0.00000  Uiso   1.00
H78    H     0.75119   0.80572   0.26268   0.00000  Uiso   1.00
H79    H     0.57330   0.43955   0.31739   0.00000  Uiso   1.00
H80    H     0.53279   0.77509   0.19094   0.00000  Uiso   1.00
H81    H     0.91930   0.93236   0.24658   0.00000  Uiso   1.00
H82    H     0.54418   0.16027   0.36193   0.00000  Uiso   1.00
H83    H     0.45875   0.86783   0.09528   0.00000  Uiso   1.00
O84    O     0.09950   0.93344   0.15373   0.00000  Uiso   1.00
O85    O     0.60735   0.92051   0.30507   0.00000  Uiso   1.00
O86    O     0.49528   0.84880   0.95523   0.00000  Uiso   1.00
N87    N     0.04469   0.78215   0.09721   0.00000  Uiso   1.00
N88    N     0.69399   0.06030   0.20507   0.00000  Uiso   1.00
N89    N     0.61410   0.72178   0.95577   0.00000  Uiso   1.00
N90    N     0.94427   0.87456   0.20117   0.00000  Uiso   1.00
N91    N     0.59357   0.15272   0.30903   0.00000  Uiso   1.00
N92    N     0.51369   0.81419   0.05973   0.00000  Uiso   1.00
C93    C     0.79312   0.48665   0.57685   0.00000  Uiso   1.00
C94    C     0.83791   0.38997   0.60786   0.00000  Uiso   1.00
C95    C     0.93150   0.36017   0.57603   0.00000  Uiso   1.00
C96    C     0.95873   0.26915   0.61300   0.00000  Uiso   1.00
C97    C     0.03804   0.12806   0.65107   0.00000  Uiso   1.00
C98    C     0.74126   0.58892   0.63759   0.00000  Uiso   1.00
C99    C     0.75359   0.72640   0.63076   0.00000  Uiso   1.00
C100   C     0.69945   0.80285   0.69275   0.00000  Uiso   1.00
C101   C     0.62867   0.97063   0.77696   0.00000  Uiso   1.00
C102   C     0.71926   0.40660   0.56889   0.00000  Uiso   1.00
C103   C     0.71307   0.39081   0.50428   0.00000  Uiso   1.00
C104   C     0.64039   0.31378   0.50844   0.00000  Uiso   1.00
C105   C     0.53544   0.19850   0.48597   0.00000  Uiso   1.00
C106   C     0.67502   0.37798   0.69911   0.00000  Uiso   1.00
C107   C     0.77376   0.33095   0.67427   0.00000  Uiso   1.00
C108   C     0.80085   0.23994   0.71130   0.00000  Uiso   1.00
C109   C     0.89447   0.21001   0.67953   0.00000  Uiso   1.00
C110   C     0.67712   0.52990   0.70400   0.00000  Uiso   1.00
C111   C     0.62294   0.60616   0.76602   0.00000  Uiso   1.00
C112   C     0.63519   0.74372   0.75928   0.00000  Uiso   1.00
C113   C     0.65511   0.34757   0.63529   0.00000  Uiso   1.00
C114   C     0.58242   0.27057   0.63955   0.00000  Uiso   1.00
C115   C     0.57613   0.25465   0.57496   0.00000  Uiso   1.00
H116   H     0.84306   0.53262   0.52516   0.00000  Uiso   1.00
H117   H     0.98113   0.40589   0.52465   0.00000  Uiso   1.00
H118   H     0.80323   0.77205   0.57936   0.00000  Uiso   1.00
H119   H     0.76272   0.43650   0.45291   0.00000  Uiso   1.00
H120   H     0.10592   0.23939   0.55338   0.00000  Uiso   1.00
H121   H     0.73080   0.01146   0.66873   0.00000  Uiso   1.00
H122   H     0.64537   0.30391   0.40208   0.00000  Uiso   1.00
H123   H     0.62508   0.33203   0.75081   0.00000  Uiso   1.00
H124   H     0.75119   0.19428   0.76268   0.00000  Uiso   1.00
H125   H     0.57330   0.56045   0.81739   0.00000  Uiso   1.00
H126   H     0.53279   0.22491   0.69094   0.00000  Uiso   1.00
H127   H     0.91930   0.06764   0.74658   0.00000  Uiso   1.00
H128   H     0.54418   0.83973   0.86193   0.00000  Uiso   1.00
H129   H     0.45875   0.13217   0.59528   0.00000  Uiso   1.00
O130   O     0.09950   0.06656   0.65373   0.00000  Uiso   1.00
O131   O     0.60735   0.07949   0.80507   0.00000  Uiso   1.00
O132   O     0.49528   0.15120   0.45523   0.00000  Uiso   1.00
N133   N     0.04469   0.21785   0.59721   0.00000  Uiso   1.00
N134   N     0.69399   0.93970   0.70507   0.00000  Uiso   1.00
N135   N     0.61410   0.27822   0.45577   0.00000  Uiso   1.00
N136   N     0.94427   0.12544   0.70117   0.00000  Uiso   1.00
N137   N     0.59357   0.84728   0.80903   0.00000  Uiso   1.00
N138   N     0.51369   0.18581   0.55973   0.00000  Uiso   1.00
C139   C     0.20688   0.48665   0.92315   0.00000  Uiso   1.00
C140   C     0.16209   0.38997   0.89214   0.00000  Uiso   1.00
C141   C     0.06850   0.36017   0.92397   0.00000  Uiso   1.00
C142   C     0.04127   0.26915   0.88700   0.00000  Uiso   1.00
C143   C     0.96196   0.12806   0.84893   0.00000  Uiso   1.00
C144   C     0.25874   0.58892   0.86241   0.00000  Uiso   1.00
C145   C     0.24641   0.72640   0.86924   0.00000  Uiso   1.00
C146   C     0.30055   0.80285   0.80725   0.00000  Uiso   1.00
C147   C     0.37133   0.97063   0.72304   0.00000  Uiso   1.00
C148   C     0.28074   0.40660   0.93111   0.00000  Uiso   1.00
C149   C     0.28693   0.39081   0.99572   0.00000  Uiso   1.00
C150   C     0.35961   0.31378   0.99156   0.00000  Uiso   1.00
C151   C     0.46456   0.19850   0.01403   0.00000  Uiso   1.00
C152   C     0.32498   0.37798   0.80089   0.00000  Uiso   1.00
C153   C     0.22624   0.33095   0.82573   0.00000  Uiso   1.00
C154   C     0.19915   0.23994   0.78870   0.00000  Uiso   1.00
C155   C     0.10553   0.21001   0.82047   0.00000  Uiso   1.00
C156   C     0.32288   0.52990   0.79600   0.00000  Uiso   1.00
C157   C     0.37706   0.60616   0.73398   0.00000  Uiso   1.00
C158   C     0.36481   0.74372   0.74072   0.00000  Uiso   1.00
C159   C     0.34489   0.34757   0.86471   0.00000  Uiso   1.00
C160   C     0.41758   0.27057   0.86045   0.00000  Uiso   1.00
C161   C     0.42387   0.25465   0.92504   0.00000  Uiso   1.00
H162   H     0.15694   0.53262   0.97484   0.00000  Uiso   1.00
H163   H     0.01887   0.40589   0.97535   0.00000  Uiso   1.00
H164   H     0.19677   0.77205   0.92064   0.00000  Uiso   1.00
H165   H     0.23728   0.43650   0.04709   0.00000  Uiso   1.00
H166   H     0.89408   0.23939   0.94662   0.00000  Uiso   1.00
H167   H     0.26920   0.01146   0.83127   0.00000  Uiso   1.00
H168   H     0.35463   0.30391   0.09792   0.00000  Uiso   1.00
H169   H     0.37492   0.33203   0.74919   0.00000  Uiso   1.00
H170   H     0.24881   0.19428   0.73732   0.00000  Uiso   1.00
H171   H     0.42670   0.56045   0.68261   0.00000  Uiso   1.00
H172   H     0.46721   0.22491   0.80906   0.00000  Uiso   1.00
H173   H     0.08070   0.06764   0.75342   0.00000  Uiso   1.00
H174   H     0.45582   0.83973   0.63807   0.00000  Uiso   1.00
H175   H     0.54125   0.13217   0.90472   0.00000  Uiso   1.00
O176   O     0.90050   0.06656   0.84627   0.00000  Uiso   1.00
O177   O     0.39265   0.07949   0.69493   0.00000  Uiso   1.00
O178   O     0.50472   0.15120   0.04477   0.00000  Uiso   1.00
N179   N     0.95531   0.21785   0.90279   0.00000  Uiso   1.00
N180   N     0.30601   0.93970   0.79493   0.00000  Uiso   1.00
N181   N     0.38590   0.27822   0.04423   0.00000  Uiso   1.00
N182   N     0.05573   0.12544   0.79883   0.00000  Uiso   1.00
N183   N     0.40643   0.84728   0.69097   0.00000  Uiso   1.00
N184   N     0.48631   0.18581   0.94027   0.00000  Uiso   1.00
