data_job_05573
_audit_creation_date              2018-12-19
_audit_creation_method            'Materials Studio'
_symmetry_space_group_name_H-M    'P1'
_symmetry_Int_Tables_number       1
_symmetry_cell_setting            triclinic
loop_
_symmetry_equiv_pos_as_xyz
  x,y,z
_cell_length_a                    30.4941
_cell_length_b                    16.1566
_cell_length_c                    10.7183
_cell_angle_alpha                 90.0000
_cell_angle_beta                  90.0000
_cell_angle_gamma                 90.0000
loop_
_atom_site_label
_atom_site_type_symbol
_atom_site_fract_x
_atom_site_fract_y
_atom_site_fract_z
_atom_site_U_iso_or_equiv
_atom_site_adp_type
_atom_site_occupancy
C1     C     0.67726   0.24630   0.24097   0.00000  Uiso   1.00
C2     C     0.64172   0.19606   0.17551   0.00000  Uiso   1.00
C3     C     0.64738   0.11898   0.12070   0.00000  Uiso   1.00
C4     C     0.61080   0.08323   0.06552   0.00000  Uiso   1.00
C5     C     0.56183   0.99917   0.96386   0.00000  Uiso   1.00
C6     C     0.67856   0.32987   0.17495   0.00000  Uiso   1.00
C7     C     0.71520   0.36529   0.11970   0.00000  Uiso   1.00
C8     C     0.70963   0.44218   0.06407   0.00000  Uiso   1.00
C9     C     0.71785   0.56588   0.96163   0.00000  Uiso   1.00
C10    C     0.66009   0.26339   0.37208   0.00000  Uiso   1.00
C11    C     0.68119   0.24294   0.48258   0.00000  Uiso   1.00
C12    C     0.66007   0.26388   0.59292   0.00000  Uiso   1.00
C13    C     0.63961   0.28436   0.79654   0.00000  Uiso   1.00
C14    C     0.60224   0.31988   0.24044   0.00000  Uiso   1.00
C15    C     0.60097   0.23604   0.17521   0.00000  Uiso   1.00
C16    C     0.56438   0.20039   0.12011   0.00000  Uiso   1.00
C17    C     0.56998   0.12327   0.06523   0.00000  Uiso   1.00
C18    C     0.63781   0.36984   0.17466   0.00000  Uiso   1.00
C19    C     0.63219   0.44670   0.11910   0.00000  Uiso   1.00
C20    C     0.66881   0.48222   0.06377   0.00000  Uiso   1.00
C21    C     0.61933   0.30336   0.37179   0.00000  Uiso   1.00
C22    C     0.59818   0.32435   0.48198   0.00000  Uiso   1.00
C23    C     0.61925   0.30392   0.59262   0.00000  Uiso   1.00
H24    H     0.70899   0.21518   0.24120   0.00000  Uiso   1.00
H25    H     0.67892   0.08807   0.12094   0.00000  Uiso   1.00
H26    H     0.74673   0.33434   0.11995   0.00000  Uiso   1.00
H27    H     0.71272   0.21201   0.48277   0.00000  Uiso   1.00
H28    H     0.62763   0.96478   0.98744   0.00000  Uiso   1.00
H29    H     0.77060   0.48407   0.98539   0.00000  Uiso   1.00
H30    H     0.69889   0.22610   0.75047   0.00000  Uiso   1.00
H31    H     0.57051   0.35101   0.24021   0.00000  Uiso   1.00
H32    H     0.53285   0.23134   0.11990   0.00000  Uiso   1.00
H33    H     0.60065   0.47761   0.11890   0.00000  Uiso   1.00
H34    H     0.56665   0.35528   0.48172   0.00000  Uiso   1.00
H35    H     0.50906   0.08107   0.98659   0.00000  Uiso   1.00
H36    H     0.65204   0.60036   0.98454   0.00000  Uiso   1.00
H37    H     0.58033   0.34239   0.74961   0.00000  Uiso   1.00
O38    O     0.54607   0.94177   0.90785   0.00000  Uiso   1.00
O39    O     0.73365   0.62306   0.90519   0.00000  Uiso   1.00
O40    O     0.63957   0.28461   0.90894   0.00000  Uiso   1.00
N41    N     0.60489   0.00857   0.00377   0.00000  Uiso   1.00
N42    N     0.73856   0.49407   0.00184   0.00000  Uiso   1.00
N43    N     0.67153   0.25291   0.71712   0.00000  Uiso   1.00
N44    N     0.54109   0.07114   0.00332   0.00000  Uiso   1.00
N45    N     0.67476   0.55664   0.00138   0.00000  Uiso   1.00
N46    N     0.60773   0.31548   0.71666   0.00000  Uiso   1.00
C47    C     0.32269   0.25305   0.41231   0.00000  Uiso   1.00
C48    C     0.35817   0.30349   0.47770   0.00000  Uiso   1.00
C49    C     0.35238   0.38045   0.53277   0.00000  Uiso   1.00
C50    C     0.38892   0.41642   0.58783   0.00000  Uiso   1.00
C51    C     0.43778   0.50075   0.68943   0.00000  Uiso   1.00
C52    C     0.32163   0.16938   0.47809   0.00000  Uiso   1.00
C53    C     0.28512   0.13359   0.53347   0.00000  Uiso   1.00
C54    C     0.29091   0.05667   0.58884   0.00000  Uiso   1.00
C55    C     0.28305   0.93277   0.69096   0.00000  Uiso   1.00
C56    C     0.33980   0.23627   0.28105   0.00000  Uiso   1.00
C57    C     0.31856   0.25670   0.17074   0.00000  Uiso   1.00
C58    C     0.33964   0.23607   0.06021   0.00000  Uiso   1.00
C59    C     0.35999   0.21602   0.85639   0.00000  Uiso   1.00
C60    C     0.39788   0.18007   0.41215   0.00000  Uiso   1.00
C61    C     0.39901   0.26384   0.47761   0.00000  Uiso   1.00
C62    C     0.43557   0.29971   0.53259   0.00000  Uiso   1.00
C63    C     0.42983   0.37672   0.58773   0.00000  Uiso   1.00
C64    C     0.36247   0.12974   0.47800   0.00000  Uiso   1.00
C65    C     0.36832   0.05286   0.53329   0.00000  Uiso   1.00
C66    C     0.33183   0.01696   0.58875   0.00000  Uiso   1.00
C67    C     0.38064   0.19663   0.28095   0.00000  Uiso   1.00
C68    C     0.40176   0.17596   0.17057   0.00000  Uiso   1.00
C69    C     0.38056   0.19636   0.06012   0.00000  Uiso   1.00
H70    H     0.29089   0.28391   0.41238   0.00000  Uiso   1.00
H71    H     0.32076   0.41110   0.53283   0.00000  Uiso   1.00
H72    H     0.25352   0.16428   0.53351   0.00000  Uiso   1.00
H73    H     0.28696   0.28737   0.17085   0.00000  Uiso   1.00
H74    H     0.37189   0.53463   0.66637   0.00000  Uiso   1.00
H75    H     0.23010   0.01418   0.66777   0.00000  Uiso   1.00
H76    H     0.30061   0.27374   0.90302   0.00000  Uiso   1.00
H77    H     0.42968   0.14921   0.41208   0.00000  Uiso   1.00
H78    H     0.46717   0.26902   0.53251   0.00000  Uiso   1.00
H79    H     0.39992   0.02220   0.53320   0.00000  Uiso   1.00
H80    H     0.43336   0.14529   0.17053   0.00000  Uiso   1.00
H81    H     0.49071   0.41931   0.66612   0.00000  Uiso   1.00
H82    H     0.34893   0.89886   0.66752   0.00000  Uiso   1.00
H83    H     0.41943   0.15842   0.90277   0.00000  Uiso   1.00
O84    O     0.45345   0.55820   0.74551   0.00000  Uiso   1.00
O85    O     0.26743   0.87539   0.74733   0.00000  Uiso   1.00
O86    O     0.35994   0.21593   0.74399   0.00000  Uiso   1.00
N87    N     0.39471   0.49106   0.64976   0.00000  Uiso   1.00
N88    N     0.26215   0.00447   0.65109   0.00000  Uiso   1.00
N89    N     0.32806   0.24712   0.93611   0.00000  Uiso   1.00
N90    N     0.45865   0.42900   0.64962   0.00000  Uiso   1.00
N91    N     0.32609   0.94242   0.65095   0.00000  Uiso   1.00
N92    N     0.39200   0.18506   0.93597   0.00000  Uiso   1.00
C93    C     0.32274   0.75370   0.24097   0.00000  Uiso   1.00
C94    C     0.35828   0.80394   0.17551   0.00000  Uiso   1.00
C95    C     0.35262   0.88102   0.12070   0.00000  Uiso   1.00
C96    C     0.38920   0.91677   0.06552   0.00000  Uiso   1.00
C97    C     0.43817   0.00083   0.96386   0.00000  Uiso   1.00
C98    C     0.32144   0.67013   0.17495   0.00000  Uiso   1.00
C99    C     0.28480   0.63471   0.11970   0.00000  Uiso   1.00
C100   C     0.29037   0.55782   0.06407   0.00000  Uiso   1.00
C101   C     0.28215   0.43412   0.96163   0.00000  Uiso   1.00
C102   C     0.33991   0.73661   0.37208   0.00000  Uiso   1.00
C103   C     0.31881   0.75706   0.48258   0.00000  Uiso   1.00
C104   C     0.33993   0.73612   0.59292   0.00000  Uiso   1.00
C105   C     0.36039   0.71564   0.79654   0.00000  Uiso   1.00
C106   C     0.39776   0.68012   0.24044   0.00000  Uiso   1.00
C107   C     0.39903   0.76396   0.17521   0.00000  Uiso   1.00
C108   C     0.43562   0.79961   0.12011   0.00000  Uiso   1.00
C109   C     0.43002   0.87673   0.06523   0.00000  Uiso   1.00
C110   C     0.36219   0.63016   0.17466   0.00000  Uiso   1.00
C111   C     0.36781   0.55330   0.11910   0.00000  Uiso   1.00
C112   C     0.33119   0.51778   0.06377   0.00000  Uiso   1.00
C113   C     0.38067   0.69664   0.37179   0.00000  Uiso   1.00
C114   C     0.40182   0.67565   0.48198   0.00000  Uiso   1.00
C115   C     0.38075   0.69608   0.59262   0.00000  Uiso   1.00
H116   H     0.29101   0.78482   0.24120   0.00000  Uiso   1.00
H117   H     0.32108   0.91193   0.12094   0.00000  Uiso   1.00
H118   H     0.25327   0.66566   0.11995   0.00000  Uiso   1.00
H119   H     0.28728   0.78799   0.48277   0.00000  Uiso   1.00
H120   H     0.37237   0.03522   0.98744   0.00000  Uiso   1.00
H121   H     0.22940   0.51593   0.98539   0.00000  Uiso   1.00
H122   H     0.30111   0.77390   0.75047   0.00000  Uiso   1.00
H123   H     0.42949   0.64899   0.24021   0.00000  Uiso   1.00
H124   H     0.46715   0.76866   0.11990   0.00000  Uiso   1.00
H125   H     0.39935   0.52239   0.11890   0.00000  Uiso   1.00
H126   H     0.43335   0.64472   0.48172   0.00000  Uiso   1.00
H127   H     0.49094   0.91893   0.98659   0.00000  Uiso   1.00
H128   H     0.34796   0.39964   0.98454   0.00000  Uiso   1.00
H129   H     0.41967   0.65761   0.74961   0.00000  Uiso   1.00
O130   O     0.45393   0.05823   0.90785   0.00000  Uiso   1.00
O131   O     0.26635   0.37694   0.90519   0.00000  Uiso   1.00
O132   O     0.36043   0.71539   0.90894   0.00000  Uiso   1.00
N133   N     0.39511   0.99143   0.00377   0.00000  Uiso   1.00
N134   N     0.26144   0.50593   0.00184   0.00000  Uiso   1.00
N135   N     0.32847   0.74709   0.71712   0.00000  Uiso   1.00
N136   N     0.45891   0.92886   0.00332   0.00000  Uiso   1.00
N137   N     0.32524   0.44336   0.00138   0.00000  Uiso   1.00
N138   N     0.39227   0.68452   0.71666   0.00000  Uiso   1.00
C139   C     0.67731   0.74695   0.41231   0.00000  Uiso   1.00
C140   C     0.64183   0.69651   0.47770   0.00000  Uiso   1.00
C141   C     0.64762   0.61955   0.53277   0.00000  Uiso   1.00
C142   C     0.61108   0.58358   0.58783   0.00000  Uiso   1.00
C143   C     0.56222   0.49925   0.68943   0.00000  Uiso   1.00
C144   C     0.67837   0.83062   0.47809   0.00000  Uiso   1.00
C145   C     0.71488   0.86641   0.53347   0.00000  Uiso   1.00
C146   C     0.70909   0.94333   0.58884   0.00000  Uiso   1.00
C147   C     0.71695   0.06723   0.69096   0.00000  Uiso   1.00
C148   C     0.66020   0.76373   0.28105   0.00000  Uiso   1.00
C149   C     0.68144   0.74330   0.17074   0.00000  Uiso   1.00
C150   C     0.66036   0.76393   0.06021   0.00000  Uiso   1.00
C151   C     0.64001   0.78398   0.85639   0.00000  Uiso   1.00
C152   C     0.60212   0.81993   0.41215   0.00000  Uiso   1.00
C153   C     0.60099   0.73616   0.47761   0.00000  Uiso   1.00
C154   C     0.56443   0.70029   0.53259   0.00000  Uiso   1.00
C155   C     0.57017   0.62328   0.58773   0.00000  Uiso   1.00
C156   C     0.63753   0.87026   0.47800   0.00000  Uiso   1.00
C157   C     0.63168   0.94714   0.53329   0.00000  Uiso   1.00
C158   C     0.66817   0.98304   0.58875   0.00000  Uiso   1.00
C159   C     0.61936   0.80337   0.28095   0.00000  Uiso   1.00
C160   C     0.59824   0.82404   0.17057   0.00000  Uiso   1.00
C161   C     0.61944   0.80364   0.06012   0.00000  Uiso   1.00
H162   H     0.70911   0.71609   0.41238   0.00000  Uiso   1.00
H163   H     0.67924   0.58890   0.53283   0.00000  Uiso   1.00
H164   H     0.74648   0.83572   0.53351   0.00000  Uiso   1.00
H165   H     0.71304   0.71263   0.17085   0.00000  Uiso   1.00
H166   H     0.62811   0.46537   0.66637   0.00000  Uiso   1.00
H167   H     0.76990   0.98582   0.66777   0.00000  Uiso   1.00
H168   H     0.69939   0.72626   0.90302   0.00000  Uiso   1.00
H169   H     0.57032   0.85079   0.41208   0.00000  Uiso   1.00
H170   H     0.53283   0.73098   0.53251   0.00000  Uiso   1.00
H171   H     0.60008   0.97780   0.53320   0.00000  Uiso   1.00
H172   H     0.56664   0.85471   0.17053   0.00000  Uiso   1.00
H173   H     0.50929   0.58069   0.66612   0.00000  Uiso   1.00
H174   H     0.65107   0.10114   0.66752   0.00000  Uiso   1.00
H175   H     0.58057   0.84158   0.90277   0.00000  Uiso   1.00
O176   O     0.54655   0.44180   0.74551   0.00000  Uiso   1.00
O177   O     0.73257   0.12461   0.74733   0.00000  Uiso   1.00
O178   O     0.64006   0.78407   0.74399   0.00000  Uiso   1.00
N179   N     0.60529   0.50894   0.64976   0.00000  Uiso   1.00
N180   N     0.73785   0.99553   0.65109   0.00000  Uiso   1.00
N181   N     0.67194   0.75288   0.93611   0.00000  Uiso   1.00
N182   N     0.54135   0.57100   0.64962   0.00000  Uiso   1.00
N183   N     0.67391   0.05758   0.65095   0.00000  Uiso   1.00
N184   N     0.60800   0.81494   0.93597   0.00000  Uiso   1.00
C185   C     0.82274   0.74630   0.75903   0.00000  Uiso   1.00
C186   C     0.85828   0.69606   0.82449   0.00000  Uiso   1.00
C187   C     0.85262   0.61898   0.87930   0.00000  Uiso   1.00
C188   C     0.88920   0.58323   0.93448   0.00000  Uiso   1.00
C189   C     0.93817   0.49917   0.03614   0.00000  Uiso   1.00
C190   C     0.82144   0.82987   0.82505   0.00000  Uiso   1.00
C191   C     0.78480   0.86529   0.88030   0.00000  Uiso   1.00
C192   C     0.79037   0.94218   0.93593   0.00000  Uiso   1.00
C193   C     0.78215   0.06588   0.03837   0.00000  Uiso   1.00
C194   C     0.83991   0.76339   0.62792   0.00000  Uiso   1.00
C195   C     0.81881   0.74294   0.51742   0.00000  Uiso   1.00
C196   C     0.83993   0.76388   0.40708   0.00000  Uiso   1.00
C197   C     0.86039   0.78436   0.20346   0.00000  Uiso   1.00
C198   C     0.89776   0.81988   0.75956   0.00000  Uiso   1.00
C199   C     0.89903   0.73604   0.82479   0.00000  Uiso   1.00
C200   C     0.93562   0.70039   0.87989   0.00000  Uiso   1.00
C201   C     0.93002   0.62327   0.93477   0.00000  Uiso   1.00
C202   C     0.86219   0.86984   0.82534   0.00000  Uiso   1.00
C203   C     0.86781   0.94670   0.88090   0.00000  Uiso   1.00
C204   C     0.83119   0.98222   0.93623   0.00000  Uiso   1.00
C205   C     0.88067   0.80336   0.62821   0.00000  Uiso   1.00
C206   C     0.90182   0.82435   0.51802   0.00000  Uiso   1.00
C207   C     0.88075   0.80392   0.40738   0.00000  Uiso   1.00
H208   H     0.79101   0.71518   0.75880   0.00000  Uiso   1.00
H209   H     0.82108   0.58807   0.87906   0.00000  Uiso   1.00
H210   H     0.75327   0.83434   0.88005   0.00000  Uiso   1.00
H211   H     0.78728   0.71201   0.51723   0.00000  Uiso   1.00
H212   H     0.87237   0.46478   0.01256   0.00000  Uiso   1.00
H213   H     0.72940   0.98407   0.01461   0.00000  Uiso   1.00
H214   H     0.80111   0.72610   0.24953   0.00000  Uiso   1.00
H215   H     0.92949   0.85101   0.75979   0.00000  Uiso   1.00
H216   H     0.96715   0.73134   0.88010   0.00000  Uiso   1.00
H217   H     0.89935   0.97761   0.88110   0.00000  Uiso   1.00
H218   H     0.93335   0.85528   0.51828   0.00000  Uiso   1.00
H219   H     0.99094   0.58107   0.01341   0.00000  Uiso   1.00
H220   H     0.84796   0.10036   0.01546   0.00000  Uiso   1.00
H221   H     0.91967   0.84239   0.25039   0.00000  Uiso   1.00
O222   O     0.95393   0.44177   0.09215   0.00000  Uiso   1.00
O223   O     0.76635   0.12306   0.09481   0.00000  Uiso   1.00
O224   O     0.86043   0.78461   0.09106   0.00000  Uiso   1.00
N225   N     0.89511   0.50857   0.99623   0.00000  Uiso   1.00
N226   N     0.76144   0.99407   0.99816   0.00000  Uiso   1.00
N227   N     0.82847   0.75291   0.28288   0.00000  Uiso   1.00
N228   N     0.95891   0.57114   0.99668   0.00000  Uiso   1.00
N229   N     0.82524   0.05664   0.99862   0.00000  Uiso   1.00
N230   N     0.89227   0.81548   0.28334   0.00000  Uiso   1.00
C231   C     0.17731   0.75305   0.58769   0.00000  Uiso   1.00
C232   C     0.14183   0.80349   0.52230   0.00000  Uiso   1.00
C233   C     0.14762   0.88045   0.46723   0.00000  Uiso   1.00
C234   C     0.11108   0.91642   0.41217   0.00000  Uiso   1.00
C235   C     0.06222   0.00075   0.31057   0.00000  Uiso   1.00
C236   C     0.17837   0.66938   0.52191   0.00000  Uiso   1.00
C237   C     0.21488   0.63359   0.46653   0.00000  Uiso   1.00
C238   C     0.20909   0.55667   0.41116   0.00000  Uiso   1.00
C239   C     0.21695   0.43277   0.30904   0.00000  Uiso   1.00
C240   C     0.16020   0.73627   0.71895   0.00000  Uiso   1.00
C241   C     0.18144   0.75670   0.82926   0.00000  Uiso   1.00
C242   C     0.16036   0.73607   0.93979   0.00000  Uiso   1.00
C243   C     0.14001   0.71602   0.14361   0.00000  Uiso   1.00
C244   C     0.10212   0.68007   0.58785   0.00000  Uiso   1.00
C245   C     0.10099   0.76384   0.52239   0.00000  Uiso   1.00
C246   C     0.06443   0.79971   0.46741   0.00000  Uiso   1.00
C247   C     0.07017   0.87672   0.41227   0.00000  Uiso   1.00
C248   C     0.13753   0.62974   0.52200   0.00000  Uiso   1.00
C249   C     0.13168   0.55286   0.46671   0.00000  Uiso   1.00
C250   C     0.16817   0.51696   0.41125   0.00000  Uiso   1.00
C251   C     0.11936   0.69663   0.71905   0.00000  Uiso   1.00
C252   C     0.09824   0.67596   0.82943   0.00000  Uiso   1.00
C253   C     0.11944   0.69636   0.93988   0.00000  Uiso   1.00
H254   H     0.20911   0.78391   0.58762   0.00000  Uiso   1.00
H255   H     0.17924   0.91110   0.46717   0.00000  Uiso   1.00
H256   H     0.24648   0.66428   0.46649   0.00000  Uiso   1.00
H257   H     0.21304   0.78737   0.82915   0.00000  Uiso   1.00
H258   H     0.12811   0.03463   0.33363   0.00000  Uiso   1.00
H259   H     0.26990   0.51418   0.33223   0.00000  Uiso   1.00
H260   H     0.19939   0.77374   0.09698   0.00000  Uiso   1.00
H261   H     0.07032   0.64921   0.58792   0.00000  Uiso   1.00
H262   H     0.03283   0.76902   0.46749   0.00000  Uiso   1.00
H263   H     0.10008   0.52220   0.46680   0.00000  Uiso   1.00
H264   H     0.06664   0.64529   0.82947   0.00000  Uiso   1.00
H265   H     0.00929   0.91931   0.33388   0.00000  Uiso   1.00
H266   H     0.15107   0.39886   0.33248   0.00000  Uiso   1.00
H267   H     0.08057   0.65842   0.09723   0.00000  Uiso   1.00
O268   O     0.04655   0.05820   0.25449   0.00000  Uiso   1.00
O269   O     0.23257   0.37539   0.25267   0.00000  Uiso   1.00
O270   O     0.14006   0.71593   0.25601   0.00000  Uiso   1.00
N271   N     0.10529   0.99106   0.35024   0.00000  Uiso   1.00
N272   N     0.23785   0.50447   0.34891   0.00000  Uiso   1.00
N273   N     0.17194   0.74712   0.06389   0.00000  Uiso   1.00
N274   N     0.04135   0.92900   0.35038   0.00000  Uiso   1.00
N275   N     0.17391   0.44242   0.34905   0.00000  Uiso   1.00
N276   N     0.10800   0.68506   0.06403   0.00000  Uiso   1.00
C277   C     0.17726   0.25370   0.75903   0.00000  Uiso   1.00
C278   C     0.14172   0.30394   0.82449   0.00000  Uiso   1.00
C279   C     0.14738   0.38102   0.87930   0.00000  Uiso   1.00
C280   C     0.11080   0.41677   0.93448   0.00000  Uiso   1.00
C281   C     0.06183   0.50083   0.03614   0.00000  Uiso   1.00
C282   C     0.17856   0.17013   0.82505   0.00000  Uiso   1.00
C283   C     0.21520   0.13471   0.88030   0.00000  Uiso   1.00
C284   C     0.20963   0.05782   0.93593   0.00000  Uiso   1.00
C285   C     0.21785   0.93412   0.03837   0.00000  Uiso   1.00
C286   C     0.16009   0.23661   0.62792   0.00000  Uiso   1.00
C287   C     0.18119   0.25706   0.51742   0.00000  Uiso   1.00
C288   C     0.16007   0.23612   0.40708   0.00000  Uiso   1.00
C289   C     0.13961   0.21564   0.20346   0.00000  Uiso   1.00
C290   C     0.10224   0.18012   0.75956   0.00000  Uiso   1.00
C291   C     0.10097   0.26396   0.82479   0.00000  Uiso   1.00
C292   C     0.06438   0.29961   0.87989   0.00000  Uiso   1.00
C293   C     0.06998   0.37673   0.93477   0.00000  Uiso   1.00
C294   C     0.13781   0.13016   0.82534   0.00000  Uiso   1.00
C295   C     0.13219   0.05330   0.88090   0.00000  Uiso   1.00
C296   C     0.16881   0.01778   0.93623   0.00000  Uiso   1.00
C297   C     0.11933   0.19664   0.62821   0.00000  Uiso   1.00
C298   C     0.09818   0.17565   0.51802   0.00000  Uiso   1.00
C299   C     0.11925   0.19608   0.40738   0.00000  Uiso   1.00
H300   H     0.20899   0.28482   0.75880   0.00000  Uiso   1.00
H301   H     0.17892   0.41193   0.87906   0.00000  Uiso   1.00
H302   H     0.24673   0.16566   0.88005   0.00000  Uiso   1.00
H303   H     0.21272   0.28799   0.51723   0.00000  Uiso   1.00
H304   H     0.12763   0.53522   0.01256   0.00000  Uiso   1.00
H305   H     0.27060   0.01593   0.01461   0.00000  Uiso   1.00
H306   H     0.19889   0.27390   0.24953   0.00000  Uiso   1.00
H307   H     0.07051   0.14899   0.75979   0.00000  Uiso   1.00
H308   H     0.03285   0.26866   0.88010   0.00000  Uiso   1.00
H309   H     0.10065   0.02239   0.88110   0.00000  Uiso   1.00
H310   H     0.06665   0.14472   0.51828   0.00000  Uiso   1.00
H311   H     0.00906   0.41893   0.01341   0.00000  Uiso   1.00
H312   H     0.15204   0.89964   0.01546   0.00000  Uiso   1.00
H313   H     0.08033   0.15761   0.25039   0.00000  Uiso   1.00
O314   O     0.04607   0.55823   0.09215   0.00000  Uiso   1.00
O315   O     0.23365   0.87694   0.09481   0.00000  Uiso   1.00
O316   O     0.13957   0.21539   0.09106   0.00000  Uiso   1.00
N317   N     0.10489   0.49143   0.99623   0.00000  Uiso   1.00
N318   N     0.23856   0.00593   0.99816   0.00000  Uiso   1.00
N319   N     0.17153   0.24709   0.28288   0.00000  Uiso   1.00
N320   N     0.04109   0.42886   0.99668   0.00000  Uiso   1.00
N321   N     0.17476   0.94336   0.99862   0.00000  Uiso   1.00
N322   N     0.10773   0.18452   0.28334   0.00000  Uiso   1.00
C323   C     0.82269   0.24695   0.58769   0.00000  Uiso   1.00
C324   C     0.85817   0.19651   0.52230   0.00000  Uiso   1.00
C325   C     0.85238   0.11955   0.46723   0.00000  Uiso   1.00
C326   C     0.88892   0.08358   0.41217   0.00000  Uiso   1.00
C327   C     0.93778   0.99925   0.31057   0.00000  Uiso   1.00
C328   C     0.82163   0.33062   0.52191   0.00000  Uiso   1.00
C329   C     0.78512   0.36641   0.46653   0.00000  Uiso   1.00
C330   C     0.79091   0.44333   0.41116   0.00000  Uiso   1.00
C331   C     0.78305   0.56723   0.30904   0.00000  Uiso   1.00
C332   C     0.83980   0.26373   0.71895   0.00000  Uiso   1.00
C333   C     0.81856   0.24330   0.82926   0.00000  Uiso   1.00
C334   C     0.83964   0.26393   0.93979   0.00000  Uiso   1.00
C335   C     0.85999   0.28398   0.14361   0.00000  Uiso   1.00
C336   C     0.89788   0.31993   0.58785   0.00000  Uiso   1.00
C337   C     0.89901   0.23616   0.52239   0.00000  Uiso   1.00
C338   C     0.93557   0.20029   0.46741   0.00000  Uiso   1.00
C339   C     0.92983   0.12328   0.41227   0.00000  Uiso   1.00
C340   C     0.86247   0.37026   0.52200   0.00000  Uiso   1.00
C341   C     0.86832   0.44714   0.46671   0.00000  Uiso   1.00
C342   C     0.83183   0.48304   0.41125   0.00000  Uiso   1.00
C343   C     0.88064   0.30337   0.71905   0.00000  Uiso   1.00
C344   C     0.90176   0.32404   0.82943   0.00000  Uiso   1.00
C345   C     0.88056   0.30364   0.93988   0.00000  Uiso   1.00
H346   H     0.79089   0.21609   0.58762   0.00000  Uiso   1.00
H347   H     0.82076   0.08890   0.46717   0.00000  Uiso   1.00
H348   H     0.75352   0.33572   0.46649   0.00000  Uiso   1.00
H349   H     0.78696   0.21263   0.82915   0.00000  Uiso   1.00
H350   H     0.87189   0.96537   0.33363   0.00000  Uiso   1.00
H351   H     0.73010   0.48582   0.33223   0.00000  Uiso   1.00
H352   H     0.80061   0.22626   0.09698   0.00000  Uiso   1.00
H353   H     0.92968   0.35079   0.58792   0.00000  Uiso   1.00
H354   H     0.96717   0.23098   0.46749   0.00000  Uiso   1.00
H355   H     0.89992   0.47780   0.46680   0.00000  Uiso   1.00
H356   H     0.93336   0.35471   0.82947   0.00000  Uiso   1.00
H357   H     0.99071   0.08069   0.33388   0.00000  Uiso   1.00
H358   H     0.84893   0.60114   0.33248   0.00000  Uiso   1.00
H359   H     0.91943   0.34158   0.09723   0.00000  Uiso   1.00
O360   O     0.95345   0.94180   0.25449   0.00000  Uiso   1.00
O361   O     0.76743   0.62461   0.25267   0.00000  Uiso   1.00
O362   O     0.85994   0.28407   0.25601   0.00000  Uiso   1.00
N363   N     0.89471   0.00894   0.35024   0.00000  Uiso   1.00
N364   N     0.76215   0.49553   0.34891   0.00000  Uiso   1.00
N365   N     0.82806   0.25288   0.06389   0.00000  Uiso   1.00
N366   N     0.95865   0.07100   0.35038   0.00000  Uiso   1.00
N367   N     0.82609   0.55758   0.34905   0.00000  Uiso   1.00
N368   N     0.89200   0.31494   0.06403   0.00000  Uiso   1.00
