data_job_04544
_audit_creation_date              2018-12-19
_audit_creation_method            'Materials Studio'
_symmetry_space_group_name_H-M    'P1'
_symmetry_Int_Tables_number       1
_symmetry_cell_setting            triclinic
loop_
_symmetry_equiv_pos_as_xyz
  x,y,z
_cell_length_a                    24.0426
_cell_length_b                    7.0413
_cell_length_c                    27.6227
_cell_angle_alpha                 90.0000
_cell_angle_beta                  90.0000
_cell_angle_gamma                 90.0000
loop_
_atom_site_label
_atom_site_type_symbol
_atom_site_fract_x
_atom_site_fract_y
_atom_site_fract_z
_atom_site_U_iso_or_equiv
_atom_site_adp_type
_atom_site_occupancy
C1     C     0.26617   0.22631   0.58387   0.00000  Uiso   1.00
C2     C     0.26839   0.36867   0.54231   0.00000  Uiso   1.00
C3     C     0.26455   0.32492   0.49344   0.00000  Uiso   1.00
C4     C     0.26750   0.47541   0.46106   0.00000  Uiso   1.00
C5     C     0.26999   0.66794   0.39410   0.00000  Uiso   1.00
C6     C     0.31953   0.25539   0.61276   0.00000  Uiso   1.00
C7     C     0.35869   0.11639   0.62313   0.00000  Uiso   1.00
C8     C     0.40469   0.17152   0.65007   0.00000  Uiso   1.00
C9     C     0.48656   0.18815   0.69252   0.00000  Uiso   1.00
C10    C     0.21885   0.29132   0.61669   0.00000  Uiso   1.00
C11    C     0.17336   0.18252   0.63036   0.00000  Uiso   1.00
C12    C     0.13460   0.26789   0.66062   0.00000  Uiso   1.00
C13    C     0.06015   0.34032   0.70916   0.00000  Uiso   1.00
C14    C     0.27824   0.57137   0.61328   0.00000  Uiso   1.00
C15    C     0.27495   0.55609   0.55829   0.00000  Uiso   1.00
C16    C     0.27791   0.70669   0.52598   0.00000  Uiso   1.00
C17    C     0.27407   0.66317   0.47707   0.00000  Uiso   1.00
C18    C     0.32610   0.44281   0.62874   0.00000  Uiso   1.00
C19    C     0.37205   0.49816   0.65567   0.00000  Uiso   1.00
C20    C     0.41127   0.35928   0.66607   0.00000  Uiso   1.00
C21    C     0.22541   0.47875   0.63266   0.00000  Uiso   1.00
C22    C     0.18672   0.56430   0.66290   0.00000  Uiso   1.00
C23    C     0.14118   0.45565   0.67662   0.00000  Uiso   1.00
H24    H     0.26106   0.08039   0.57143   0.00000  Uiso   1.00
H25    H     0.25948   0.17986   0.48109   0.00000  Uiso   1.00
H26    H     0.35360   0.97136   0.61077   0.00000  Uiso   1.00
H27    H     0.16830   0.03749   0.61799   0.00000  Uiso   1.00
H28    H     0.26064   0.37278   0.38797   0.00000  Uiso   1.00
H29    H     0.45908   0.93313   0.66142   0.00000  Uiso   1.00
H30    H     0.06834   0.07258   0.67666   0.00000  Uiso   1.00
H31    H     0.28335   0.71729   0.62572   0.00000  Uiso   1.00
H32    H     0.28299   0.85172   0.53835   0.00000  Uiso   1.00
H33    H     0.37711   0.64321   0.66803   0.00000  Uiso   1.00
H34    H     0.19181   0.70934   0.67526   0.00000  Uiso   1.00
H35    H     0.27972   0.91808   0.43445   0.00000  Uiso   1.00
H36    H     0.47817   0.47843   0.70790   0.00000  Uiso   1.00
H37    H     0.08743   0.61788   0.72314   0.00000  Uiso   1.00
O38    O     0.26956   0.72236   0.35276   0.00000  Uiso   1.00
O39    O     0.52991   0.14555   0.71151   0.00000  Uiso   1.00
O40    O     0.01727   0.32850   0.73151   0.00000  Uiso   1.00
N41    N     0.26517   0.48268   0.41090   0.00000  Uiso   1.00
N42    N     0.45071   0.07163   0.66655   0.00000  Uiso   1.00
N43    N     0.08541   0.20199   0.68081   0.00000  Uiso   1.00
N44    N     0.27543   0.77610   0.43591   0.00000  Uiso   1.00
N45    N     0.46098   0.36506   0.69156   0.00000  Uiso   1.00
N46    N     0.09568   0.49541   0.70582   0.00000  Uiso   1.00
C47    C     0.47929   0.22846   0.39193   0.00000  Uiso   1.00
C48    C     0.47667   0.37160   0.43330   0.00000  Uiso   1.00
C49    C     0.48061   0.32898   0.48223   0.00000  Uiso   1.00
C50    C     0.47724   0.48003   0.51440   0.00000  Uiso   1.00
C51    C     0.47421   0.67386   0.58110   0.00000  Uiso   1.00
C52    C     0.42586   0.25526   0.36299   0.00000  Uiso   1.00
C53    C     0.38709   0.11481   0.35280   0.00000  Uiso   1.00
C54    C     0.34094   0.16794   0.32578   0.00000  Uiso   1.00
C55    C     0.25905   0.18111   0.28329   0.00000  Uiso   1.00
C56    C     0.52644   0.29429   0.35904   0.00000  Uiso   1.00
C57    C     0.57223   0.18665   0.34551   0.00000  Uiso   1.00
C58    C     0.61076   0.27262   0.31516   0.00000  Uiso   1.00
C59    C     0.68503   0.34638   0.26653   0.00000  Uiso   1.00
C60    C     0.46629   0.57251   0.36205   0.00000  Uiso   1.00
C61    C     0.46961   0.55848   0.41707   0.00000  Uiso   1.00
C62    C     0.46623   0.70964   0.44917   0.00000  Uiso   1.00
C63    C     0.47017   0.66725   0.49814   0.00000  Uiso   1.00
C64    C     0.41879   0.44213   0.34676   0.00000  Uiso   1.00
C65    C     0.37270   0.49547   0.31974   0.00000  Uiso   1.00
C66    C     0.33387   0.35515   0.30952   0.00000  Uiso   1.00
C67    C     0.51938   0.48117   0.34281   0.00000  Uiso   1.00
C68    C     0.55784   0.56731   0.31246   0.00000  Uiso   1.00
C69    C     0.60369   0.45983   0.29890   0.00000  Uiso   1.00
H70    H     0.48479   0.08297   0.40456   0.00000  Uiso   1.00
H71    H     0.48607   0.18434   0.49477   0.00000  Uiso   1.00
H72    H     0.39257   0.97021   0.36536   0.00000  Uiso   1.00
H73    H     0.57768   0.04204   0.35808   0.00000  Uiso   1.00
H74    H     0.48436   0.37914   0.58763   0.00000  Uiso   1.00
H75    H     0.28720   0.92761   0.31474   0.00000  Uiso   1.00
H76    H     0.67755   0.07907   0.29938   0.00000  Uiso   1.00
H77    H     0.46079   0.71801   0.34942   0.00000  Uiso   1.00
H78    H     0.46076   0.85424   0.43661   0.00000  Uiso   1.00
H79    H     0.36725   0.64010   0.30719   0.00000  Uiso   1.00
H80    H     0.55237   0.71193   0.29991   0.00000  Uiso   1.00
H81    H     0.46382   0.92285   0.54042   0.00000  Uiso   1.00
H82    H     0.26666   0.47131   0.26752   0.00000  Uiso   1.00
H83    H     0.65701   0.62278   0.25217   0.00000  Uiso   1.00
O84    O     0.47449   0.72914   0.62237   0.00000  Uiso   1.00
O85    O     0.21582   0.13674   0.26434   0.00000  Uiso   1.00
O86    O     0.72795   0.33546   0.24420   0.00000  Uiso   1.00
N87    N     0.47954   0.48841   0.56455   0.00000  Uiso   1.00
N88    N     0.29521   0.06626   0.30942   0.00000  Uiso   1.00
N89    N     0.66014   0.20785   0.29506   0.00000  Uiso   1.00
N90    N     0.46849   0.78098   0.53915   0.00000  Uiso   1.00
N91    N     0.28415   0.35883   0.28402   0.00000  Uiso   1.00
N92    N     0.64909   0.50042   0.26966   0.00000  Uiso   1.00
C93    C     0.73383   0.77369   0.08387   0.00000  Uiso   1.00
C94    C     0.73161   0.63133   0.04231   0.00000  Uiso   1.00
C95    C     0.73545   0.67508   0.99344   0.00000  Uiso   1.00
C96    C     0.73250   0.52459   0.96106   0.00000  Uiso   1.00
C97    C     0.73001   0.33206   0.89410   0.00000  Uiso   1.00
C98    C     0.68047   0.74461   0.11276   0.00000  Uiso   1.00
C99    C     0.64131   0.88361   0.12313   0.00000  Uiso   1.00
C100   C     0.59531   0.82848   0.15007   0.00000  Uiso   1.00
C101   C     0.51344   0.81185   0.19252   0.00000  Uiso   1.00
C102   C     0.78115   0.70868   0.11669   0.00000  Uiso   1.00
C103   C     0.82664   0.81748   0.13036   0.00000  Uiso   1.00
C104   C     0.86540   0.73211   0.16062   0.00000  Uiso   1.00
C105   C     0.93985   0.65968   0.20916   0.00000  Uiso   1.00
C106   C     0.72176   0.42863   0.11328   0.00000  Uiso   1.00
C107   C     0.72505   0.44391   0.05829   0.00000  Uiso   1.00
C108   C     0.72209   0.29331   0.02598   0.00000  Uiso   1.00
C109   C     0.72593   0.33683   0.97707   0.00000  Uiso   1.00
C110   C     0.67390   0.55719   0.12874   0.00000  Uiso   1.00
C111   C     0.62795   0.50184   0.15567   0.00000  Uiso   1.00
C112   C     0.58873   0.64072   0.16607   0.00000  Uiso   1.00
C113   C     0.77459   0.52125   0.13266   0.00000  Uiso   1.00
C114   C     0.81328   0.43570   0.16290   0.00000  Uiso   1.00
C115   C     0.85882   0.54435   0.17662   0.00000  Uiso   1.00
H116   H     0.73894   0.91961   0.07143   0.00000  Uiso   1.00
H117   H     0.74052   0.82014   0.98109   0.00000  Uiso   1.00
H118   H     0.64640   0.02864   0.11077   0.00000  Uiso   1.00
H119   H     0.83170   0.96251   0.11799   0.00000  Uiso   1.00
H120   H     0.73936   0.62722   0.88797   0.00000  Uiso   1.00
H121   H     0.54092   0.06687   0.16142   0.00000  Uiso   1.00
H122   H     0.93166   0.92742   0.17666   0.00000  Uiso   1.00
H123   H     0.71665   0.28271   0.12572   0.00000  Uiso   1.00
H124   H     0.71701   0.14828   0.03835   0.00000  Uiso   1.00
H125   H     0.62289   0.35679   0.16803   0.00000  Uiso   1.00
H126   H     0.80819   0.29066   0.17526   0.00000  Uiso   1.00
H127   H     0.72028   0.08192   0.93445   0.00000  Uiso   1.00
H128   H     0.52183   0.52157   0.20790   0.00000  Uiso   1.00
H129   H     0.91257   0.38212   0.22314   0.00000  Uiso   1.00
O130   O     0.73044   0.27764   0.85276   0.00000  Uiso   1.00
O131   O     0.47009   0.85445   0.21151   0.00000  Uiso   1.00
O132   O     0.98273   0.67150   0.23151   0.00000  Uiso   1.00
N133   N     0.73483   0.51732   0.91090   0.00000  Uiso   1.00
N134   N     0.54929   0.92837   0.16655   0.00000  Uiso   1.00
N135   N     0.91459   0.79801   0.18081   0.00000  Uiso   1.00
N136   N     0.72457   0.22390   0.93591   0.00000  Uiso   1.00
N137   N     0.53902   0.63494   0.19156   0.00000  Uiso   1.00
N138   N     0.90432   0.50459   0.20582   0.00000  Uiso   1.00
C139   C     0.52071   0.77154   0.89193   0.00000  Uiso   1.00
C140   C     0.52333   0.62840   0.93330   0.00000  Uiso   1.00
C141   C     0.51939   0.67102   0.98223   0.00000  Uiso   1.00
C142   C     0.52276   0.51997   0.01440   0.00000  Uiso   1.00
C143   C     0.52579   0.32614   0.08110   0.00000  Uiso   1.00
C144   C     0.57414   0.74474   0.86299   0.00000  Uiso   1.00
C145   C     0.61291   0.88519   0.85280   0.00000  Uiso   1.00
C146   C     0.65906   0.83206   0.82578   0.00000  Uiso   1.00
C147   C     0.74095   0.81889   0.78329   0.00000  Uiso   1.00
C148   C     0.47356   0.70571   0.85904   0.00000  Uiso   1.00
C149   C     0.42777   0.81335   0.84551   0.00000  Uiso   1.00
C150   C     0.38924   0.72738   0.81516   0.00000  Uiso   1.00
C151   C     0.31497   0.65362   0.76653   0.00000  Uiso   1.00
C152   C     0.53371   0.42749   0.86205   0.00000  Uiso   1.00
C153   C     0.53039   0.44152   0.91707   0.00000  Uiso   1.00
C154   C     0.53377   0.29036   0.94917   0.00000  Uiso   1.00
C155   C     0.52983   0.33275   0.99814   0.00000  Uiso   1.00
C156   C     0.58121   0.55787   0.84676   0.00000  Uiso   1.00
C157   C     0.62730   0.50453   0.81974   0.00000  Uiso   1.00
C158   C     0.66613   0.64485   0.80952   0.00000  Uiso   1.00
C159   C     0.48062   0.51883   0.84281   0.00000  Uiso   1.00
C160   C     0.44216   0.43269   0.81246   0.00000  Uiso   1.00
C161   C     0.39631   0.54017   0.79890   0.00000  Uiso   1.00
H162   H     0.51521   0.91703   0.90456   0.00000  Uiso   1.00
H163   H     0.51393   0.81566   0.99477   0.00000  Uiso   1.00
H164   H     0.60743   0.02979   0.86536   0.00000  Uiso   1.00
H165   H     0.42232   0.95796   0.85808   0.00000  Uiso   1.00
H166   H     0.51564   0.62086   0.08763   0.00000  Uiso   1.00
H167   H     0.71280   0.07239   0.81474   0.00000  Uiso   1.00
H168   H     0.32245   0.92093   0.79938   0.00000  Uiso   1.00
H169   H     0.53921   0.28199   0.84942   0.00000  Uiso   1.00
H170   H     0.53924   0.14576   0.93661   0.00000  Uiso   1.00
H171   H     0.63275   0.35990   0.80719   0.00000  Uiso   1.00
H172   H     0.44763   0.28807   0.79991   0.00000  Uiso   1.00
H173   H     0.53618   0.07715   0.04042   0.00000  Uiso   1.00
H174   H     0.73334   0.52869   0.76752   0.00000  Uiso   1.00
H175   H     0.34299   0.37722   0.75217   0.00000  Uiso   1.00
O176   O     0.52551   0.27086   0.12237   0.00000  Uiso   1.00
O177   O     0.78418   0.86326   0.76434   0.00000  Uiso   1.00
O178   O     0.27205   0.66454   0.74420   0.00000  Uiso   1.00
N179   N     0.52046   0.51159   0.06455   0.00000  Uiso   1.00
N180   N     0.70479   0.93374   0.80942   0.00000  Uiso   1.00
N181   N     0.33986   0.79215   0.79506   0.00000  Uiso   1.00
N182   N     0.53151   0.21902   0.03915   0.00000  Uiso   1.00
N183   N     0.71585   0.64117   0.78402   0.00000  Uiso   1.00
N184   N     0.35091   0.49958   0.76966   0.00000  Uiso   1.00
C185   C     0.76617   0.77369   0.58387   0.00000  Uiso   1.00
C186   C     0.76839   0.63133   0.54231   0.00000  Uiso   1.00
C187   C     0.76455   0.67508   0.49344   0.00000  Uiso   1.00
C188   C     0.76750   0.52459   0.46106   0.00000  Uiso   1.00
C189   C     0.76999   0.33206   0.39410   0.00000  Uiso   1.00
C190   C     0.81953   0.74461   0.61276   0.00000  Uiso   1.00
C191   C     0.85869   0.88361   0.62313   0.00000  Uiso   1.00
C192   C     0.90469   0.82848   0.65007   0.00000  Uiso   1.00
C193   C     0.98656   0.81185   0.69252   0.00000  Uiso   1.00
C194   C     0.71885   0.70868   0.61669   0.00000  Uiso   1.00
C195   C     0.67336   0.81748   0.63036   0.00000  Uiso   1.00
C196   C     0.63460   0.73211   0.66062   0.00000  Uiso   1.00
C197   C     0.56015   0.65968   0.70916   0.00000  Uiso   1.00
C198   C     0.77824   0.42863   0.61328   0.00000  Uiso   1.00
C199   C     0.77495   0.44391   0.55829   0.00000  Uiso   1.00
C200   C     0.77791   0.29331   0.52598   0.00000  Uiso   1.00
C201   C     0.77407   0.33683   0.47707   0.00000  Uiso   1.00
C202   C     0.82610   0.55719   0.62874   0.00000  Uiso   1.00
C203   C     0.87205   0.50184   0.65567   0.00000  Uiso   1.00
C204   C     0.91127   0.64072   0.66607   0.00000  Uiso   1.00
C205   C     0.72541   0.52125   0.63266   0.00000  Uiso   1.00
C206   C     0.68672   0.43570   0.66290   0.00000  Uiso   1.00
C207   C     0.64118   0.54435   0.67662   0.00000  Uiso   1.00
H208   H     0.76106   0.91961   0.57143   0.00000  Uiso   1.00
H209   H     0.75948   0.82014   0.48109   0.00000  Uiso   1.00
H210   H     0.85360   0.02864   0.61077   0.00000  Uiso   1.00
H211   H     0.66830   0.96251   0.61799   0.00000  Uiso   1.00
H212   H     0.76064   0.62722   0.38797   0.00000  Uiso   1.00
H213   H     0.95908   0.06687   0.66142   0.00000  Uiso   1.00
H214   H     0.56834   0.92742   0.67666   0.00000  Uiso   1.00
H215   H     0.78335   0.28271   0.62572   0.00000  Uiso   1.00
H216   H     0.78299   0.14828   0.53835   0.00000  Uiso   1.00
H217   H     0.87711   0.35679   0.66803   0.00000  Uiso   1.00
H218   H     0.69181   0.29066   0.67526   0.00000  Uiso   1.00
H219   H     0.77972   0.08192   0.43445   0.00000  Uiso   1.00
H220   H     0.97817   0.52157   0.70790   0.00000  Uiso   1.00
H221   H     0.58743   0.38212   0.72314   0.00000  Uiso   1.00
O222   O     0.76956   0.27764   0.35276   0.00000  Uiso   1.00
O223   O     0.02991   0.85445   0.71151   0.00000  Uiso   1.00
O224   O     0.51727   0.67150   0.73151   0.00000  Uiso   1.00
N225   N     0.76517   0.51732   0.41090   0.00000  Uiso   1.00
N226   N     0.95071   0.92837   0.66655   0.00000  Uiso   1.00
N227   N     0.58541   0.79801   0.68081   0.00000  Uiso   1.00
N228   N     0.77543   0.22390   0.43591   0.00000  Uiso   1.00
N229   N     0.96098   0.63494   0.69156   0.00000  Uiso   1.00
N230   N     0.59568   0.50459   0.70582   0.00000  Uiso   1.00
C231   C     0.97929   0.77154   0.39193   0.00000  Uiso   1.00
C232   C     0.97667   0.62840   0.43330   0.00000  Uiso   1.00
C233   C     0.98061   0.67102   0.48223   0.00000  Uiso   1.00
C234   C     0.97724   0.51997   0.51440   0.00000  Uiso   1.00
C235   C     0.97421   0.32614   0.58110   0.00000  Uiso   1.00
C236   C     0.92586   0.74474   0.36299   0.00000  Uiso   1.00
C237   C     0.88709   0.88519   0.35280   0.00000  Uiso   1.00
C238   C     0.84094   0.83206   0.32578   0.00000  Uiso   1.00
C239   C     0.75905   0.81889   0.28329   0.00000  Uiso   1.00
C240   C     0.02644   0.70571   0.35904   0.00000  Uiso   1.00
C241   C     0.07223   0.81335   0.34551   0.00000  Uiso   1.00
C242   C     0.11076   0.72738   0.31516   0.00000  Uiso   1.00
C243   C     0.18503   0.65362   0.26653   0.00000  Uiso   1.00
C244   C     0.96629   0.42749   0.36205   0.00000  Uiso   1.00
C245   C     0.96961   0.44152   0.41707   0.00000  Uiso   1.00
C246   C     0.96623   0.29036   0.44917   0.00000  Uiso   1.00
C247   C     0.97017   0.33275   0.49814   0.00000  Uiso   1.00
C248   C     0.91879   0.55787   0.34676   0.00000  Uiso   1.00
C249   C     0.87270   0.50453   0.31974   0.00000  Uiso   1.00
C250   C     0.83387   0.64485   0.30952   0.00000  Uiso   1.00
C251   C     0.01938   0.51883   0.34281   0.00000  Uiso   1.00
C252   C     0.05784   0.43269   0.31246   0.00000  Uiso   1.00
C253   C     0.10369   0.54017   0.29890   0.00000  Uiso   1.00
H254   H     0.98479   0.91703   0.40456   0.00000  Uiso   1.00
H255   H     0.98607   0.81566   0.49477   0.00000  Uiso   1.00
H256   H     0.89257   0.02979   0.36536   0.00000  Uiso   1.00
H257   H     0.07768   0.95796   0.35808   0.00000  Uiso   1.00
H258   H     0.98436   0.62086   0.58763   0.00000  Uiso   1.00
H259   H     0.78720   0.07239   0.31474   0.00000  Uiso   1.00
H260   H     0.17755   0.92093   0.29938   0.00000  Uiso   1.00
H261   H     0.96079   0.28199   0.34942   0.00000  Uiso   1.00
H262   H     0.96076   0.14576   0.43661   0.00000  Uiso   1.00
H263   H     0.86725   0.35990   0.30719   0.00000  Uiso   1.00
H264   H     0.05237   0.28807   0.29991   0.00000  Uiso   1.00
H265   H     0.96382   0.07715   0.54042   0.00000  Uiso   1.00
H266   H     0.76666   0.52869   0.26752   0.00000  Uiso   1.00
H267   H     0.15701   0.37722   0.25217   0.00000  Uiso   1.00
O268   O     0.97449   0.27086   0.62237   0.00000  Uiso   1.00
O269   O     0.71582   0.86326   0.26434   0.00000  Uiso   1.00
O270   O     0.22795   0.66454   0.24420   0.00000  Uiso   1.00
N271   N     0.97954   0.51159   0.56455   0.00000  Uiso   1.00
N272   N     0.79521   0.93374   0.30942   0.00000  Uiso   1.00
N273   N     0.16014   0.79215   0.29506   0.00000  Uiso   1.00
N274   N     0.96849   0.21902   0.53915   0.00000  Uiso   1.00
N275   N     0.78415   0.64117   0.28402   0.00000  Uiso   1.00
N276   N     0.14909   0.49958   0.26966   0.00000  Uiso   1.00
C277   C     0.23383   0.22631   0.08387   0.00000  Uiso   1.00
C278   C     0.23161   0.36867   0.04231   0.00000  Uiso   1.00
C279   C     0.23545   0.32492   0.99344   0.00000  Uiso   1.00
C280   C     0.23250   0.47541   0.96106   0.00000  Uiso   1.00
C281   C     0.23001   0.66794   0.89410   0.00000  Uiso   1.00
C282   C     0.18047   0.25539   0.11276   0.00000  Uiso   1.00
C283   C     0.14131   0.11639   0.12313   0.00000  Uiso   1.00
C284   C     0.09531   0.17152   0.15007   0.00000  Uiso   1.00
C285   C     0.01344   0.18815   0.19252   0.00000  Uiso   1.00
C286   C     0.28115   0.29132   0.11669   0.00000  Uiso   1.00
C287   C     0.32664   0.18252   0.13036   0.00000  Uiso   1.00
C288   C     0.36540   0.26789   0.16062   0.00000  Uiso   1.00
C289   C     0.43985   0.34032   0.20916   0.00000  Uiso   1.00
C290   C     0.22176   0.57137   0.11328   0.00000  Uiso   1.00
C291   C     0.22505   0.55609   0.05829   0.00000  Uiso   1.00
C292   C     0.22209   0.70669   0.02598   0.00000  Uiso   1.00
C293   C     0.22593   0.66317   0.97707   0.00000  Uiso   1.00
C294   C     0.17390   0.44281   0.12874   0.00000  Uiso   1.00
C295   C     0.12795   0.49816   0.15567   0.00000  Uiso   1.00
C296   C     0.08873   0.35928   0.16607   0.00000  Uiso   1.00
C297   C     0.27459   0.47875   0.13266   0.00000  Uiso   1.00
C298   C     0.31328   0.56430   0.16290   0.00000  Uiso   1.00
C299   C     0.35882   0.45565   0.17662   0.00000  Uiso   1.00
H300   H     0.23894   0.08039   0.07143   0.00000  Uiso   1.00
H301   H     0.24052   0.17986   0.98109   0.00000  Uiso   1.00
H302   H     0.14640   0.97136   0.11077   0.00000  Uiso   1.00
H303   H     0.33170   0.03749   0.11799   0.00000  Uiso   1.00
H304   H     0.23936   0.37278   0.88797   0.00000  Uiso   1.00
H305   H     0.04092   0.93313   0.16142   0.00000  Uiso   1.00
H306   H     0.43166   0.07258   0.17666   0.00000  Uiso   1.00
H307   H     0.21665   0.71729   0.12572   0.00000  Uiso   1.00
H308   H     0.21701   0.85172   0.03835   0.00000  Uiso   1.00
H309   H     0.12289   0.64321   0.16803   0.00000  Uiso   1.00
H310   H     0.30819   0.70934   0.17526   0.00000  Uiso   1.00
H311   H     0.22028   0.91808   0.93445   0.00000  Uiso   1.00
H312   H     0.02183   0.47843   0.20790   0.00000  Uiso   1.00
H313   H     0.41257   0.61788   0.22314   0.00000  Uiso   1.00
O314   O     0.23044   0.72236   0.85276   0.00000  Uiso   1.00
O315   O     0.97009   0.14555   0.21151   0.00000  Uiso   1.00
O316   O     0.48273   0.32850   0.23151   0.00000  Uiso   1.00
N317   N     0.23483   0.48268   0.91090   0.00000  Uiso   1.00
N318   N     0.04929   0.07163   0.16655   0.00000  Uiso   1.00
N319   N     0.41459   0.20199   0.18081   0.00000  Uiso   1.00
N320   N     0.22457   0.77610   0.93591   0.00000  Uiso   1.00
N321   N     0.03902   0.36506   0.19156   0.00000  Uiso   1.00
N322   N     0.40432   0.49541   0.20582   0.00000  Uiso   1.00
C323   C     0.02071   0.22846   0.89193   0.00000  Uiso   1.00
C324   C     0.02333   0.37160   0.93330   0.00000  Uiso   1.00
C325   C     0.01939   0.32898   0.98223   0.00000  Uiso   1.00
C326   C     0.02276   0.48003   0.01440   0.00000  Uiso   1.00
C327   C     0.02579   0.67386   0.08110   0.00000  Uiso   1.00
C328   C     0.07414   0.25526   0.86299   0.00000  Uiso   1.00
C329   C     0.11291   0.11481   0.85280   0.00000  Uiso   1.00
C330   C     0.15906   0.16794   0.82578   0.00000  Uiso   1.00
C331   C     0.24095   0.18111   0.78329   0.00000  Uiso   1.00
C332   C     0.97356   0.29429   0.85904   0.00000  Uiso   1.00
C333   C     0.92777   0.18665   0.84551   0.00000  Uiso   1.00
C334   C     0.88924   0.27262   0.81516   0.00000  Uiso   1.00
C335   C     0.81497   0.34638   0.76653   0.00000  Uiso   1.00
C336   C     0.03371   0.57251   0.86205   0.00000  Uiso   1.00
C337   C     0.03039   0.55848   0.91707   0.00000  Uiso   1.00
C338   C     0.03377   0.70964   0.94917   0.00000  Uiso   1.00
C339   C     0.02983   0.66725   0.99814   0.00000  Uiso   1.00
C340   C     0.08121   0.44213   0.84676   0.00000  Uiso   1.00
C341   C     0.12730   0.49547   0.81974   0.00000  Uiso   1.00
C342   C     0.16613   0.35515   0.80952   0.00000  Uiso   1.00
C343   C     0.98062   0.48117   0.84281   0.00000  Uiso   1.00
C344   C     0.94216   0.56731   0.81246   0.00000  Uiso   1.00
C345   C     0.89631   0.45983   0.79890   0.00000  Uiso   1.00
H346   H     0.01521   0.08297   0.90456   0.00000  Uiso   1.00
H347   H     0.01393   0.18434   0.99477   0.00000  Uiso   1.00
H348   H     0.10743   0.97021   0.86536   0.00000  Uiso   1.00
H349   H     0.92232   0.04204   0.85808   0.00000  Uiso   1.00
H350   H     0.01564   0.37914   0.08763   0.00000  Uiso   1.00
H351   H     0.21280   0.92761   0.81474   0.00000  Uiso   1.00
H352   H     0.82245   0.07907   0.79938   0.00000  Uiso   1.00
H353   H     0.03921   0.71801   0.84942   0.00000  Uiso   1.00
H354   H     0.03924   0.85424   0.93661   0.00000  Uiso   1.00
H355   H     0.13275   0.64010   0.80719   0.00000  Uiso   1.00
H356   H     0.94763   0.71193   0.79991   0.00000  Uiso   1.00
H357   H     0.03618   0.92285   0.04042   0.00000  Uiso   1.00
H358   H     0.23334   0.47131   0.76752   0.00000  Uiso   1.00
H359   H     0.84299   0.62278   0.75217   0.00000  Uiso   1.00
O360   O     0.02551   0.72914   0.12237   0.00000  Uiso   1.00
O361   O     0.28418   0.13674   0.76434   0.00000  Uiso   1.00
O362   O     0.77205   0.33546   0.74420   0.00000  Uiso   1.00
N363   N     0.02046   0.48841   0.06455   0.00000  Uiso   1.00
N364   N     0.20479   0.06626   0.80942   0.00000  Uiso   1.00
N365   N     0.83986   0.20785   0.79506   0.00000  Uiso   1.00
N366   N     0.03151   0.78098   0.03915   0.00000  Uiso   1.00
N367   N     0.21585   0.35883   0.78402   0.00000  Uiso   1.00
N368   N     0.85091   0.50042   0.76966   0.00000  Uiso   1.00
