data_job_06801
_audit_creation_date              2018-12-19
_audit_creation_method            'Materials Studio'
_symmetry_space_group_name_H-M    'P1'
_symmetry_Int_Tables_number       1
_symmetry_cell_setting            triclinic
loop_
_symmetry_equiv_pos_as_xyz
  x,y,z
_cell_length_a                    20.6645
_cell_length_b                    21.2176
_cell_length_c                    22.6049
_cell_angle_alpha                 107.9973
_cell_angle_beta                  94.0066
_cell_angle_gamma                 110.2368
loop_
_atom_site_label
_atom_site_type_symbol
_atom_site_fract_x
_atom_site_fract_y
_atom_site_fract_z
_atom_site_U_iso_or_equiv
_atom_site_adp_type
_atom_site_occupancy
C1     C     0.72069   0.11986   0.65558   0.00000  Uiso   1.00
C2     C     0.73464   0.05115   0.63177   0.00000  Uiso   1.00
C3     C     0.76332   0.03032   0.57896   0.00000  Uiso   1.00
C4     C     0.77187   0.96554   0.56505   0.00000  Uiso   1.00
C5     C     0.79646   0.86528   0.52234   0.00000  Uiso   1.00
C6     C     0.64267   0.09607   0.65811   0.00000  Uiso   1.00
C7     C     0.59402   0.11301   0.62746   0.00000  Uiso   1.00
C8     C     0.52515   0.08605   0.63574   0.00000  Uiso   1.00
C9     C     0.40696   0.05557   0.63396   0.00000  Uiso   1.00
C10    C     0.76022   0.15892   0.72429   0.00000  Uiso   1.00
C11    C     0.81040   0.22871   0.74928   0.00000  Uiso   1.00
C12    C     0.84049   0.25467   0.81328   0.00000  Uiso   1.00
C13    C     0.90481   0.32177   0.91425   0.00000  Uiso   1.00
C14    C     0.68488   0.04188   0.72480   0.00000  Uiso   1.00
C15    C     0.71518   0.00880   0.66936   0.00000  Uiso   1.00
C16    C     0.72370   0.94404   0.65554   0.00000  Uiso   1.00
C17    C     0.75239   0.92311   0.60271   0.00000  Uiso   1.00
C18    C     0.62321   0.05372   0.69571   0.00000  Uiso   1.00
C19    C     0.55440   0.02673   0.70404   0.00000  Uiso   1.00
C20    C     0.50567   0.04362   0.67340   0.00000  Uiso   1.00
C21    C     0.74076   0.11656   0.76188   0.00000  Uiso   1.00
C22    C     0.77077   0.14243   0.82586   0.00000  Uiso   1.00
C23    C     0.82100   0.21224   0.85094   0.00000  Uiso   1.00
H24    H     0.73583   0.15284   0.62631   0.00000  Uiso   1.00
H25    H     0.77836   0.06311   0.54987   0.00000  Uiso   1.00
H26    H     0.60910   0.14579   0.59837   0.00000  Uiso   1.00
H27    H     0.82544   0.26147   0.72017   0.00000  Uiso   1.00
H28    H     0.81691   0.94493   0.48169   0.00000  Uiso   1.00
H29    H     0.46001   0.11930   0.58397   0.00000  Uiso   1.00
H30    H     0.91621   0.36323   0.84082   0.00000  Uiso   1.00
H31    H     0.66973   0.00891   0.75407   0.00000  Uiso   1.00
H32    H     0.70864   0.91127   0.68464   0.00000  Uiso   1.00
H33    H     0.53937   0.99396   0.73314   0.00000  Uiso   1.00
H34    H     0.75571   0.10964   0.85494   0.00000  Uiso   1.00
H35    H     0.76032   0.82170   0.59107   0.00000  Uiso   1.00
H36    H     0.40341   0.99607   0.69336   0.00000  Uiso   1.00
H37    H     0.85961   0.24000   0.95020   0.00000  Uiso   1.00
O38    O     0.81538   0.82168   0.48839   0.00000  Uiso   1.00
O39    O     0.34714   0.05045   0.62259   0.00000  Uiso   1.00
O40    O     0.94566   0.37048   0.95956   0.00000  Uiso   1.00
N41    N     0.79827   0.92933   0.51697   0.00000  Uiso   1.00
N42    N     0.46458   0.09235   0.61259   0.00000  Uiso   1.00
N43    N     0.89107   0.32041   0.85272   0.00000  Uiso   1.00
N44    N     0.76781   0.86302   0.57583   0.00000  Uiso   1.00
N45    N     0.43413   0.02604   0.67145   0.00000  Uiso   1.00
N46    N     0.86062   0.25410   0.91158   0.00000  Uiso   1.00
C47    C     0.09655   0.63634   0.41182   0.00000  Uiso   1.00
C48    C     0.12024   0.57458   0.40646   0.00000  Uiso   1.00
C49    C     0.11180   0.53628   0.44721   0.00000  Uiso   1.00
C50    C     0.13707   0.48174   0.43422   0.00000  Uiso   1.00
C51    C     0.16894   0.38824   0.43380   0.00000  Uiso   1.00
C52    C     0.16209   0.70001   0.41496   0.00000  Uiso   1.00
C53    C     0.18882   0.76717   0.46285   0.00000  Uiso   1.00
C54    C     0.24932   0.81821   0.45701   0.00000  Uiso   1.00
C55    C     0.34612   0.91945   0.46977   0.00000  Uiso   1.00
C56    C     0.04837   0.61474   0.34859   0.00000  Uiso   1.00
C57    C     0.97950   0.61022   0.34066   0.00000  Uiso   1.00
C58    C     0.94425   0.58949   0.27894   0.00000  Uiso   1.00
C59    C     0.86450   0.55834   0.18864   0.00000  Uiso   1.00
C60    C     0.15643   0.60758   0.31630   0.00000  Uiso   1.00
C61    C     0.15276   0.55896   0.35458   0.00000  Uiso   1.00
C62    C     0.17805   0.50446   0.34152   0.00000  Uiso   1.00
C63    C     0.16965   0.46609   0.38223   0.00000  Uiso   1.00
C64    C     0.19461   0.68439   0.36308   0.00000  Uiso   1.00
C65    C     0.25507   0.73534   0.35716   0.00000  Uiso   1.00
C66    C     0.28190   0.80256   0.40503   0.00000  Uiso   1.00
C67    C     0.08089   0.59911   0.29670   0.00000  Uiso   1.00
C68    C     0.04575   0.57839   0.23498   0.00000  Uiso   1.00
C69    C     0.97684   0.57384   0.22696   0.00000  Uiso   1.00
H70    H     0.07123   0.64851   0.45222   0.00000  Uiso   1.00
H71    H     0.08664   0.54839   0.48736   0.00000  Uiso   1.00
H72    H     0.16364   0.77924   0.50299   0.00000  Uiso   1.00
H73    H     0.95435   0.62231   0.38083   0.00000  Uiso   1.00
H74    H     0.11808   0.43052   0.50345   0.00000  Uiso   1.00
H75    H     0.28043   0.91729   0.53641   0.00000  Uiso   1.00
H76    H     0.83910   0.58638   0.27880   0.00000  Uiso   1.00
H77    H     0.18175   0.59542   0.27590   0.00000  Uiso   1.00
H78    H     0.20322   0.49238   0.30136   0.00000  Uiso   1.00
H79    H     0.28022   0.72324   0.31700   0.00000  Uiso   1.00
H80    H     0.07093   0.56631   0.19484   0.00000  Uiso   1.00
H81    H     0.21271   0.38507   0.35249   0.00000  Uiso   1.00
H82    H     0.37506   0.87183   0.38545   0.00000  Uiso   1.00
H83    H     0.93373   0.54092   0.12784   0.00000  Uiso   1.00
O84    O     0.17754   0.34099   0.44791   0.00000  Uiso   1.00
O85    O     0.39053   0.97961   0.49115   0.00000  Uiso   1.00
O86    O     0.81152   0.54546   0.15317   0.00000  Uiso   1.00
N87    N     0.13739   0.43396   0.46442   0.00000  Uiso   1.00
N88    N     0.28919   0.88905   0.49524   0.00000  Uiso   1.00
N89    N     0.87659   0.57970   0.25439   0.00000  Uiso   1.00
N90    N     0.18831   0.40949   0.38319   0.00000  Uiso   1.00
N91    N     0.34010   0.86459   0.41401   0.00000  Uiso   1.00
N92    N     0.92750   0.55524   0.17316   0.00000  Uiso   1.00
C93    C     0.34692   0.53599   0.01219   0.00000  Uiso   1.00
C94    C     0.35651   0.47180   0.02252   0.00000  Uiso   1.00
C95    C     0.40743   0.47534   0.06824   0.00000  Uiso   1.00
C96    C     0.40748   0.41052   0.06998   0.00000  Uiso   1.00
C97    C     0.42986   0.32089   0.09246   0.00000  Uiso   1.00
C98    C     0.35108   0.52651   0.94307   0.00000  Uiso   1.00
C99    C     0.39743   0.57606   0.92199   0.00000  Uiso   1.00
C100   C     0.39289   0.55729   0.85686   0.00000  Uiso   1.00
C101   C     0.40681   0.55261   0.75599   0.00000  Uiso   1.00
C102   C     0.27119   0.52646   0.01739   0.00000  Uiso   1.00
C103   C     0.25036   0.57597   0.05879   0.00000  Uiso   1.00
C104   C     0.17856   0.55717   0.05621   0.00000  Uiso   1.00
C105   C     0.06844   0.55241   0.07074   0.00000  Uiso   1.00
C106   C     0.25647   0.41458   0.93400   0.00000  Uiso   1.00
C107   C     0.30738   0.40586   0.98005   0.00000  Uiso   1.00
C108   C     0.30735   0.34101   0.98173   0.00000  Uiso   1.00
C109   C     0.35826   0.34446   0.02744   0.00000  Uiso   1.00
C110   C     0.30195   0.46057   0.90061   0.00000  Uiso   1.00
C111   C     0.29735   0.44173   0.83549   0.00000  Uiso   1.00
C112   C     0.34367   0.49123   0.81431   0.00000  Uiso   1.00
C113   C     0.22206   0.46051   0.97492   0.00000  Uiso   1.00
C114   C     0.15028   0.44163   0.97228   0.00000  Uiso   1.00
C115   C     0.12934   0.49110   0.01367   0.00000  Uiso   1.00
H116   H     0.38518   0.58734   0.04525   0.00000  Uiso   1.00
H117   H     0.44545   0.52639   0.10109   0.00000  Uiso   1.00
H118   H     0.43544   0.62709   0.95487   0.00000  Uiso   1.00
H119   H     0.28839   0.62700   0.09164   0.00000  Uiso   1.00
H120   H     0.49061   0.42974   0.14425   0.00000  Uiso   1.00
H121   H     0.46950   0.64208   0.83594   0.00000  Uiso   1.00
H122   H     0.15943   0.64189   0.12435   0.00000  Uiso   1.00
H123   H     0.21822   0.36324   0.90094   0.00000  Uiso   1.00
H124   H     0.26932   0.28999   0.94886   0.00000  Uiso   1.00
H125   H     0.25932   0.39069   0.80264   0.00000  Uiso   1.00
H126   H     0.11228   0.39060   0.93941   0.00000  Uiso   1.00
H127   H     0.34767   0.23786   0.02070   0.00000  Uiso   1.00
H128   H     0.32655   0.45021   0.71238   0.00000  Uiso   1.00
H129   H     0.01648   0.45001   0.00079   0.00000  Uiso   1.00
O130   O     0.45579   0.28966   0.11659   0.00000  Uiso   1.00
O131   O     0.42807   0.56825   0.71209   0.00000  Uiso   1.00
O132   O     0.02127   0.56799   0.09049   0.00000  Uiso   1.00
N133   N     0.44995   0.39463   0.10861   0.00000  Uiso   1.00
N134   N     0.43021   0.59315   0.82035   0.00000  Uiso   1.00
N135   N     0.14032   0.59298   0.08998   0.00000  Uiso   1.00
N136   N     0.37303   0.29139   0.04212   0.00000  Uiso   1.00
N137   N     0.35330   0.48991   0.75386   0.00000  Uiso   1.00
N138   N     0.06341   0.48974   0.02350   0.00000  Uiso   1.00
C139   C     0.32658   0.97491   0.87206   0.00000  Uiso   1.00
C140   C     0.34892   0.91360   0.87233   0.00000  Uiso   1.00
C141   C     0.41772   0.91842   0.88297   0.00000  Uiso   1.00
C142   C     0.42714   0.85624   0.88125   0.00000  Uiso   1.00
C143   C     0.47055   0.77087   0.88351   0.00000  Uiso   1.00
C144   C     0.27979   0.98064   0.92108   0.00000  Uiso   1.00
C145   C     0.29047   0.04184   0.97271   0.00000  Uiso   1.00
C146   C     0.24170   0.03610   0.01203   0.00000  Uiso   1.00
C147   C     0.17777   0.05484   0.08996   0.00000  Uiso   1.00
C148   C     0.27866   0.94894   0.80772   0.00000  Uiso   1.00
C149   C     0.28838   0.98349   0.76404   0.00000  Uiso   1.00
C150   C     0.23865   0.95105   0.70792   0.00000  Uiso   1.00
C151   C     0.17296   0.92056   0.60984   0.00000  Uiso   1.00
C152   C     0.22098   0.85589   0.85009   0.00000  Uiso   1.00
C153   C     0.29155   0.84895   0.86040   0.00000  Uiso   1.00
C154   C     0.30088   0.78674   0.85866   0.00000  Uiso   1.00
C155   C     0.36968   0.79147   0.86930   0.00000  Uiso   1.00
C156   C     0.22243   0.91600   0.90916   0.00000  Uiso   1.00
C157   C     0.17363   0.91016   0.94841   0.00000  Uiso   1.00
C158   C     0.18424   0.97133   0.00008   0.00000  Uiso   1.00
C159   C     0.22130   0.88428   0.79579   0.00000  Uiso   1.00
C160   C     0.17154   0.85179   0.73974   0.00000  Uiso   1.00
C161   C     0.18118   0.88629   0.69597   0.00000  Uiso   1.00
H162   H     0.37123   0.02525   0.88135   0.00000  Uiso   1.00
H163   H     0.46209   0.96847   0.89220   0.00000  Uiso   1.00
H164   H     0.33486   0.09187   0.98193   0.00000  Uiso   1.00
H165   H     0.33277   0.03351   0.77329   0.00000  Uiso   1.00
H166   H     0.53753   0.87701   0.89900   0.00000  Uiso   1.00
H167   H     0.26925   0.13722   0.08817   0.00000  Uiso   1.00
H168   H     0.26484   0.01417   0.64822   0.00000  Uiso   1.00
H169   H     0.17632   0.80555   0.84081   0.00000  Uiso   1.00
H170   H     0.25648   0.73671   0.84943   0.00000  Uiso   1.00
H171   H     0.12925   0.86012   0.93916   0.00000  Uiso   1.00
H172   H     0.12716   0.80177   0.73052   0.00000  Uiso   1.00
H173   H     0.37065   0.68891   0.86428   0.00000  Uiso   1.00
H174   H     0.10236   0.94912   0.05346   0.00000  Uiso   1.00
H175   H     0.09796   0.82607   0.61350   0.00000  Uiso   1.00
O176   O     0.51034   0.74165   0.88806   0.00000  Uiso   1.00
O177   O     0.15835   0.08303   0.13625   0.00000  Uiso   1.00
O178   O     0.15258   0.92160   0.55904   0.00000  Uiso   1.00
N179   N     0.48725   0.84219   0.88963   0.00000  Uiso   1.00
N180   N     0.23643   0.08546   0.06651   0.00000  Uiso   1.00
N181   N     0.23230   0.97043   0.65519   0.00000  Uiso   1.00
N182   N     0.39745   0.74097   0.87095   0.00000  Uiso   1.00
N183   N     0.14663   0.98425   0.04783   0.00000  Uiso   1.00
N184   N     0.14250   0.86922   0.63651   0.00000  Uiso   1.00
C185   C     0.95505   0.03056   0.38284   0.00000  Uiso   1.00
C186   C     0.96872   0.96446   0.38307   0.00000  Uiso   1.00
C187   C     0.98128   0.94774   0.43632   0.00000  Uiso   1.00
C188   C     0.99258   0.88480   0.42657   0.00000  Uiso   1.00
C189   C     0.01397   0.78892   0.43618   0.00000  Uiso   1.00
C190   C     0.88454   0.00229   0.33795   0.00000  Uiso   1.00
C191   C     0.82632   0.01740   0.35325   0.00000  Uiso   1.00
C192   C     0.76675   0.98631   0.30551   0.00000  Uiso   1.00
C193   C     0.65746   0.94921   0.24505   0.00000  Uiso   1.00
C194   C     0.01033   0.06870   0.35074   0.00000  Uiso   1.00
C195   C     0.05787   0.13964   0.37680   0.00000  Uiso   1.00
C196   C     0.10420   0.16447   0.33982   0.00000  Uiso   1.00
C197   C     0.19021   0.23047   0.29923   0.00000  Uiso   1.00
C198   C     0.95279   0.94850   0.27083   0.00000  Uiso   1.00
C199   C     0.96749   0.91989   0.32223   0.00000  Uiso   1.00
C200   C     0.97878   0.85696   0.31239   0.00000  Uiso   1.00
C201   C     0.99135   0.84015   0.36562   0.00000  Uiso   1.00
C202   C     0.88331   0.95772   0.27711   0.00000  Uiso   1.00
C203   C     0.82382   0.92661   0.22932   0.00000  Uiso   1.00
C204   C     0.76552   0.94166   0.24456   0.00000  Uiso   1.00
C205   C     0.00910   0.02413   0.28990   0.00000  Uiso   1.00
C206   C     0.05536   0.04885   0.25287   0.00000  Uiso   1.00
C207   C     0.10296   0.11982   0.27887   0.00000  Uiso   1.00
H208   H     0.95600   0.06526   0.43021   0.00000  Uiso   1.00
H209   H     0.98222   0.98224   0.48340   0.00000  Uiso   1.00
H210   H     0.82729   0.05189   0.40034   0.00000  Uiso   1.00
H211   H     0.05880   0.17411   0.42389   0.00000  Uiso   1.00
H212   H     0.01073   0.87054   0.51553   0.00000  Uiso   1.00
H213   H     0.68405   0.01742   0.34040   0.00000  Uiso   1.00
H214   H     0.17223   0.27515   0.39005   0.00000  Uiso   1.00
H215   H     0.95183   0.91380   0.22346   0.00000  Uiso   1.00
H216   H     0.97782   0.82248   0.26530   0.00000  Uiso   1.00
H217   H     0.82289   0.89212   0.18225   0.00000  Uiso   1.00
H218   H     0.05440   0.01435   0.20579   0.00000  Uiso   1.00
H219   H     0.00715   0.74086   0.33852   0.00000  Uiso   1.00
H220   H     0.68047   0.88774   0.16338   0.00000  Uiso   1.00
H221   H     0.16866   0.14547   0.21304   0.00000  Uiso   1.00
O222   O     0.02609   0.74834   0.45828   0.00000  Uiso   1.00
O223   O     0.59750   0.94105   0.22851   0.00000  Uiso   1.00
O224   O     0.23800   0.27919   0.29365   0.00000  Uiso   1.00
N225   N     0.00633   0.85256   0.46813   0.00000  Uiso   1.00
N226   N     0.70090   0.98987   0.30439   0.00000  Uiso   1.00
N227   N     0.15730   0.23084   0.35081   0.00000  Uiso   1.00
N228   N     0.00441   0.78278   0.37288   0.00000  Uiso   1.00
N229   N     0.69898   0.92010   0.20915   0.00000  Uiso   1.00
N230   N     0.15538   0.16106   0.25556   0.00000  Uiso   1.00
C231   C     0.67097   0.64003   0.65881   0.00000  Uiso   1.00
C232   C     0.62987   0.57139   0.67049   0.00000  Uiso   1.00
C233   C     0.55753   0.54201   0.66571   0.00000  Uiso   1.00
C234   C     0.53001   0.47890   0.67827   0.00000  Uiso   1.00
C235   C     0.45961   0.37724   0.69382   0.00000  Uiso   1.00
C236   C     0.71183   0.61889   0.60773   0.00000  Uiso   1.00
C237   C     0.70841   0.62947   0.55019   0.00000  Uiso   1.00
C238   C     0.74989   0.60636   0.50992   0.00000  Uiso   1.00
C239   C     0.80676   0.57851   0.42806   0.00000  Uiso   1.00
C240   C     0.72587   0.68880   0.71933   0.00000  Uiso   1.00
C241   C     0.73427   0.75816   0.75560   0.00000  Uiso   1.00
C242   C     0.78759   0.79392   0.80928   0.00000  Uiso   1.00
C243   C     0.86626   0.87460   0.90068   0.00000  Uiso   1.00
C244   C     0.75074   0.58019   0.68963   0.00000  Uiso   1.00
C245   C     0.67320   0.53889   0.68723   0.00000  Uiso   1.00
C246   C     0.64578   0.47581   0.69980   0.00000  Uiso   1.00
C247   C     0.57342   0.44634   0.69504   0.00000  Uiso   1.00
C248   C     0.75515   0.58639   0.62447   0.00000  Uiso   1.00
C249   C     0.79666   0.56327   0.58428   0.00000  Uiso   1.00
C250   C     0.79329   0.57380   0.52669   0.00000  Uiso   1.00
C251   C     0.76920   0.65630   0.73607   0.00000  Uiso   1.00
C252   C     0.82252   0.69196   0.78969   0.00000  Uiso   1.00
C253   C     0.83099   0.76136   0.82604   0.00000  Uiso   1.00
H254   H     0.63724   0.66533   0.64578   0.00000  Uiso   1.00
H255   H     0.52402   0.56717   0.65275   0.00000  Uiso   1.00
H256   H     0.67488   0.65463   0.53725   0.00000  Uiso   1.00
H257   H     0.70073   0.78329   0.74263   0.00000  Uiso   1.00
H258   H     0.41760   0.44400   0.66783   0.00000  Uiso   1.00
H259   H     0.73570   0.62843   0.42431   0.00000  Uiso   1.00
H260   H     0.79023   0.89975   0.85739   0.00000  Uiso   1.00
H261   H     0.78447   0.55489   0.70266   0.00000  Uiso   1.00
H262   H     0.67932   0.45067   0.71275   0.00000  Uiso   1.00
H263   H     0.83018   0.53812   0.59725   0.00000  Uiso   1.00
H264   H     0.85603   0.66679   0.80263   0.00000  Uiso   1.00
H265   H     0.54365   0.34944   0.71653   0.00000  Uiso   1.00
H266   H     0.86176   0.53387   0.47301   0.00000  Uiso   1.00
H267   H     0.91628   0.80519   0.90609   0.00000  Uiso   1.00
O268   O     0.40880   0.33014   0.69777   0.00000  Uiso   1.00
O269   O     0.82615   0.57211   0.37828   0.00000  Uiso   1.00
O270   O     0.89768   0.92808   0.94648   0.00000  Uiso   1.00
N271   N     0.46170   0.43605   0.67792   0.00000  Uiso   1.00
N272   N     0.75910   0.60847   0.45023   0.00000  Uiso   1.00
N273   N     0.81008   0.86214   0.85512   0.00000  Uiso   1.00
N274   N     0.52952   0.38517   0.70413   0.00000  Uiso   1.00
N275   N     0.82692   0.55759   0.47644   0.00000  Uiso   1.00
N276   N     0.87791   0.81126   0.88133   0.00000  Uiso   1.00
C277   C     0.35052   0.09919   0.43217   0.00000  Uiso   1.00
C278   C     0.34235   0.17062   0.46027   0.00000  Uiso   1.00
C279   C     0.32761   0.19700   0.51978   0.00000  Uiso   1.00
C280   C     0.32222   0.26344   0.53671   0.00000  Uiso   1.00
C281   C     0.30819   0.36848   0.58660   0.00000  Uiso   1.00
C282   C     0.42307   0.11744   0.41484   0.00000  Uiso   1.00
C283   C     0.47619   0.09909   0.43615   0.00000  Uiso   1.00
C284   C     0.53875   0.12077   0.41482   0.00000  Uiso   1.00
C285   C     0.65002   0.14320   0.39415   0.00000  Uiso   1.00
C286   C     0.29755   0.05825   0.36949   0.00000  Uiso   1.00
C287   C     0.24514   0.99014   0.35267   0.00000  Uiso   1.00
C288   C     0.20203   0.96198   0.29316   0.00000  Uiso   1.00
C289   C     0.11841   0.89252   0.20209   0.00000  Uiso   1.00
C290   C     0.36715   0.17029   0.35640   0.00000  Uiso   1.00
C291   C     0.35138   0.20923   0.41911   0.00000  Uiso   1.00
C292   C     0.34601   0.27565   0.43594   0.00000  Uiso   1.00
C293   C     0.33126   0.30213   0.49548   0.00000  Uiso   1.00
C294   C     0.43210   0.15605   0.37368   0.00000  Uiso   1.00
C295   C     0.49459   0.17775   0.35231   0.00000  Uiso   1.00
C296   C     0.54780   0.15945   0.37359   0.00000  Uiso   1.00
C297   C     0.30658   0.09687   0.32833   0.00000  Uiso   1.00
C298   C     0.26354   0.06880   0.26884   0.00000  Uiso   1.00
C299   C     0.21108   0.00066   0.25193   0.00000  Uiso   1.00
H300   H     0.34349   0.06913   0.46422   0.00000  Uiso   1.00
H301   H     0.32062   0.16710   0.55162   0.00000  Uiso   1.00
H302   H     0.46918   0.06921   0.46800   0.00000  Uiso   1.00
H303   H     0.23817   0.96028   0.38454   0.00000  Uiso   1.00
H304   H     0.29929   0.29276   0.63039   0.00000  Uiso   1.00
H305   H     0.61252   0.08632   0.45404   0.00000  Uiso   1.00
H306   H     0.12538   0.85661   0.27804   0.00000  Uiso   1.00
H307   H     0.37419   0.20035   0.32435   0.00000  Uiso   1.00
H308   H     0.35301   0.30552   0.40408   0.00000  Uiso   1.00
H309   H     0.50157   0.20763   0.32046   0.00000  Uiso   1.00
H310   H     0.27055   0.09869   0.23700   0.00000  Uiso   1.00
H311   H     0.32557   0.40511   0.51064   0.00000  Uiso   1.00
H312   H     0.63880   0.19867   0.33429   0.00000  Uiso   1.00
H313   H     0.15167   0.96896   0.15830   0.00000  Uiso   1.00
O314   O     0.29797   0.41576   0.62550   0.00000  Uiso   1.00
O315   O     0.70890   0.14491   0.39412   0.00000  Uiso   1.00
O316   O     0.06979   0.84355   0.16323   0.00000  Uiso   1.00
N317   N     0.30837   0.30476   0.59126   0.00000  Uiso   1.00
N318   N     0.60122   0.11177   0.42639   0.00000  Uiso   1.00
N319   N     0.14580   0.89700   0.26184   0.00000  Uiso   1.00
N320   N     0.32251   0.36521   0.52682   0.00000  Uiso   1.00
N321   N     0.61536   0.17222   0.36196   0.00000  Uiso   1.00
N322   N     0.15994   0.95745   0.19741   0.00000  Uiso   1.00
C323   C     0.01132   0.53562   0.62223   0.00000  Uiso   1.00
C324   C     0.99154   0.59925   0.62508   0.00000  Uiso   1.00
C325   C     0.00329   0.63580   0.58295   0.00000  Uiso   1.00
C326   C     0.98130   0.69254   0.59369   0.00000  Uiso   1.00
C327   C     0.95551   0.78835   0.59033   0.00000  Uiso   1.00
C328   C     0.94341   0.47489   0.61970   0.00000  Uiso   1.00
C329   C     0.91471   0.40688   0.57306   0.00000  Uiso   1.00
C330   C     0.85221   0.35893   0.57928   0.00000  Uiso   1.00
C331   C     0.75173   0.26166   0.56760   0.00000  Uiso   1.00
C332   C     0.05792   0.55723   0.68631   0.00000  Uiso   1.00
C333   C     0.12550   0.55843   0.69567   0.00000  Uiso   1.00
C334   C     0.15940   0.57978   0.75797   0.00000  Uiso   1.00
C335   C     0.23671   0.61036   0.84971   0.00000  Uiso   1.00
C336   C     0.95137   0.57138   0.71623   0.00000  Uiso   1.00
C337   C     0.95897   0.61867   0.67614   0.00000  Uiso   1.00
C338   C     0.93696   0.67537   0.68695   0.00000  Uiso   1.00
C339   C     0.94868   0.71200   0.64484   0.00000  Uiso   1.00
C340   C     0.91085   0.49431   0.67076   0.00000  Uiso   1.00
C341   C     0.84838   0.44645   0.67706   0.00000  Uiso   1.00
C342   C     0.81959   0.37839   0.63043   0.00000  Uiso   1.00
C343   C     0.02536   0.57665   0.73737   0.00000  Uiso   1.00
C344   C     0.05916   0.59800   0.79967   0.00000  Uiso   1.00
C345   C     0.12678   0.59924   0.80912   0.00000  Uiso   1.00
H346   H     0.03667   0.52050   0.58248   0.00000  Uiso   1.00
H347   H     0.02849   0.62075   0.54344   0.00000  Uiso   1.00
H348   H     0.93993   0.39187   0.53355   0.00000  Uiso   1.00
H349   H     0.15068   0.54340   0.65615   0.00000  Uiso   1.00
H350   H     0.00504   0.74045   0.52266   0.00000  Uiso   1.00
H351   H     0.81831   0.25782   0.50183   0.00000  Uiso   1.00
H352   H     0.26272   0.57735   0.76034   0.00000  Uiso   1.00
H353   H     0.92601   0.58650   0.75598   0.00000  Uiso   1.00
H354   H     0.91176   0.69038   0.72646   0.00000  Uiso   1.00
H355   H     0.82320   0.46150   0.71657   0.00000  Uiso   1.00
H356   H     0.03395   0.61303   0.83917   0.00000  Uiso   1.00
H357   H     0.91029   0.79696   0.67121   0.00000  Uiso   1.00
H358   H     0.72356   0.31434   0.65038   0.00000  Uiso   1.00
H359   H     0.16797   0.63387   0.90889   0.00000  Uiso   1.00
O360   O     0.95026   0.83583   0.57437   0.00000  Uiso   1.00
O361   O     0.70530   0.20265   0.54705   0.00000  Uiso   1.00
O362   O     0.28835   0.62187   0.88621   0.00000  Uiso   1.00
N363   N     0.98471   0.73950   0.56168   0.00000  Uiso   1.00
N364   N     0.81012   0.28828   0.54220   0.00000  Uiso   1.00
N365   N     0.22560   0.58700   0.78388   0.00000  Uiso   1.00
N366   N     0.93373   0.76991   0.64161   0.00000  Uiso   1.00
N367   N     0.75914   0.31869   0.62213   0.00000  Uiso   1.00
N368   N     0.17462   0.61741   0.86382   0.00000  Uiso   1.00
C369   C     0.71564   0.62046   0.02521   0.00000  Uiso   1.00
C370   C     0.72103   0.68954   0.01462   0.00000  Uiso   1.00
C371   C     0.66862   0.69837   0.98021   0.00000  Uiso   1.00
C372   C     0.68383   0.76576   0.97609   0.00000  Uiso   1.00
C373   C     0.68226   0.86444   0.95521   0.00000  Uiso   1.00
C374   C     0.73141   0.63981   0.09693   0.00000  Uiso   1.00
C375   C     0.68772   0.60682   0.13173   0.00000  Uiso   1.00
C376   C     0.71167   0.63234   0.19690   0.00000  Uiso   1.00
C377   C     0.72623   0.65378   0.30381   0.00000  Uiso   1.00
C378   C     0.77686   0.60330   0.00100   0.00000  Uiso   1.00
C379   C     0.77139   0.53960   0.95514   0.00000  Uiso   1.00
C380   C     0.83362   0.53437   0.93955   0.00000  Uiso   1.00
C381   C     0.91875   0.49912   0.89750   0.00000  Uiso   1.00
C382   C     0.83587   0.72444   0.07906   0.00000  Uiso   1.00
C383   C     0.78634   0.74602   0.04387   0.00000  Uiso   1.00
C384   C     0.80164   0.81341   0.03979   0.00000  Uiso   1.00
C385   C     0.74925   0.82234   0.00538   0.00000  Uiso   1.00
C386   C     0.79671   0.69629   0.12618   0.00000  Uiso   1.00
C387   C     0.82074   0.72186   0.19131   0.00000  Uiso   1.00
C388   C     0.77709   0.68892   0.22620   0.00000  Uiso   1.00
C389   C     0.84216   0.65977   0.03024   0.00000  Uiso   1.00
C390   C     0.90441   0.65464   0.01472   0.00000  Uiso   1.00
C391   C     0.89904   0.59095   0.96885   0.00000  Uiso   1.00
H392   H     0.66479   0.57649   0.00245   0.00000  Uiso   1.00
H393   H     0.61808   0.65465   0.95759   0.00000  Uiso   1.00
H394   H     0.63719   0.56311   0.10908   0.00000  Uiso   1.00
H395   H     0.72085   0.49590   0.93252   0.00000  Uiso   1.00
H396   H     0.59508   0.76622   0.92078   0.00000  Uiso   1.00
H397   H     0.63538   0.57318   0.24021   0.00000  Uiso   1.00
H398   H     0.81179   0.43146   0.86789   0.00000  Uiso   1.00
H399   H     0.88671   0.76841   0.10184   0.00000  Uiso   1.00
H400   H     0.85218   0.85711   0.06243   0.00000  Uiso   1.00
H401   H     0.87128   0.76557   0.21393   0.00000  Uiso   1.00
H402   H     0.95494   0.69836   0.03736   0.00000  Uiso   1.00
H403   H     0.78508   0.93054   0.00587   0.00000  Uiso   1.00
H404   H     0.82537   0.73750   0.32530   0.00000  Uiso   1.00
H405   H     0.00178   0.59579   0.95298   0.00000  Uiso   1.00
O406   O     0.66335   0.90327   0.93563   0.00000  Uiso   1.00
O407   O     0.71622   0.65000   0.35470   0.00000  Uiso   1.00
O408   O     0.94766   0.46407   0.86623   0.00000  Uiso   1.00
N409   N     0.64454   0.79271   0.94620   0.00000  Uiso   1.00
N410   N     0.68221   0.61225   0.24485   0.00000  Uiso   1.00
N411   N     0.84714   0.47974   0.89678   0.00000  Uiso   1.00
N412   N     0.74678   0.88113   0.99199   0.00000  Uiso   1.00
N413   N     0.78445   0.70067   0.29064   0.00000  Uiso   1.00
N414   N     0.94938   0.56816   0.94256   0.00000  Uiso   1.00
C415   C     0.72874   0.18700   0.16442   0.00000  Uiso   1.00
C416   C     0.71681   0.25365   0.16320   0.00000  Uiso   1.00
C417   C     0.65283   0.26148   0.16168   0.00000  Uiso   1.00
C418   C     0.65290   0.32662   0.16073   0.00000  Uiso   1.00
C419   C     0.62497   0.42169   0.15872   0.00000  Uiso   1.00
C420   C     0.76221   0.16482   0.10760   0.00000  Uiso   1.00
C421   C     0.73640   0.09797   0.05932   0.00000  Uiso   1.00
C422   C     0.77469   0.08834   0.01157   0.00000  Uiso   1.00
C423   C     0.81725   0.04549   0.92326   0.00000  Uiso   1.00
C424   C     0.78525   0.21226   0.22317   0.00000  Uiso   1.00
C425   C     0.77883   0.18528   0.27207   0.00000  Uiso   1.00
C426   C     0.83653   0.21557   0.32162   0.00000  Uiso   1.00
C427   C     0.91488   0.24637   0.41276   0.00000  Uiso   1.00
C428   C     0.84264   0.28876   0.16547   0.00000  Uiso   1.00
C429   C     0.77868   0.30892   0.16377   0.00000  Uiso   1.00
C430   C     0.77885   0.37407   0.16283   0.00000  Uiso   1.00
C431   C     0.71488   0.38200   0.16130   0.00000  Uiso   1.00
C432   C     0.82407   0.22010   0.10816   0.00000  Uiso   1.00
C433   C     0.86241   0.21056   0.06048   0.00000  Uiso   1.00
C434   C     0.83667   0.14371   0.01214   0.00000  Uiso   1.00
C435   C     0.84712   0.26754   0.22374   0.00000  Uiso   1.00
C436   C     0.90484   0.29787   0.27323   0.00000  Uiso   1.00
C437   C     0.89851   0.27095   0.32219   0.00000  Uiso   1.00
H438   H     0.68058   0.14396   0.16398   0.00000  Uiso   1.00
H439   H     0.60497   0.21868   0.16123   0.00000  Uiso   1.00
H440   H     0.68852   0.05520   0.05890   0.00000  Uiso   1.00
H441   H     0.73095   0.14250   0.27162   0.00000  Uiso   1.00
H442   H     0.54842   0.32590   0.15841   0.00000  Uiso   1.00
H443   H     0.72461   0.98118   0.94265   0.00000  Uiso   1.00
H444   H     0.81407   0.16526   0.39121   0.00000  Uiso   1.00
H445   H     0.89081   0.33180   0.16591   0.00000  Uiso   1.00
H446   H     0.82673   0.41683   0.16327   0.00000  Uiso   1.00
H447   H     0.91029   0.25335   0.06093   0.00000  Uiso   1.00
H448   H     0.95271   0.34065   0.27365   0.00000  Uiso   1.00
H449   H     0.72841   0.48672   0.16006   0.00000  Uiso   1.00
H450   H     0.90461   0.14200   0.94430   0.00000  Uiso   1.00
H451   H     0.99407   0.32608   0.39286   0.00000  Uiso   1.00
O452   O     0.59247   0.45885   0.15745   0.00000  Uiso   1.00
O453   O     0.82363   0.00658   0.87438   0.00000  Uiso   1.00
O454   O     0.94100   0.24810   0.46287   0.00000  Uiso   1.00
N455   N     0.59957   0.35208   0.15918   0.00000  Uiso   1.00
N456   N     0.76430   0.02979   0.95745   0.00000  Uiso   1.00
N457   N     0.84794   0.20188   0.37680   0.00000  Uiso   1.00
N458   N     0.69643   0.43862   0.16007   0.00000  Uiso   1.00
N459   N     0.86115   0.11633   0.95834   0.00000  Uiso   1.00
N460   N     0.94480   0.28842   0.37769   0.00000  Uiso   1.00
C461   C     0.14845   0.14553   0.64791   0.00000  Uiso   1.00
C462   C     0.13399   0.21034   0.64483   0.00000  Uiso   1.00
C463   C     0.12706   0.22757   0.59093   0.00000  Uiso   1.00
C464   C     0.11392   0.28913   0.59796   0.00000  Uiso   1.00
C465   C     0.09241   0.38328   0.58423   0.00000  Uiso   1.00
C466   C     0.21495   0.17559   0.69848   0.00000  Uiso   1.00
C467   C     0.27608   0.16360   0.68968   0.00000  Uiso   1.00
C468   C     0.33109   0.19589   0.74187   0.00000  Uiso   1.00
C469   C     0.43526   0.23605   0.81144   0.00000  Uiso   1.00
C470   C     0.08887   0.10457   0.67466   0.00000  Uiso   1.00
C471   C     0.04400   0.03286   0.64586   0.00000  Uiso   1.00
C472   C     0.99287   0.00535   0.67801   0.00000  Uiso   1.00
C473   C     0.90128   0.93525   0.71060   0.00000  Uiso   1.00
C474   C     0.13744   0.22419   0.75623   0.00000  Uiso   1.00
C475   C     0.12801   0.25306   0.70367   0.00000  Uiso   1.00
C476   C     0.11488   0.31460   0.71078   0.00000  Uiso   1.00
C477   C     0.10793   0.33193   0.65690   0.00000  Uiso   1.00
C478   C     0.20897   0.21831   0.75731   0.00000  Uiso   1.00
C479   C     0.26391   0.25062   0.80953   0.00000  Uiso   1.00
C480   C     0.32510   0.23869   0.80082   0.00000  Uiso   1.00
C481   C     0.08289   0.14729   0.73350   0.00000  Uiso   1.00
C482   C     0.03183   0.11989   0.76570   0.00000  Uiso   1.00
C483   C     0.98689   0.04816   0.73695   0.00000  Uiso   1.00
H484   H     0.15311   0.11227   0.60211   0.00000  Uiso   1.00
H485   H     0.13169   0.19450   0.54541   0.00000  Uiso   1.00
H486   H     0.28069   0.13053   0.64415   0.00000  Uiso   1.00
H487   H     0.04865   0.99981   0.60033   0.00000  Uiso   1.00
H488   H     0.10534   0.30453   0.50850   0.00000  Uiso   1.00
H489   H     0.41950   0.16962   0.71670   0.00000  Uiso   1.00
H490   H     0.93019   0.89398   0.62430   0.00000  Uiso   1.00
H491   H     0.13279   0.25745   0.80204   0.00000  Uiso   1.00
H492   H     0.11026   0.34765   0.75631   0.00000  Uiso   1.00
H493   H     0.25926   0.28368   0.85505   0.00000  Uiso   1.00
H494   H     0.02722   0.15297   0.81123   0.00000  Uiso   1.00
H495   H     0.08795   0.42883   0.67967   0.00000  Uiso   1.00
H496   H     0.40211   0.29392   0.88788   0.00000  Uiso   1.00
H497   H     0.91280   0.01829   0.79548   0.00000  Uiso   1.00
O498   O     0.08221   0.42341   0.56040   0.00000  Uiso   1.00
O499   O     0.49437   0.24640   0.83356   0.00000  Uiso   1.00
O500   O     0.85241   0.88478   0.71233   0.00000  Uiso   1.00
N501   N     0.10432   0.32140   0.55506   0.00000  Uiso   1.00
N502   N     0.39805   0.19527   0.74971   0.00000  Uiso   1.00
N503   N     0.94060   0.93757   0.66333   0.00000  Uiso   1.00
N504   N     0.09496   0.38828   0.64717   0.00000  Uiso   1.00
N505   N     0.38869   0.26216   0.84182   0.00000  Uiso   1.00
N506   N     0.93124   0.00446   0.75544   0.00000  Uiso   1.00
C507   C     0.47416   0.54908   0.41689   0.00000  Uiso   1.00
C508   C     0.50858   0.61673   0.40146   0.00000  Uiso   1.00
C509   C     0.58040   0.65562   0.41141   0.00000  Uiso   1.00
C510   C     0.60134   0.71595   0.39414   0.00000  Uiso   1.00
C511   C     0.66227   0.81788   0.37421   0.00000  Uiso   1.00
C512   C     0.42474   0.56511   0.46099   0.00000  Uiso   1.00
C513   C     0.42608   0.56059   0.52099   0.00000  Uiso   1.00
C514   C     0.37644   0.57747   0.55382   0.00000  Uiso   1.00
C515   C     0.30717   0.59921   0.62630   0.00000  Uiso   1.00
C516   C     0.42710   0.49143   0.35507   0.00000  Uiso   1.00
C517   C     0.43041   0.42495   0.32601   0.00000  Uiso   1.00
C518   C     0.38274   0.37979   0.26968   0.00000  Uiso   1.00
C519   C     0.31714   0.28713   0.17770   0.00000  Uiso   1.00
C520   C     0.38361   0.58707   0.36852   0.00000  Uiso   1.00
C521   C     0.45940   0.63736   0.37519   0.00000  Uiso   1.00
C522   C     0.48023   0.69765   0.35790   0.00000  Uiso   1.00
C523   C     0.55208   0.73662   0.36782   0.00000  Uiso   1.00
C524   C     0.37556   0.58575   0.43473   0.00000  Uiso   1.00
C525   C     0.32590   0.60263   0.46748   0.00000  Uiso   1.00
C526   C     0.32717   0.59814   0.52751   0.00000  Uiso   1.00
C527   C     0.37792   0.51207   0.32880   0.00000  Uiso   1.00
C528   C     0.33024   0.46699   0.27250   0.00000  Uiso   1.00
C529   C     0.33347   0.40046   0.24336   0.00000  Uiso   1.00
H530   H     0.51244   0.53301   0.43734   0.00000  Uiso   1.00
H531   H     0.61845   0.63963   0.43174   0.00000  Uiso   1.00
H532   H     0.46414   0.54462   0.54130   0.00000  Uiso   1.00
H533   H     0.46847   0.40900   0.34635   0.00000  Uiso   1.00
H534   H     0.71428   0.76696   0.41397   0.00000  Uiso   1.00
H535   H     0.38890   0.56659   0.64497   0.00000  Uiso   1.00
H536   H     0.39803   0.28061   0.23389   0.00000  Uiso   1.00
H537   H     0.34532   0.60314   0.34807   0.00000  Uiso   1.00
H538   H     0.44216   0.71361   0.33757   0.00000  Uiso   1.00
H539   H     0.28785   0.61859   0.44713   0.00000  Uiso   1.00
H540   H     0.29219   0.48298   0.25219   0.00000  Uiso   1.00
H541   H     0.57120   0.82700   0.33755   0.00000  Uiso   1.00
H542   H     0.24582   0.62663   0.56854   0.00000  Uiso   1.00
H543   H     0.25496   0.34066   0.15747   0.00000  Uiso   1.00
O544   O     0.70946   0.86840   0.37048   0.00000  Uiso   1.00
O545   O     0.28256   0.60551   0.67354   0.00000  Uiso   1.00
O546   O     0.29455   0.23032   0.13421   0.00000  Uiso   1.00
N547   N     0.66732   0.76592   0.39741   0.00000  Uiso   1.00
N548   N     0.36311   0.57860   0.61339   0.00000  Uiso   1.00
N549   N     0.37164   0.31123   0.22907   0.00000  Uiso   1.00
N550   N     0.59033   0.79823   0.35629   0.00000  Uiso   1.00
N551   N     0.28612   0.61090   0.57226   0.00000  Uiso   1.00
N552   N     0.29465   0.34354   0.18795   0.00000  Uiso   1.00
