data_job_03701
_audit_creation_date              2018-12-19
_audit_creation_method            'Materials Studio'
_symmetry_space_group_name_H-M    'P1'
_symmetry_Int_Tables_number       1
_symmetry_cell_setting            triclinic
loop_
_symmetry_equiv_pos_as_xyz
  x,y,z
_cell_length_a                    20.7998
_cell_length_b                    9.8862
_cell_length_c                    39.7424
_cell_angle_alpha                 90.0000
_cell_angle_beta                  90.0000
_cell_angle_gamma                 90.0000
loop_
_atom_site_label
_atom_site_type_symbol
_atom_site_fract_x
_atom_site_fract_y
_atom_site_fract_z
_atom_site_U_iso_or_equiv
_atom_site_adp_type
_atom_site_occupancy
C1     C     0.41835   0.82374   0.35650   0.00000  Uiso   1.00
C2     C     0.45725   0.72190   0.37690   0.00000  Uiso   1.00
C3     C     0.45098   0.69801   0.41116   0.00000  Uiso   1.00
C4     C     0.49104   0.60072   0.42513   0.00000  Uiso   1.00
C5     C     0.54466   0.45340   0.45979   0.00000  Uiso   1.00
C6     C     0.46730   0.91660   0.33969   0.00000  Uiso   1.00
C7     C     0.46947   0.05640   0.34266   0.00000  Uiso   1.00
C8     C     0.51798   0.12300   0.32530   0.00000  Uiso   1.00
C9     C     0.58717   0.27796   0.30217   0.00000  Uiso   1.00
C10    C     0.38692   0.74345   0.32818   0.00000  Uiso   1.00
C11    C     0.32150   0.73769   0.32145   0.00000  Uiso   1.00
C12    C     0.30234   0.65854   0.29439   0.00000  Uiso   1.00
C13    C     0.24672   0.54466   0.25338   0.00000  Uiso   1.00
C14    C     0.50065   0.69345   0.32040   0.00000  Uiso   1.00
C15    C     0.50195   0.65113   0.35729   0.00000  Uiso   1.00
C16    C     0.54203   0.55385   0.37121   0.00000  Uiso   1.00
C17    C     0.53582   0.52981   0.40548   0.00000  Uiso   1.00
C18    C     0.51199   0.84583   0.32008   0.00000  Uiso   1.00
C19    C     0.56051   0.91224   0.30271   0.00000  Uiso   1.00
C20    C     0.56276   0.05210   0.30565   0.00000  Uiso   1.00
C21    C     0.43161   0.67267   0.30857   0.00000  Uiso   1.00
C22    C     0.41255   0.59353   0.28151   0.00000  Uiso   1.00
C23    C     0.34712   0.58764   0.27474   0.00000  Uiso   1.00
H24    H     0.38356   0.87885   0.37177   0.00000  Uiso   1.00
H25    H     0.41639   0.75281   0.42632   0.00000  Uiso   1.00
H26    H     0.43487   0.11114   0.35783   0.00000  Uiso   1.00
H27    H     0.28692   0.79247   0.33663   0.00000  Uiso   1.00
H28    H     0.47251   0.58189   0.47816   0.00000  Uiso   1.00
H29    H     0.51147   0.33746   0.33373   0.00000  Uiso   1.00
H30    H     0.19950   0.66549   0.28902   0.00000  Uiso   1.00
H31    H     0.53545   0.63835   0.30513   0.00000  Uiso   1.00
H32    H     0.57661   0.49910   0.35603   0.00000  Uiso   1.00
H33    H     0.59509   0.85744   0.28754   0.00000  Uiso   1.00
H34    H     0.44715   0.53877   0.26634   0.00000  Uiso   1.00
H35    H     0.60256   0.37598   0.42111   0.00000  Uiso   1.00
H36    H     0.64151   0.13155   0.27668   0.00000  Uiso   1.00
H37    H     0.32954   0.45958   0.23197   0.00000  Uiso   1.00
O38    O     0.56189   0.39171   0.48432   0.00000  Uiso   1.00
O39    O     0.61299   0.38298   0.29483   0.00000  Uiso   1.00
O40    O     0.20369   0.50138   0.23618   0.00000  Uiso   1.00
N41    N     0.49746   0.55252   0.45775   0.00000  Uiso   1.00
N42    N     0.53389   0.25893   0.32272   0.00000  Uiso   1.00
N43    N     0.24222   0.63073   0.28092   0.00000  Uiso   1.00
N44    N     0.56744   0.44172   0.42705   0.00000  Uiso   1.00
N45    N     0.60386   0.14813   0.29202   0.00000  Uiso   1.00
N46    N     0.31220   0.51993   0.25022   0.00000  Uiso   1.00
C47    C     0.08165   0.67626   0.85650   0.00000  Uiso   1.00
C48    C     0.04275   0.77810   0.87690   0.00000  Uiso   1.00
C49    C     0.04902   0.80199   0.91116   0.00000  Uiso   1.00
C50    C     0.00896   0.89928   0.92513   0.00000  Uiso   1.00
C51    C     0.95534   0.04660   0.95979   0.00000  Uiso   1.00
C52    C     0.03270   0.58340   0.83969   0.00000  Uiso   1.00
C53    C     0.03053   0.44360   0.84266   0.00000  Uiso   1.00
C54    C     0.98202   0.37700   0.82530   0.00000  Uiso   1.00
C55    C     0.91283   0.22204   0.80217   0.00000  Uiso   1.00
C56    C     0.11308   0.75655   0.82818   0.00000  Uiso   1.00
C57    C     0.17850   0.76231   0.82145   0.00000  Uiso   1.00
C58    C     0.19766   0.84146   0.79439   0.00000  Uiso   1.00
C59    C     0.25328   0.95534   0.75338   0.00000  Uiso   1.00
C60    C     0.99935   0.80655   0.82040   0.00000  Uiso   1.00
C61    C     0.99805   0.84887   0.85729   0.00000  Uiso   1.00
C62    C     0.95797   0.94615   0.87121   0.00000  Uiso   1.00
C63    C     0.96418   0.97019   0.90548   0.00000  Uiso   1.00
C64    C     0.98801   0.65417   0.82008   0.00000  Uiso   1.00
C65    C     0.93949   0.58776   0.80271   0.00000  Uiso   1.00
C66    C     0.93724   0.44790   0.80565   0.00000  Uiso   1.00
C67    C     0.06839   0.82733   0.80857   0.00000  Uiso   1.00
C68    C     0.08745   0.90647   0.78151   0.00000  Uiso   1.00
C69    C     0.15288   0.91236   0.77474   0.00000  Uiso   1.00
H70    H     0.11644   0.62115   0.87177   0.00000  Uiso   1.00
H71    H     0.08361   0.74719   0.92632   0.00000  Uiso   1.00
H72    H     0.06513   0.38886   0.85783   0.00000  Uiso   1.00
H73    H     0.21308   0.70753   0.83663   0.00000  Uiso   1.00
H74    H     0.02749   0.91811   0.97816   0.00000  Uiso   1.00
H75    H     0.98853   0.16254   0.83373   0.00000  Uiso   1.00
H76    H     0.30050   0.83451   0.78902   0.00000  Uiso   1.00
H77    H     0.96455   0.86165   0.80513   0.00000  Uiso   1.00
H78    H     0.92339   0.00090   0.85603   0.00000  Uiso   1.00
H79    H     0.90491   0.64256   0.78754   0.00000  Uiso   1.00
H80    H     0.05285   0.96123   0.76634   0.00000  Uiso   1.00
H81    H     0.89744   0.12402   0.92111   0.00000  Uiso   1.00
H82    H     0.85849   0.36845   0.77668   0.00000  Uiso   1.00
H83    H     0.17046   0.04042   0.73197   0.00000  Uiso   1.00
O84    O     0.93811   0.10829   0.98432   0.00000  Uiso   1.00
O85    O     0.88701   0.11702   0.79483   0.00000  Uiso   1.00
O86    O     0.29631   0.99862   0.73618   0.00000  Uiso   1.00
N87    N     0.00254   0.94748   0.95775   0.00000  Uiso   1.00
N88    N     0.96611   0.24107   0.82272   0.00000  Uiso   1.00
N89    N     0.25778   0.86927   0.78092   0.00000  Uiso   1.00
N90    N     0.93256   0.05828   0.92705   0.00000  Uiso   1.00
N91    N     0.89614   0.35187   0.79202   0.00000  Uiso   1.00
N92    N     0.18780   0.98007   0.75022   0.00000  Uiso   1.00
C93    C     0.58165   0.82374   0.14350   0.00000  Uiso   1.00
C94    C     0.54275   0.72190   0.12310   0.00000  Uiso   1.00
C95    C     0.54902   0.69801   0.08884   0.00000  Uiso   1.00
C96    C     0.50896   0.60072   0.07487   0.00000  Uiso   1.00
C97    C     0.45534   0.45340   0.04021   0.00000  Uiso   1.00
C98    C     0.53270   0.91660   0.16031   0.00000  Uiso   1.00
C99    C     0.53053   0.05640   0.15734   0.00000  Uiso   1.00
C100   C     0.48202   0.12300   0.17470   0.00000  Uiso   1.00
C101   C     0.41283   0.27796   0.19783   0.00000  Uiso   1.00
C102   C     0.61308   0.74345   0.17182   0.00000  Uiso   1.00
C103   C     0.67850   0.73769   0.17855   0.00000  Uiso   1.00
C104   C     0.69766   0.65854   0.20561   0.00000  Uiso   1.00
C105   C     0.75328   0.54466   0.24662   0.00000  Uiso   1.00
C106   C     0.49935   0.69345   0.17960   0.00000  Uiso   1.00
C107   C     0.49805   0.65113   0.14271   0.00000  Uiso   1.00
C108   C     0.45797   0.55385   0.12879   0.00000  Uiso   1.00
C109   C     0.46418   0.52981   0.09452   0.00000  Uiso   1.00
C110   C     0.48801   0.84583   0.17992   0.00000  Uiso   1.00
C111   C     0.43949   0.91224   0.19729   0.00000  Uiso   1.00
C112   C     0.43724   0.05210   0.19435   0.00000  Uiso   1.00
C113   C     0.56839   0.67267   0.19143   0.00000  Uiso   1.00
C114   C     0.58745   0.59353   0.21849   0.00000  Uiso   1.00
C115   C     0.65288   0.58764   0.22526   0.00000  Uiso   1.00
H116   H     0.61644   0.87885   0.12823   0.00000  Uiso   1.00
H117   H     0.58361   0.75281   0.07368   0.00000  Uiso   1.00
H118   H     0.56513   0.11114   0.14217   0.00000  Uiso   1.00
H119   H     0.71308   0.79247   0.16337   0.00000  Uiso   1.00
H120   H     0.52749   0.58189   0.02184   0.00000  Uiso   1.00
H121   H     0.48853   0.33746   0.16627   0.00000  Uiso   1.00
H122   H     0.80050   0.66549   0.21098   0.00000  Uiso   1.00
H123   H     0.46455   0.63835   0.19487   0.00000  Uiso   1.00
H124   H     0.42339   0.49910   0.14397   0.00000  Uiso   1.00
H125   H     0.40491   0.85744   0.21246   0.00000  Uiso   1.00
H126   H     0.55285   0.53877   0.23366   0.00000  Uiso   1.00
H127   H     0.39744   0.37598   0.07889   0.00000  Uiso   1.00
H128   H     0.35849   0.13155   0.22332   0.00000  Uiso   1.00
H129   H     0.67046   0.45958   0.26803   0.00000  Uiso   1.00
O130   O     0.43811   0.39171   0.01568   0.00000  Uiso   1.00
O131   O     0.38701   0.38298   0.20517   0.00000  Uiso   1.00
O132   O     0.79631   0.50138   0.26382   0.00000  Uiso   1.00
N133   N     0.50254   0.55252   0.04225   0.00000  Uiso   1.00
N134   N     0.46611   0.25893   0.17728   0.00000  Uiso   1.00
N135   N     0.75778   0.63073   0.21908   0.00000  Uiso   1.00
N136   N     0.43256   0.44172   0.07295   0.00000  Uiso   1.00
N137   N     0.39614   0.14813   0.20798   0.00000  Uiso   1.00
N138   N     0.68780   0.51993   0.24978   0.00000  Uiso   1.00
C139   C     0.91835   0.67626   0.64350   0.00000  Uiso   1.00
C140   C     0.95725   0.77810   0.62310   0.00000  Uiso   1.00
C141   C     0.95098   0.80199   0.58884   0.00000  Uiso   1.00
C142   C     0.99104   0.89928   0.57487   0.00000  Uiso   1.00
C143   C     0.04466   0.04660   0.54021   0.00000  Uiso   1.00
C144   C     0.96730   0.58340   0.66031   0.00000  Uiso   1.00
C145   C     0.96947   0.44360   0.65734   0.00000  Uiso   1.00
C146   C     0.01798   0.37700   0.67470   0.00000  Uiso   1.00
C147   C     0.08717   0.22204   0.69783   0.00000  Uiso   1.00
C148   C     0.88692   0.75655   0.67182   0.00000  Uiso   1.00
C149   C     0.82150   0.76231   0.67855   0.00000  Uiso   1.00
C150   C     0.80234   0.84146   0.70561   0.00000  Uiso   1.00
C151   C     0.74672   0.95534   0.74662   0.00000  Uiso   1.00
C152   C     0.00065   0.80655   0.67960   0.00000  Uiso   1.00
C153   C     0.00195   0.84887   0.64271   0.00000  Uiso   1.00
C154   C     0.04203   0.94615   0.62879   0.00000  Uiso   1.00
C155   C     0.03582   0.97019   0.59452   0.00000  Uiso   1.00
C156   C     0.01199   0.65417   0.67992   0.00000  Uiso   1.00
C157   C     0.06051   0.58776   0.69729   0.00000  Uiso   1.00
C158   C     0.06276   0.44790   0.69435   0.00000  Uiso   1.00
C159   C     0.93161   0.82733   0.69143   0.00000  Uiso   1.00
C160   C     0.91255   0.90647   0.71849   0.00000  Uiso   1.00
C161   C     0.84712   0.91236   0.72526   0.00000  Uiso   1.00
H162   H     0.88356   0.62115   0.62823   0.00000  Uiso   1.00
H163   H     0.91639   0.74719   0.57368   0.00000  Uiso   1.00
H164   H     0.93487   0.38886   0.64217   0.00000  Uiso   1.00
H165   H     0.78692   0.70753   0.66337   0.00000  Uiso   1.00
H166   H     0.97251   0.91811   0.52184   0.00000  Uiso   1.00
H167   H     0.01147   0.16254   0.66627   0.00000  Uiso   1.00
H168   H     0.69950   0.83451   0.71098   0.00000  Uiso   1.00
H169   H     0.03545   0.86165   0.69487   0.00000  Uiso   1.00
H170   H     0.07661   0.00090   0.64397   0.00000  Uiso   1.00
H171   H     0.09509   0.64256   0.71246   0.00000  Uiso   1.00
H172   H     0.94715   0.96123   0.73366   0.00000  Uiso   1.00
H173   H     0.10256   0.12402   0.57889   0.00000  Uiso   1.00
H174   H     0.14151   0.36845   0.72332   0.00000  Uiso   1.00
H175   H     0.82954   0.04042   0.76803   0.00000  Uiso   1.00
O176   O     0.06189   0.10829   0.51568   0.00000  Uiso   1.00
O177   O     0.11299   0.11702   0.70517   0.00000  Uiso   1.00
O178   O     0.70369   0.99862   0.76382   0.00000  Uiso   1.00
N179   N     0.99746   0.94748   0.54225   0.00000  Uiso   1.00
N180   N     0.03389   0.24107   0.67728   0.00000  Uiso   1.00
N181   N     0.74222   0.86927   0.71908   0.00000  Uiso   1.00
N182   N     0.06744   0.05828   0.57295   0.00000  Uiso   1.00
N183   N     0.10386   0.35187   0.70798   0.00000  Uiso   1.00
N184   N     0.81220   0.98007   0.74978   0.00000  Uiso   1.00
C185   C     0.58165   0.17626   0.64350   0.00000  Uiso   1.00
C186   C     0.54275   0.27810   0.62310   0.00000  Uiso   1.00
C187   C     0.54902   0.30199   0.58884   0.00000  Uiso   1.00
C188   C     0.50896   0.39928   0.57487   0.00000  Uiso   1.00
C189   C     0.45534   0.54660   0.54021   0.00000  Uiso   1.00
C190   C     0.53270   0.08340   0.66031   0.00000  Uiso   1.00
C191   C     0.53053   0.94360   0.65734   0.00000  Uiso   1.00
C192   C     0.48202   0.87700   0.67470   0.00000  Uiso   1.00
C193   C     0.41283   0.72204   0.69783   0.00000  Uiso   1.00
C194   C     0.61308   0.25655   0.67182   0.00000  Uiso   1.00
C195   C     0.67850   0.26231   0.67855   0.00000  Uiso   1.00
C196   C     0.69766   0.34146   0.70561   0.00000  Uiso   1.00
C197   C     0.75328   0.45534   0.74662   0.00000  Uiso   1.00
C198   C     0.49935   0.30655   0.67960   0.00000  Uiso   1.00
C199   C     0.49805   0.34887   0.64271   0.00000  Uiso   1.00
C200   C     0.45797   0.44615   0.62879   0.00000  Uiso   1.00
C201   C     0.46418   0.47019   0.59452   0.00000  Uiso   1.00
C202   C     0.48801   0.15417   0.67992   0.00000  Uiso   1.00
C203   C     0.43949   0.08776   0.69729   0.00000  Uiso   1.00
C204   C     0.43724   0.94790   0.69435   0.00000  Uiso   1.00
C205   C     0.56839   0.32733   0.69143   0.00000  Uiso   1.00
C206   C     0.58745   0.40647   0.71849   0.00000  Uiso   1.00
C207   C     0.65288   0.41236   0.72526   0.00000  Uiso   1.00
H208   H     0.61644   0.12115   0.62823   0.00000  Uiso   1.00
H209   H     0.58361   0.24719   0.57368   0.00000  Uiso   1.00
H210   H     0.56513   0.88886   0.64217   0.00000  Uiso   1.00
H211   H     0.71308   0.20753   0.66337   0.00000  Uiso   1.00
H212   H     0.52749   0.41811   0.52184   0.00000  Uiso   1.00
H213   H     0.48853   0.66254   0.66627   0.00000  Uiso   1.00
H214   H     0.80050   0.33451   0.71098   0.00000  Uiso   1.00
H215   H     0.46455   0.36165   0.69487   0.00000  Uiso   1.00
H216   H     0.42339   0.50090   0.64397   0.00000  Uiso   1.00
H217   H     0.40491   0.14256   0.71246   0.00000  Uiso   1.00
H218   H     0.55285   0.46123   0.73366   0.00000  Uiso   1.00
H219   H     0.39744   0.62402   0.57889   0.00000  Uiso   1.00
H220   H     0.35849   0.86845   0.72332   0.00000  Uiso   1.00
H221   H     0.67046   0.54042   0.76803   0.00000  Uiso   1.00
O222   O     0.43811   0.60829   0.51568   0.00000  Uiso   1.00
O223   O     0.38701   0.61702   0.70517   0.00000  Uiso   1.00
O224   O     0.79631   0.49862   0.76382   0.00000  Uiso   1.00
N225   N     0.50254   0.44748   0.54225   0.00000  Uiso   1.00
N226   N     0.46611   0.74107   0.67728   0.00000  Uiso   1.00
N227   N     0.75778   0.36927   0.71908   0.00000  Uiso   1.00
N228   N     0.43256   0.55828   0.57295   0.00000  Uiso   1.00
N229   N     0.39614   0.85187   0.70798   0.00000  Uiso   1.00
N230   N     0.68780   0.48007   0.74978   0.00000  Uiso   1.00
C231   C     0.91835   0.32374   0.14350   0.00000  Uiso   1.00
C232   C     0.95725   0.22190   0.12310   0.00000  Uiso   1.00
C233   C     0.95098   0.19801   0.08884   0.00000  Uiso   1.00
C234   C     0.99104   0.10072   0.07487   0.00000  Uiso   1.00
C235   C     0.04466   0.95340   0.04021   0.00000  Uiso   1.00
C236   C     0.96730   0.41660   0.16031   0.00000  Uiso   1.00
C237   C     0.96947   0.55640   0.15734   0.00000  Uiso   1.00
C238   C     0.01798   0.62300   0.17470   0.00000  Uiso   1.00
C239   C     0.08717   0.77796   0.19783   0.00000  Uiso   1.00
C240   C     0.88692   0.24345   0.17182   0.00000  Uiso   1.00
C241   C     0.82150   0.23769   0.17855   0.00000  Uiso   1.00
C242   C     0.80234   0.15854   0.20561   0.00000  Uiso   1.00
C243   C     0.74672   0.04466   0.24662   0.00000  Uiso   1.00
C244   C     0.00065   0.19345   0.17960   0.00000  Uiso   1.00
C245   C     0.00195   0.15113   0.14271   0.00000  Uiso   1.00
C246   C     0.04203   0.05385   0.12879   0.00000  Uiso   1.00
C247   C     0.03582   0.02981   0.09452   0.00000  Uiso   1.00
C248   C     0.01199   0.34583   0.17992   0.00000  Uiso   1.00
C249   C     0.06051   0.41224   0.19729   0.00000  Uiso   1.00
C250   C     0.06276   0.55210   0.19435   0.00000  Uiso   1.00
C251   C     0.93161   0.17267   0.19143   0.00000  Uiso   1.00
C252   C     0.91255   0.09353   0.21849   0.00000  Uiso   1.00
C253   C     0.84712   0.08764   0.22526   0.00000  Uiso   1.00
H254   H     0.88356   0.37885   0.12823   0.00000  Uiso   1.00
H255   H     0.91639   0.25281   0.07368   0.00000  Uiso   1.00
H256   H     0.93487   0.61114   0.14217   0.00000  Uiso   1.00
H257   H     0.78692   0.29247   0.16337   0.00000  Uiso   1.00
H258   H     0.97251   0.08189   0.02184   0.00000  Uiso   1.00
H259   H     0.01147   0.83746   0.16627   0.00000  Uiso   1.00
H260   H     0.69950   0.16549   0.21098   0.00000  Uiso   1.00
H261   H     0.03545   0.13835   0.19487   0.00000  Uiso   1.00
H262   H     0.07661   0.99910   0.14397   0.00000  Uiso   1.00
H263   H     0.09509   0.35744   0.21246   0.00000  Uiso   1.00
H264   H     0.94715   0.03877   0.23366   0.00000  Uiso   1.00
H265   H     0.10256   0.87598   0.07889   0.00000  Uiso   1.00
H266   H     0.14151   0.63155   0.22332   0.00000  Uiso   1.00
H267   H     0.82954   0.95958   0.26803   0.00000  Uiso   1.00
O268   O     0.06189   0.89171   0.01568   0.00000  Uiso   1.00
O269   O     0.11299   0.88298   0.20517   0.00000  Uiso   1.00
O270   O     0.70369   0.00138   0.26382   0.00000  Uiso   1.00
N271   N     0.99746   0.05252   0.04225   0.00000  Uiso   1.00
N272   N     0.03389   0.75893   0.17728   0.00000  Uiso   1.00
N273   N     0.74222   0.13073   0.21908   0.00000  Uiso   1.00
N274   N     0.06744   0.94172   0.07295   0.00000  Uiso   1.00
N275   N     0.10386   0.64813   0.20798   0.00000  Uiso   1.00
N276   N     0.81220   0.01993   0.24978   0.00000  Uiso   1.00
C277   C     0.41835   0.17626   0.85650   0.00000  Uiso   1.00
C278   C     0.45725   0.27810   0.87690   0.00000  Uiso   1.00
C279   C     0.45098   0.30199   0.91116   0.00000  Uiso   1.00
C280   C     0.49104   0.39928   0.92513   0.00000  Uiso   1.00
C281   C     0.54466   0.54660   0.95979   0.00000  Uiso   1.00
C282   C     0.46730   0.08340   0.83969   0.00000  Uiso   1.00
C283   C     0.46947   0.94360   0.84266   0.00000  Uiso   1.00
C284   C     0.51798   0.87700   0.82530   0.00000  Uiso   1.00
C285   C     0.58717   0.72204   0.80217   0.00000  Uiso   1.00
C286   C     0.38692   0.25655   0.82818   0.00000  Uiso   1.00
C287   C     0.32150   0.26231   0.82145   0.00000  Uiso   1.00
C288   C     0.30234   0.34146   0.79439   0.00000  Uiso   1.00
C289   C     0.24672   0.45534   0.75338   0.00000  Uiso   1.00
C290   C     0.50065   0.30655   0.82040   0.00000  Uiso   1.00
C291   C     0.50195   0.34887   0.85729   0.00000  Uiso   1.00
C292   C     0.54203   0.44615   0.87121   0.00000  Uiso   1.00
C293   C     0.53582   0.47019   0.90548   0.00000  Uiso   1.00
C294   C     0.51199   0.15417   0.82008   0.00000  Uiso   1.00
C295   C     0.56051   0.08776   0.80271   0.00000  Uiso   1.00
C296   C     0.56276   0.94790   0.80565   0.00000  Uiso   1.00
C297   C     0.43161   0.32733   0.80857   0.00000  Uiso   1.00
C298   C     0.41255   0.40647   0.78151   0.00000  Uiso   1.00
C299   C     0.34712   0.41236   0.77474   0.00000  Uiso   1.00
H300   H     0.38356   0.12115   0.87177   0.00000  Uiso   1.00
H301   H     0.41639   0.24719   0.92632   0.00000  Uiso   1.00
H302   H     0.43487   0.88886   0.85783   0.00000  Uiso   1.00
H303   H     0.28692   0.20753   0.83663   0.00000  Uiso   1.00
H304   H     0.47251   0.41811   0.97816   0.00000  Uiso   1.00
H305   H     0.51147   0.66254   0.83373   0.00000  Uiso   1.00
H306   H     0.19950   0.33451   0.78902   0.00000  Uiso   1.00
H307   H     0.53545   0.36165   0.80513   0.00000  Uiso   1.00
H308   H     0.57661   0.50090   0.85603   0.00000  Uiso   1.00
H309   H     0.59509   0.14256   0.78754   0.00000  Uiso   1.00
H310   H     0.44715   0.46123   0.76634   0.00000  Uiso   1.00
H311   H     0.60256   0.62402   0.92111   0.00000  Uiso   1.00
H312   H     0.64151   0.86845   0.77668   0.00000  Uiso   1.00
H313   H     0.32954   0.54042   0.73197   0.00000  Uiso   1.00
O314   O     0.56189   0.60829   0.98432   0.00000  Uiso   1.00
O315   O     0.61299   0.61702   0.79483   0.00000  Uiso   1.00
O316   O     0.20369   0.49862   0.73618   0.00000  Uiso   1.00
N317   N     0.49746   0.44748   0.95775   0.00000  Uiso   1.00
N318   N     0.53389   0.74107   0.82272   0.00000  Uiso   1.00
N319   N     0.24222   0.36927   0.78092   0.00000  Uiso   1.00
N320   N     0.56744   0.55828   0.92705   0.00000  Uiso   1.00
N321   N     0.60386   0.85187   0.79202   0.00000  Uiso   1.00
N322   N     0.31220   0.48007   0.75022   0.00000  Uiso   1.00
C323   C     0.08165   0.32374   0.35650   0.00000  Uiso   1.00
C324   C     0.04275   0.22190   0.37690   0.00000  Uiso   1.00
C325   C     0.04902   0.19801   0.41116   0.00000  Uiso   1.00
C326   C     0.00896   0.10072   0.42513   0.00000  Uiso   1.00
C327   C     0.95534   0.95340   0.45979   0.00000  Uiso   1.00
C328   C     0.03270   0.41660   0.33969   0.00000  Uiso   1.00
C329   C     0.03053   0.55640   0.34266   0.00000  Uiso   1.00
C330   C     0.98202   0.62300   0.32530   0.00000  Uiso   1.00
C331   C     0.91283   0.77796   0.30217   0.00000  Uiso   1.00
C332   C     0.11308   0.24345   0.32818   0.00000  Uiso   1.00
C333   C     0.17850   0.23769   0.32145   0.00000  Uiso   1.00
C334   C     0.19766   0.15854   0.29439   0.00000  Uiso   1.00
C335   C     0.25328   0.04466   0.25338   0.00000  Uiso   1.00
C336   C     0.99935   0.19345   0.32040   0.00000  Uiso   1.00
C337   C     0.99805   0.15113   0.35729   0.00000  Uiso   1.00
C338   C     0.95797   0.05385   0.37121   0.00000  Uiso   1.00
C339   C     0.96418   0.02981   0.40548   0.00000  Uiso   1.00
C340   C     0.98801   0.34583   0.32008   0.00000  Uiso   1.00
C341   C     0.93949   0.41224   0.30271   0.00000  Uiso   1.00
C342   C     0.93724   0.55210   0.30565   0.00000  Uiso   1.00
C343   C     0.06839   0.17267   0.30857   0.00000  Uiso   1.00
C344   C     0.08745   0.09353   0.28151   0.00000  Uiso   1.00
C345   C     0.15288   0.08764   0.27474   0.00000  Uiso   1.00
H346   H     0.11644   0.37885   0.37177   0.00000  Uiso   1.00
H347   H     0.08361   0.25281   0.42632   0.00000  Uiso   1.00
H348   H     0.06513   0.61114   0.35783   0.00000  Uiso   1.00
H349   H     0.21308   0.29247   0.33663   0.00000  Uiso   1.00
H350   H     0.02749   0.08189   0.47816   0.00000  Uiso   1.00
H351   H     0.98853   0.83746   0.33373   0.00000  Uiso   1.00
H352   H     0.30050   0.16549   0.28902   0.00000  Uiso   1.00
H353   H     0.96455   0.13835   0.30513   0.00000  Uiso   1.00
H354   H     0.92339   0.99910   0.35603   0.00000  Uiso   1.00
H355   H     0.90491   0.35744   0.28754   0.00000  Uiso   1.00
H356   H     0.05285   0.03877   0.26634   0.00000  Uiso   1.00
H357   H     0.89744   0.87598   0.42111   0.00000  Uiso   1.00
H358   H     0.85849   0.63155   0.27668   0.00000  Uiso   1.00
H359   H     0.17046   0.95958   0.23197   0.00000  Uiso   1.00
O360   O     0.93811   0.89171   0.48432   0.00000  Uiso   1.00
O361   O     0.88701   0.88298   0.29483   0.00000  Uiso   1.00
O362   O     0.29631   0.00138   0.23618   0.00000  Uiso   1.00
N363   N     0.00254   0.05252   0.45775   0.00000  Uiso   1.00
N364   N     0.96611   0.75893   0.32272   0.00000  Uiso   1.00
N365   N     0.25778   0.13073   0.28092   0.00000  Uiso   1.00
N366   N     0.93256   0.94172   0.42705   0.00000  Uiso   1.00
N367   N     0.89614   0.64813   0.29202   0.00000  Uiso   1.00
N368   N     0.18780   0.01993   0.25022   0.00000  Uiso   1.00
