data_job_03727
_audit_creation_date              2018-12-19
_audit_creation_method            'Materials Studio'
_symmetry_space_group_name_H-M    'P1'
_symmetry_Int_Tables_number       1
_symmetry_cell_setting            triclinic
loop_
_symmetry_equiv_pos_as_xyz
  x,y,z
_cell_length_a                    11.8175
_cell_length_b                    21.6453
_cell_length_c                    10.1357
_cell_angle_alpha                 90.0000
_cell_angle_beta                  90.0000
_cell_angle_gamma                 90.0000
loop_
_atom_site_label
_atom_site_type_symbol
_atom_site_fract_x
_atom_site_fract_y
_atom_site_fract_z
_atom_site_U_iso_or_equiv
_atom_site_adp_type
_atom_site_occupancy
C1     C     0.52965   0.45274   0.36901   0.00000  Uiso   1.00
C2     C     0.63076   0.46080   0.27712   0.00000  Uiso   1.00
C3     C     0.68385   0.51632   0.24782   0.00000  Uiso   1.00
C4     C     0.77494   0.51397   0.16146   0.00000  Uiso   1.00
C5     C     0.92633   0.53500   0.02710   0.00000  Uiso   1.00
C6     C     0.43815   0.42097   0.28745   0.00000  Uiso   1.00
C7     C     0.32928   0.44300   0.26685   0.00000  Uiso   1.00
C8     C     0.25822   0.40712   0.18920   0.00000  Uiso   1.00
C9     C     0.11055   0.36630   0.07096   0.00000  Uiso   1.00
C10    C     0.56622   0.40592   0.47304   0.00000  Uiso   1.00
C11    C     0.56501   0.41529   0.60848   0.00000  Uiso   1.00
C12    C     0.60176   0.36673   0.68708   0.00000  Uiso   1.00
C13    C     0.65294   0.30254   0.85699   0.00000  Uiso   1.00
C14    C     0.59703   0.34984   0.26774   0.00000  Uiso   1.00
C15    C     0.66735   0.40491   0.22212   0.00000  Uiso   1.00
C16    C     0.75839   0.40248   0.13578   0.00000  Uiso   1.00
C17    C     0.81160   0.45799   0.10636   0.00000  Uiso   1.00
C18    C     0.47474   0.36509   0.23245   0.00000  Uiso   1.00
C19    C     0.40382   0.32916   0.15481   0.00000  Uiso   1.00
C20    C     0.29488   0.35114   0.13409   0.00000  Uiso   1.00
C21    C     0.60282   0.35004   0.41804   0.00000  Uiso   1.00
C22    C     0.63956   0.30145   0.49644   0.00000  Uiso   1.00
C23    C     0.63842   0.31075   0.63198   0.00000  Uiso   1.00
H24    H     0.50116   0.49624   0.41183   0.00000  Uiso   1.00
H25    H     0.65549   0.55956   0.29040   0.00000  Uiso   1.00
H26    H     0.30098   0.48625   0.30944   0.00000  Uiso   1.00
H27    H     0.53669   0.45854   0.65101   0.00000  Uiso   1.00
H28    H     0.84272   0.60511   0.13148   0.00000  Uiso   1.00
H29    H     0.09520   0.45053   0.17167   0.00000  Uiso   1.00
H30    H     0.59222   0.39210   0.89194   0.00000  Uiso   1.00
H31    H     0.62552   0.30633   0.22492   0.00000  Uiso   1.00
H32    H     0.78669   0.35923   0.09323   0.00000  Uiso   1.00
H33    H     0.43217   0.28592   0.11227   0.00000  Uiso   1.00
H34    H     0.66788   0.25821   0.45384   0.00000  Uiso   1.00
H35    H     0.94920   0.44252   0.97144   0.00000  Uiso   1.00
H36    H     0.20167   0.28793   0.01164   0.00000  Uiso   1.00
H37    H     0.69870   0.22950   0.73191   0.00000  Uiso   1.00
O38    O     0.99971   0.56204   0.96817   0.00000  Uiso   1.00
O39    O     0.01898   0.35922   0.02093   0.00000  Uiso   1.00
O40    O     0.67108   0.28257   0.96590   0.00000  Uiso   1.00
N41    N     0.84567   0.55959   0.11191   0.00000  Uiso   1.00
N42    N     0.14679   0.41506   0.14947   0.00000  Uiso   1.00
N43    N     0.61144   0.36043   0.82286   0.00000  Uiso   1.00
N44    N     0.90297   0.47209   0.02580   0.00000  Uiso   1.00
N45    N     0.20409   0.32757   0.06335   0.00000  Uiso   1.00
N46    N     0.66873   0.27294   0.73675   0.00000  Uiso   1.00
C47    C     0.47035   0.54726   0.86901   0.00000  Uiso   1.00
C48    C     0.36924   0.53920   0.77712   0.00000  Uiso   1.00
C49    C     0.31615   0.48368   0.74782   0.00000  Uiso   1.00
C50    C     0.22506   0.48603   0.66146   0.00000  Uiso   1.00
C51    C     0.07367   0.46500   0.52710   0.00000  Uiso   1.00
C52    C     0.56185   0.57903   0.78745   0.00000  Uiso   1.00
C53    C     0.67072   0.55700   0.76685   0.00000  Uiso   1.00
C54    C     0.74178   0.59288   0.68920   0.00000  Uiso   1.00
C55    C     0.88945   0.63370   0.57096   0.00000  Uiso   1.00
C56    C     0.43378   0.59408   0.97304   0.00000  Uiso   1.00
C57    C     0.43499   0.58471   0.10848   0.00000  Uiso   1.00
C58    C     0.39824   0.63327   0.18708   0.00000  Uiso   1.00
C59    C     0.34706   0.69746   0.35699   0.00000  Uiso   1.00
C60    C     0.40297   0.65016   0.76774   0.00000  Uiso   1.00
C61    C     0.33265   0.59509   0.72212   0.00000  Uiso   1.00
C62    C     0.24161   0.59752   0.63578   0.00000  Uiso   1.00
C63    C     0.18840   0.54201   0.60636   0.00000  Uiso   1.00
C64    C     0.52526   0.63491   0.73245   0.00000  Uiso   1.00
C65    C     0.59618   0.67084   0.65481   0.00000  Uiso   1.00
C66    C     0.70512   0.64886   0.63409   0.00000  Uiso   1.00
C67    C     0.39718   0.64996   0.91804   0.00000  Uiso   1.00
C68    C     0.36044   0.69855   0.99644   0.00000  Uiso   1.00
C69    C     0.36158   0.68925   0.13198   0.00000  Uiso   1.00
H70    H     0.49884   0.50376   0.91183   0.00000  Uiso   1.00
H71    H     0.34451   0.44044   0.79040   0.00000  Uiso   1.00
H72    H     0.69902   0.51375   0.80944   0.00000  Uiso   1.00
H73    H     0.46331   0.54146   0.15101   0.00000  Uiso   1.00
H74    H     0.15728   0.39489   0.63148   0.00000  Uiso   1.00
H75    H     0.90480   0.54947   0.67167   0.00000  Uiso   1.00
H76    H     0.40778   0.60790   0.39194   0.00000  Uiso   1.00
H77    H     0.37448   0.69367   0.72492   0.00000  Uiso   1.00
H78    H     0.21331   0.64077   0.59323   0.00000  Uiso   1.00
H79    H     0.56783   0.71408   0.61227   0.00000  Uiso   1.00
H80    H     0.33212   0.74179   0.95384   0.00000  Uiso   1.00
H81    H     0.05080   0.55748   0.47144   0.00000  Uiso   1.00
H82    H     0.79833   0.71207   0.51164   0.00000  Uiso   1.00
H83    H     0.30130   0.77050   0.23191   0.00000  Uiso   1.00
O84    O     0.00029   0.43796   0.46817   0.00000  Uiso   1.00
O85    O     0.98102   0.64078   0.52093   0.00000  Uiso   1.00
O86    O     0.32892   0.71743   0.46590   0.00000  Uiso   1.00
N87    N     0.15433   0.44041   0.61191   0.00000  Uiso   1.00
N88    N     0.85321   0.58494   0.64947   0.00000  Uiso   1.00
N89    N     0.38856   0.63957   0.32286   0.00000  Uiso   1.00
N90    N     0.09703   0.52791   0.52580   0.00000  Uiso   1.00
N91    N     0.79591   0.67243   0.56335   0.00000  Uiso   1.00
N92    N     0.33127   0.72706   0.23675   0.00000  Uiso   1.00
C93    C     0.02965   0.04726   0.36901   0.00000  Uiso   1.00
C94    C     0.13076   0.03920   0.27712   0.00000  Uiso   1.00
C95    C     0.18385   0.98368   0.24782   0.00000  Uiso   1.00
C96    C     0.27494   0.98603   0.16146   0.00000  Uiso   1.00
C97    C     0.42633   0.96500   0.02710   0.00000  Uiso   1.00
C98    C     0.93815   0.07903   0.28745   0.00000  Uiso   1.00
C99    C     0.82928   0.05700   0.26685   0.00000  Uiso   1.00
C100   C     0.75822   0.09288   0.18920   0.00000  Uiso   1.00
C101   C     0.61055   0.13370   0.07096   0.00000  Uiso   1.00
C102   C     0.06622   0.09408   0.47304   0.00000  Uiso   1.00
C103   C     0.06501   0.08471   0.60848   0.00000  Uiso   1.00
C104   C     0.10176   0.13327   0.68708   0.00000  Uiso   1.00
C105   C     0.15294   0.19746   0.85699   0.00000  Uiso   1.00
C106   C     0.09703   0.15016   0.26774   0.00000  Uiso   1.00
C107   C     0.16735   0.09509   0.22212   0.00000  Uiso   1.00
C108   C     0.25839   0.09752   0.13578   0.00000  Uiso   1.00
C109   C     0.31160   0.04201   0.10636   0.00000  Uiso   1.00
C110   C     0.97474   0.13491   0.23245   0.00000  Uiso   1.00
C111   C     0.90382   0.17084   0.15481   0.00000  Uiso   1.00
C112   C     0.79488   0.14886   0.13409   0.00000  Uiso   1.00
C113   C     0.10282   0.14996   0.41804   0.00000  Uiso   1.00
C114   C     0.13956   0.19855   0.49644   0.00000  Uiso   1.00
C115   C     0.13842   0.18925   0.63198   0.00000  Uiso   1.00
H116   H     0.00116   0.00376   0.41183   0.00000  Uiso   1.00
H117   H     0.15549   0.94044   0.29040   0.00000  Uiso   1.00
H118   H     0.80098   0.01375   0.30944   0.00000  Uiso   1.00
H119   H     0.03669   0.04146   0.65101   0.00000  Uiso   1.00
H120   H     0.34272   0.89489   0.13148   0.00000  Uiso   1.00
H121   H     0.59520   0.04947   0.17167   0.00000  Uiso   1.00
H122   H     0.09222   0.10790   0.89194   0.00000  Uiso   1.00
H123   H     0.12552   0.19367   0.22492   0.00000  Uiso   1.00
H124   H     0.28669   0.14077   0.09323   0.00000  Uiso   1.00
H125   H     0.93217   0.21408   0.11227   0.00000  Uiso   1.00
H126   H     0.16788   0.24179   0.45384   0.00000  Uiso   1.00
H127   H     0.44920   0.05748   0.97144   0.00000  Uiso   1.00
H128   H     0.70167   0.21207   0.01164   0.00000  Uiso   1.00
H129   H     0.19870   0.27050   0.73191   0.00000  Uiso   1.00
O130   O     0.49971   0.93796   0.96817   0.00000  Uiso   1.00
O131   O     0.51898   0.14078   0.02093   0.00000  Uiso   1.00
O132   O     0.17108   0.21743   0.96590   0.00000  Uiso   1.00
N133   N     0.34567   0.94041   0.11191   0.00000  Uiso   1.00
N134   N     0.64679   0.08494   0.14947   0.00000  Uiso   1.00
N135   N     0.11144   0.13957   0.82286   0.00000  Uiso   1.00
N136   N     0.40297   0.02791   0.02580   0.00000  Uiso   1.00
N137   N     0.70409   0.17243   0.06335   0.00000  Uiso   1.00
N138   N     0.16873   0.22706   0.73675   0.00000  Uiso   1.00
C139   C     0.97035   0.95274   0.86901   0.00000  Uiso   1.00
C140   C     0.86924   0.96080   0.77712   0.00000  Uiso   1.00
C141   C     0.81615   0.01632   0.74782   0.00000  Uiso   1.00
C142   C     0.72506   0.01397   0.66146   0.00000  Uiso   1.00
C143   C     0.57367   0.03500   0.52710   0.00000  Uiso   1.00
C144   C     0.06185   0.92097   0.78745   0.00000  Uiso   1.00
C145   C     0.17072   0.94300   0.76685   0.00000  Uiso   1.00
C146   C     0.24178   0.90712   0.68920   0.00000  Uiso   1.00
C147   C     0.38945   0.86630   0.57096   0.00000  Uiso   1.00
C148   C     0.93378   0.90592   0.97304   0.00000  Uiso   1.00
C149   C     0.93499   0.91529   0.10848   0.00000  Uiso   1.00
C150   C     0.89824   0.86673   0.18708   0.00000  Uiso   1.00
C151   C     0.84706   0.80254   0.35699   0.00000  Uiso   1.00
C152   C     0.90297   0.84984   0.76774   0.00000  Uiso   1.00
C153   C     0.83265   0.90491   0.72212   0.00000  Uiso   1.00
C154   C     0.74161   0.90248   0.63578   0.00000  Uiso   1.00
C155   C     0.68840   0.95799   0.60636   0.00000  Uiso   1.00
C156   C     0.02526   0.86509   0.73245   0.00000  Uiso   1.00
C157   C     0.09618   0.82916   0.65481   0.00000  Uiso   1.00
C158   C     0.20512   0.85114   0.63409   0.00000  Uiso   1.00
C159   C     0.89718   0.85004   0.91804   0.00000  Uiso   1.00
C160   C     0.86044   0.80145   0.99644   0.00000  Uiso   1.00
C161   C     0.86158   0.81075   0.13198   0.00000  Uiso   1.00
H162   H     0.99884   0.99624   0.91183   0.00000  Uiso   1.00
H163   H     0.84451   0.05956   0.79040   0.00000  Uiso   1.00
H164   H     0.19902   0.98625   0.80944   0.00000  Uiso   1.00
H165   H     0.96331   0.95854   0.15101   0.00000  Uiso   1.00
H166   H     0.65728   0.10511   0.63148   0.00000  Uiso   1.00
H167   H     0.40480   0.95053   0.67167   0.00000  Uiso   1.00
H168   H     0.90778   0.89210   0.39194   0.00000  Uiso   1.00
H169   H     0.87448   0.80633   0.72492   0.00000  Uiso   1.00
H170   H     0.71331   0.85923   0.59323   0.00000  Uiso   1.00
H171   H     0.06783   0.78592   0.61227   0.00000  Uiso   1.00
H172   H     0.83212   0.75821   0.95384   0.00000  Uiso   1.00
H173   H     0.55080   0.94252   0.47144   0.00000  Uiso   1.00
H174   H     0.29833   0.78793   0.51164   0.00000  Uiso   1.00
H175   H     0.80130   0.72950   0.23191   0.00000  Uiso   1.00
O176   O     0.50029   0.06204   0.46817   0.00000  Uiso   1.00
O177   O     0.48102   0.85922   0.52093   0.00000  Uiso   1.00
O178   O     0.82892   0.78257   0.46590   0.00000  Uiso   1.00
N179   N     0.65433   0.05959   0.61191   0.00000  Uiso   1.00
N180   N     0.35321   0.91506   0.64947   0.00000  Uiso   1.00
N181   N     0.88856   0.86043   0.32286   0.00000  Uiso   1.00
N182   N     0.59703   0.97209   0.52580   0.00000  Uiso   1.00
N183   N     0.29591   0.82757   0.56335   0.00000  Uiso   1.00
N184   N     0.83127   0.77294   0.23675   0.00000  Uiso   1.00
