data_job_04961
_audit_creation_date              2018-12-19
_audit_creation_method            'Materials Studio'
_symmetry_space_group_name_H-M    'P1'
_symmetry_Int_Tables_number       1
_symmetry_cell_setting            triclinic
loop_
_symmetry_equiv_pos_as_xyz
  x,y,z
_cell_length_a                    15.6215
_cell_length_b                    27.8455
_cell_length_c                    12.0791
_cell_angle_alpha                 90.0000
_cell_angle_beta                  104.3930
_cell_angle_gamma                 90.0000
loop_
_atom_site_label
_atom_site_type_symbol
_atom_site_fract_x
_atom_site_fract_y
_atom_site_fract_z
_atom_site_U_iso_or_equiv
_atom_site_adp_type
_atom_site_occupancy
C1     C     0.27457   0.86418   0.88892   0.00000  Uiso   1.00
C2     C     0.37192   0.87746   0.93168   0.00000  Uiso   1.00
C3     C     0.44106   0.85757   0.89392   0.00000  Uiso   1.00
C4     C     0.52539   0.87456   0.94376   0.00000  Uiso   1.00
C5     C     0.67434   0.88974   0.99734   0.00000  Uiso   1.00
C6     C     0.24406   0.84913   0.99431   0.00000  Uiso   1.00
C7     C     0.20568   0.80543   0.00921   0.00000  Uiso   1.00
C8     C     0.18238   0.79857   0.11176   0.00000  Uiso   1.00
C9     C     0.13275   0.76978   0.26255   0.00000  Uiso   1.00
C10    C     0.22613   0.91087   0.84743   0.00000  Uiso   1.00
C11    C     0.17266   0.91908   0.73883   0.00000  Uiso   1.00
C12    C     0.13424   0.96420   0.71772   0.00000  Uiso   1.00
C13    C     0.05678   0.03128   0.64044   0.00000  Uiso   1.00
C14    C     0.30141   0.92971   0.04456   0.00000  Uiso   1.00
C15    C     0.38649   0.91305   0.01622   0.00000  Uiso   1.00
C16    C     0.47075   0.93007   0.06612   0.00000  Uiso   1.00
C17    C     0.54000   0.91022   0.02844   0.00000  Uiso   1.00
C18    C     0.25863   0.88472   0.07885   0.00000  Uiso   1.00
C19    C     0.23537   0.87793   0.18140   0.00000  Uiso   1.00
C20    C     0.19698   0.83423   0.19645   0.00000  Uiso   1.00
C21    C     0.24071   0.94646   0.93196   0.00000  Uiso   1.00
C22    C     0.20236   0.99158   0.91102   0.00000  Uiso   1.00
C23    C     0.14884   0.99986   0.80241   0.00000  Uiso   1.00
H24    H     0.26322   0.83647   0.82311   0.00000  Uiso   1.00
H25    H     0.42975   0.83002   0.82851   0.00000  Uiso   1.00
H26    H     0.19440   0.77789   0.94377   0.00000  Uiso   1.00
H27    H     0.16139   0.89153   0.67343   0.00000  Uiso   1.00
H28    H     0.62081   0.83856   0.87181   0.00000  Uiso   1.00
H29    H     0.12454   0.72864   0.11482   0.00000  Uiso   1.00
H30    H     0.05493   0.96826   0.54476   0.00000  Uiso   1.00
H31    H     0.31275   0.95742   0.11038   0.00000  Uiso   1.00
H32    H     0.48201   0.95762   0.13154   0.00000  Uiso   1.00
H33    H     0.24666   0.90548   0.24680   0.00000  Uiso   1.00
H34    H     0.21365   0.01912   0.97646   0.00000  Uiso   1.00
H35    H     0.66322   0.94212   0.11776   0.00000  Uiso   1.00
H36    H     0.16695   0.83220   0.36078   0.00000  Uiso   1.00
H37    H     0.09734   0.07182   0.79072   0.00000  Uiso   1.00
O38    O     0.75246   0.88827   0.00355   0.00000  Uiso   1.00
O39    O     0.10136   0.74406   0.32236   0.00000  Uiso   1.00
O40    O     0.01004   0.05844   0.57446   0.00000  Uiso   1.00
N41    N     0.60756   0.86291   0.92677   0.00000  Uiso   1.00
N42    N     0.14359   0.76014   0.15398   0.00000  Uiso   1.00
N43    N     0.07849   0.98417   0.62103   0.00000  Uiso   1.00
N44    N     0.63038   0.91864   0.05912   0.00000  Uiso   1.00
N45    N     0.16642   0.81586   0.28633   0.00000  Uiso   1.00
N46    N     0.10132   0.03989   0.75338   0.00000  Uiso   1.00
C47    C     0.77457   0.36418   0.88892   0.00000  Uiso   1.00
C48    C     0.87192   0.37746   0.93168   0.00000  Uiso   1.00
C49    C     0.94106   0.35757   0.89392   0.00000  Uiso   1.00
C50    C     0.02539   0.37456   0.94376   0.00000  Uiso   1.00
C51    C     0.17434   0.38974   0.99734   0.00000  Uiso   1.00
C52    C     0.74406   0.34913   0.99431   0.00000  Uiso   1.00
C53    C     0.70568   0.30543   0.00921   0.00000  Uiso   1.00
C54    C     0.68238   0.29857   0.11176   0.00000  Uiso   1.00
C55    C     0.63275   0.26978   0.26255   0.00000  Uiso   1.00
C56    C     0.72613   0.41087   0.84743   0.00000  Uiso   1.00
C57    C     0.67266   0.41908   0.73883   0.00000  Uiso   1.00
C58    C     0.63424   0.46420   0.71772   0.00000  Uiso   1.00
C59    C     0.55678   0.53128   0.64044   0.00000  Uiso   1.00
C60    C     0.80141   0.42971   0.04456   0.00000  Uiso   1.00
C61    C     0.88649   0.41305   0.01622   0.00000  Uiso   1.00
C62    C     0.97075   0.43007   0.06612   0.00000  Uiso   1.00
C63    C     0.04000   0.41022   0.02844   0.00000  Uiso   1.00
C64    C     0.75863   0.38472   0.07885   0.00000  Uiso   1.00
C65    C     0.73537   0.37793   0.18140   0.00000  Uiso   1.00
C66    C     0.69698   0.33423   0.19645   0.00000  Uiso   1.00
C67    C     0.74071   0.44646   0.93196   0.00000  Uiso   1.00
C68    C     0.70236   0.49158   0.91102   0.00000  Uiso   1.00
C69    C     0.64884   0.49986   0.80241   0.00000  Uiso   1.00
H70    H     0.76322   0.33647   0.82311   0.00000  Uiso   1.00
H71    H     0.92975   0.33002   0.82851   0.00000  Uiso   1.00
H72    H     0.69440   0.27789   0.94377   0.00000  Uiso   1.00
H73    H     0.66139   0.39153   0.67343   0.00000  Uiso   1.00
H74    H     0.12081   0.33856   0.87181   0.00000  Uiso   1.00
H75    H     0.62454   0.22864   0.11482   0.00000  Uiso   1.00
H76    H     0.55493   0.46826   0.54476   0.00000  Uiso   1.00
H77    H     0.81275   0.45742   0.11038   0.00000  Uiso   1.00
H78    H     0.98201   0.45762   0.13154   0.00000  Uiso   1.00
H79    H     0.74666   0.40548   0.24680   0.00000  Uiso   1.00
H80    H     0.71365   0.51912   0.97646   0.00000  Uiso   1.00
H81    H     0.16322   0.44212   0.11776   0.00000  Uiso   1.00
H82    H     0.66695   0.33220   0.36078   0.00000  Uiso   1.00
H83    H     0.59734   0.57182   0.79072   0.00000  Uiso   1.00
O84    O     0.25246   0.38827   0.00355   0.00000  Uiso   1.00
O85    O     0.60136   0.24406   0.32236   0.00000  Uiso   1.00
O86    O     0.51004   0.55844   0.57446   0.00000  Uiso   1.00
N87    N     0.10756   0.36291   0.92677   0.00000  Uiso   1.00
N88    N     0.64359   0.26014   0.15398   0.00000  Uiso   1.00
N89    N     0.57849   0.48417   0.62103   0.00000  Uiso   1.00
N90    N     0.13038   0.41864   0.05912   0.00000  Uiso   1.00
N91    N     0.66642   0.31586   0.28633   0.00000  Uiso   1.00
N92    N     0.60132   0.53989   0.75338   0.00000  Uiso   1.00
C93    C     0.72543   0.86418   0.61108   0.00000  Uiso   1.00
C94    C     0.62808   0.87746   0.56832   0.00000  Uiso   1.00
C95    C     0.55894   0.85757   0.60608   0.00000  Uiso   1.00
C96    C     0.47461   0.87456   0.55624   0.00000  Uiso   1.00
C97    C     0.32566   0.88974   0.50266   0.00000  Uiso   1.00
C98    C     0.75594   0.84913   0.50569   0.00000  Uiso   1.00
C99    C     0.79432   0.80543   0.49079   0.00000  Uiso   1.00
C100   C     0.81762   0.79857   0.38824   0.00000  Uiso   1.00
C101   C     0.86725   0.76978   0.23745   0.00000  Uiso   1.00
C102   C     0.77387   0.91087   0.65257   0.00000  Uiso   1.00
C103   C     0.82734   0.91908   0.76117   0.00000  Uiso   1.00
C104   C     0.86576   0.96420   0.78228   0.00000  Uiso   1.00
C105   C     0.94322   0.03128   0.85956   0.00000  Uiso   1.00
C106   C     0.69859   0.92971   0.45544   0.00000  Uiso   1.00
C107   C     0.61351   0.91305   0.48378   0.00000  Uiso   1.00
C108   C     0.52925   0.93007   0.43388   0.00000  Uiso   1.00
C109   C     0.46000   0.91022   0.47156   0.00000  Uiso   1.00
C110   C     0.74137   0.88472   0.42115   0.00000  Uiso   1.00
C111   C     0.76463   0.87793   0.31860   0.00000  Uiso   1.00
C112   C     0.80302   0.83423   0.30355   0.00000  Uiso   1.00
C113   C     0.75929   0.94646   0.56804   0.00000  Uiso   1.00
C114   C     0.79764   0.99158   0.58898   0.00000  Uiso   1.00
C115   C     0.85116   0.99986   0.69759   0.00000  Uiso   1.00
H116   H     0.73678   0.83647   0.67689   0.00000  Uiso   1.00
H117   H     0.57025   0.83002   0.67149   0.00000  Uiso   1.00
H118   H     0.80560   0.77789   0.55623   0.00000  Uiso   1.00
H119   H     0.83861   0.89153   0.82657   0.00000  Uiso   1.00
H120   H     0.37919   0.83856   0.62819   0.00000  Uiso   1.00
H121   H     0.87546   0.72864   0.38518   0.00000  Uiso   1.00
H122   H     0.94507   0.96826   0.95524   0.00000  Uiso   1.00
H123   H     0.68725   0.95742   0.38962   0.00000  Uiso   1.00
H124   H     0.51799   0.95762   0.36846   0.00000  Uiso   1.00
H125   H     0.75334   0.90548   0.25320   0.00000  Uiso   1.00
H126   H     0.78635   0.01912   0.52354   0.00000  Uiso   1.00
H127   H     0.33678   0.94212   0.38224   0.00000  Uiso   1.00
H128   H     0.83305   0.83220   0.13922   0.00000  Uiso   1.00
H129   H     0.90266   0.07182   0.70928   0.00000  Uiso   1.00
O130   O     0.24754   0.88827   0.49645   0.00000  Uiso   1.00
O131   O     0.89864   0.74406   0.17764   0.00000  Uiso   1.00
O132   O     0.98996   0.05844   0.92554   0.00000  Uiso   1.00
N133   N     0.39244   0.86291   0.57323   0.00000  Uiso   1.00
N134   N     0.85641   0.76014   0.34602   0.00000  Uiso   1.00
N135   N     0.92151   0.98417   0.87897   0.00000  Uiso   1.00
N136   N     0.36962   0.91864   0.44088   0.00000  Uiso   1.00
N137   N     0.83358   0.81586   0.21367   0.00000  Uiso   1.00
N138   N     0.89868   0.03989   0.74662   0.00000  Uiso   1.00
C139   C     0.22543   0.36418   0.61108   0.00000  Uiso   1.00
C140   C     0.12808   0.37746   0.56832   0.00000  Uiso   1.00
C141   C     0.05894   0.35757   0.60608   0.00000  Uiso   1.00
C142   C     0.97461   0.37456   0.55624   0.00000  Uiso   1.00
C143   C     0.82566   0.38974   0.50266   0.00000  Uiso   1.00
C144   C     0.25594   0.34913   0.50569   0.00000  Uiso   1.00
C145   C     0.29432   0.30543   0.49079   0.00000  Uiso   1.00
C146   C     0.31762   0.29857   0.38824   0.00000  Uiso   1.00
C147   C     0.36725   0.26978   0.23745   0.00000  Uiso   1.00
C148   C     0.27387   0.41087   0.65257   0.00000  Uiso   1.00
C149   C     0.32734   0.41908   0.76117   0.00000  Uiso   1.00
C150   C     0.36576   0.46420   0.78228   0.00000  Uiso   1.00
C151   C     0.44322   0.53128   0.85956   0.00000  Uiso   1.00
C152   C     0.19859   0.42971   0.45544   0.00000  Uiso   1.00
C153   C     0.11351   0.41305   0.48378   0.00000  Uiso   1.00
C154   C     0.02925   0.43007   0.43388   0.00000  Uiso   1.00
C155   C     0.96000   0.41022   0.47156   0.00000  Uiso   1.00
C156   C     0.24137   0.38472   0.42115   0.00000  Uiso   1.00
C157   C     0.26463   0.37793   0.31860   0.00000  Uiso   1.00
C158   C     0.30302   0.33423   0.30355   0.00000  Uiso   1.00
C159   C     0.25929   0.44646   0.56804   0.00000  Uiso   1.00
C160   C     0.29764   0.49158   0.58898   0.00000  Uiso   1.00
C161   C     0.35116   0.49986   0.69759   0.00000  Uiso   1.00
H162   H     0.23678   0.33647   0.67689   0.00000  Uiso   1.00
H163   H     0.07025   0.33002   0.67149   0.00000  Uiso   1.00
H164   H     0.30560   0.27789   0.55623   0.00000  Uiso   1.00
H165   H     0.33861   0.39153   0.82657   0.00000  Uiso   1.00
H166   H     0.87919   0.33856   0.62819   0.00000  Uiso   1.00
H167   H     0.37546   0.22864   0.38518   0.00000  Uiso   1.00
H168   H     0.44507   0.46826   0.95524   0.00000  Uiso   1.00
H169   H     0.18725   0.45742   0.38962   0.00000  Uiso   1.00
H170   H     0.01799   0.45762   0.36846   0.00000  Uiso   1.00
H171   H     0.25334   0.40548   0.25320   0.00000  Uiso   1.00
H172   H     0.28635   0.51912   0.52354   0.00000  Uiso   1.00
H173   H     0.83678   0.44212   0.38224   0.00000  Uiso   1.00
H174   H     0.33305   0.33220   0.13922   0.00000  Uiso   1.00
H175   H     0.40266   0.57182   0.70928   0.00000  Uiso   1.00
O176   O     0.74754   0.38827   0.49645   0.00000  Uiso   1.00
O177   O     0.39864   0.24406   0.17764   0.00000  Uiso   1.00
O178   O     0.48996   0.55844   0.92554   0.00000  Uiso   1.00
N179   N     0.89244   0.36291   0.57323   0.00000  Uiso   1.00
N180   N     0.35641   0.26014   0.34602   0.00000  Uiso   1.00
N181   N     0.42151   0.48417   0.87897   0.00000  Uiso   1.00
N182   N     0.86962   0.41864   0.44088   0.00000  Uiso   1.00
N183   N     0.33358   0.31586   0.21367   0.00000  Uiso   1.00
N184   N     0.39868   0.53989   0.74662   0.00000  Uiso   1.00
C185   C     0.72543   0.13582   0.11108   0.00000  Uiso   1.00
C186   C     0.62808   0.12254   0.06832   0.00000  Uiso   1.00
C187   C     0.55894   0.14243   0.10608   0.00000  Uiso   1.00
C188   C     0.47461   0.12544   0.05624   0.00000  Uiso   1.00
C189   C     0.32566   0.11026   0.00266   0.00000  Uiso   1.00
C190   C     0.75594   0.15087   0.00569   0.00000  Uiso   1.00
C191   C     0.79432   0.19457   0.99079   0.00000  Uiso   1.00
C192   C     0.81762   0.20143   0.88824   0.00000  Uiso   1.00
C193   C     0.86725   0.23022   0.73745   0.00000  Uiso   1.00
C194   C     0.77387   0.08913   0.15257   0.00000  Uiso   1.00
C195   C     0.82734   0.08092   0.26117   0.00000  Uiso   1.00
C196   C     0.86576   0.03580   0.28228   0.00000  Uiso   1.00
C197   C     0.94322   0.96872   0.35956   0.00000  Uiso   1.00
C198   C     0.69859   0.07029   0.95544   0.00000  Uiso   1.00
C199   C     0.61351   0.08695   0.98378   0.00000  Uiso   1.00
C200   C     0.52925   0.06993   0.93388   0.00000  Uiso   1.00
C201   C     0.46000   0.08978   0.97156   0.00000  Uiso   1.00
C202   C     0.74137   0.11528   0.92115   0.00000  Uiso   1.00
C203   C     0.76463   0.12207   0.81860   0.00000  Uiso   1.00
C204   C     0.80302   0.16577   0.80355   0.00000  Uiso   1.00
C205   C     0.75929   0.05354   0.06804   0.00000  Uiso   1.00
C206   C     0.79764   0.00842   0.08898   0.00000  Uiso   1.00
C207   C     0.85116   0.00014   0.19759   0.00000  Uiso   1.00
H208   H     0.73678   0.16353   0.17689   0.00000  Uiso   1.00
H209   H     0.57025   0.16998   0.17149   0.00000  Uiso   1.00
H210   H     0.80560   0.22211   0.05623   0.00000  Uiso   1.00
H211   H     0.83861   0.10847   0.32657   0.00000  Uiso   1.00
H212   H     0.37919   0.16144   0.12819   0.00000  Uiso   1.00
H213   H     0.87546   0.27136   0.88518   0.00000  Uiso   1.00
H214   H     0.94507   0.03174   0.45524   0.00000  Uiso   1.00
H215   H     0.68725   0.04258   0.88962   0.00000  Uiso   1.00
H216   H     0.51799   0.04238   0.86846   0.00000  Uiso   1.00
H217   H     0.75334   0.09452   0.75320   0.00000  Uiso   1.00
H218   H     0.78635   0.98088   0.02354   0.00000  Uiso   1.00
H219   H     0.33678   0.05788   0.88224   0.00000  Uiso   1.00
H220   H     0.83305   0.16780   0.63922   0.00000  Uiso   1.00
H221   H     0.90266   0.92818   0.20928   0.00000  Uiso   1.00
O222   O     0.24754   0.11173   0.99645   0.00000  Uiso   1.00
O223   O     0.89864   0.25594   0.67764   0.00000  Uiso   1.00
O224   O     0.98996   0.94156   0.42554   0.00000  Uiso   1.00
N225   N     0.39244   0.13709   0.07323   0.00000  Uiso   1.00
N226   N     0.85641   0.23986   0.84602   0.00000  Uiso   1.00
N227   N     0.92151   0.01583   0.37897   0.00000  Uiso   1.00
N228   N     0.36962   0.08136   0.94088   0.00000  Uiso   1.00
N229   N     0.83358   0.18414   0.71367   0.00000  Uiso   1.00
N230   N     0.89868   0.96011   0.24662   0.00000  Uiso   1.00
C231   C     0.22543   0.63582   0.11108   0.00000  Uiso   1.00
C232   C     0.12808   0.62254   0.06832   0.00000  Uiso   1.00
C233   C     0.05894   0.64243   0.10608   0.00000  Uiso   1.00
C234   C     0.97461   0.62544   0.05624   0.00000  Uiso   1.00
C235   C     0.82566   0.61026   0.00266   0.00000  Uiso   1.00
C236   C     0.25594   0.65087   0.00569   0.00000  Uiso   1.00
C237   C     0.29432   0.69457   0.99079   0.00000  Uiso   1.00
C238   C     0.31762   0.70143   0.88824   0.00000  Uiso   1.00
C239   C     0.36725   0.73022   0.73745   0.00000  Uiso   1.00
C240   C     0.27387   0.58913   0.15257   0.00000  Uiso   1.00
C241   C     0.32734   0.58092   0.26117   0.00000  Uiso   1.00
C242   C     0.36576   0.53580   0.28228   0.00000  Uiso   1.00
C243   C     0.44322   0.46872   0.35956   0.00000  Uiso   1.00
C244   C     0.19859   0.57029   0.95544   0.00000  Uiso   1.00
C245   C     0.11351   0.58695   0.98378   0.00000  Uiso   1.00
C246   C     0.02925   0.56993   0.93388   0.00000  Uiso   1.00
C247   C     0.96000   0.58978   0.97156   0.00000  Uiso   1.00
C248   C     0.24137   0.61528   0.92115   0.00000  Uiso   1.00
C249   C     0.26463   0.62207   0.81860   0.00000  Uiso   1.00
C250   C     0.30302   0.66577   0.80355   0.00000  Uiso   1.00
C251   C     0.25929   0.55354   0.06804   0.00000  Uiso   1.00
C252   C     0.29764   0.50842   0.08898   0.00000  Uiso   1.00
C253   C     0.35116   0.50014   0.19759   0.00000  Uiso   1.00
H254   H     0.23678   0.66353   0.17689   0.00000  Uiso   1.00
H255   H     0.07025   0.66998   0.17149   0.00000  Uiso   1.00
H256   H     0.30560   0.72211   0.05623   0.00000  Uiso   1.00
H257   H     0.33861   0.60847   0.32657   0.00000  Uiso   1.00
H258   H     0.87919   0.66144   0.12819   0.00000  Uiso   1.00
H259   H     0.37546   0.77136   0.88518   0.00000  Uiso   1.00
H260   H     0.44507   0.53174   0.45524   0.00000  Uiso   1.00
H261   H     0.18725   0.54258   0.88962   0.00000  Uiso   1.00
H262   H     0.01799   0.54238   0.86846   0.00000  Uiso   1.00
H263   H     0.25334   0.59452   0.75320   0.00000  Uiso   1.00
H264   H     0.28635   0.48088   0.02354   0.00000  Uiso   1.00
H265   H     0.83678   0.55788   0.88224   0.00000  Uiso   1.00
H266   H     0.33305   0.66780   0.63922   0.00000  Uiso   1.00
H267   H     0.40266   0.42818   0.20928   0.00000  Uiso   1.00
O268   O     0.74754   0.61173   0.99645   0.00000  Uiso   1.00
O269   O     0.39864   0.75594   0.67764   0.00000  Uiso   1.00
O270   O     0.48996   0.44156   0.42554   0.00000  Uiso   1.00
N271   N     0.89244   0.63709   0.07323   0.00000  Uiso   1.00
N272   N     0.35641   0.73986   0.84602   0.00000  Uiso   1.00
N273   N     0.42151   0.51583   0.37897   0.00000  Uiso   1.00
N274   N     0.86962   0.58136   0.94088   0.00000  Uiso   1.00
N275   N     0.33358   0.68414   0.71367   0.00000  Uiso   1.00
N276   N     0.39868   0.46011   0.24662   0.00000  Uiso   1.00
C277   C     0.27457   0.13582   0.38892   0.00000  Uiso   1.00
C278   C     0.37192   0.12254   0.43168   0.00000  Uiso   1.00
C279   C     0.44106   0.14243   0.39392   0.00000  Uiso   1.00
C280   C     0.52539   0.12544   0.44376   0.00000  Uiso   1.00
C281   C     0.67434   0.11026   0.49734   0.00000  Uiso   1.00
C282   C     0.24406   0.15087   0.49431   0.00000  Uiso   1.00
C283   C     0.20568   0.19457   0.50921   0.00000  Uiso   1.00
C284   C     0.18238   0.20143   0.61176   0.00000  Uiso   1.00
C285   C     0.13275   0.23022   0.76255   0.00000  Uiso   1.00
C286   C     0.22613   0.08913   0.34743   0.00000  Uiso   1.00
C287   C     0.17266   0.08092   0.23883   0.00000  Uiso   1.00
C288   C     0.13424   0.03580   0.21772   0.00000  Uiso   1.00
C289   C     0.05678   0.96872   0.14044   0.00000  Uiso   1.00
C290   C     0.30141   0.07029   0.54456   0.00000  Uiso   1.00
C291   C     0.38649   0.08695   0.51622   0.00000  Uiso   1.00
C292   C     0.47075   0.06993   0.56612   0.00000  Uiso   1.00
C293   C     0.54000   0.08978   0.52844   0.00000  Uiso   1.00
C294   C     0.25863   0.11528   0.57885   0.00000  Uiso   1.00
C295   C     0.23537   0.12207   0.68140   0.00000  Uiso   1.00
C296   C     0.19698   0.16577   0.69645   0.00000  Uiso   1.00
C297   C     0.24071   0.05354   0.43196   0.00000  Uiso   1.00
C298   C     0.20236   0.00842   0.41102   0.00000  Uiso   1.00
C299   C     0.14884   0.00014   0.30241   0.00000  Uiso   1.00
H300   H     0.26322   0.16353   0.32311   0.00000  Uiso   1.00
H301   H     0.42975   0.16998   0.32851   0.00000  Uiso   1.00
H302   H     0.19440   0.22211   0.44377   0.00000  Uiso   1.00
H303   H     0.16139   0.10847   0.17343   0.00000  Uiso   1.00
H304   H     0.62081   0.16144   0.37181   0.00000  Uiso   1.00
H305   H     0.12454   0.27136   0.61482   0.00000  Uiso   1.00
H306   H     0.05493   0.03174   0.04476   0.00000  Uiso   1.00
H307   H     0.31275   0.04258   0.61038   0.00000  Uiso   1.00
H308   H     0.48201   0.04238   0.63154   0.00000  Uiso   1.00
H309   H     0.24666   0.09452   0.74680   0.00000  Uiso   1.00
H310   H     0.21365   0.98088   0.47646   0.00000  Uiso   1.00
H311   H     0.66322   0.05788   0.61776   0.00000  Uiso   1.00
H312   H     0.16695   0.16780   0.86078   0.00000  Uiso   1.00
H313   H     0.09734   0.92818   0.29072   0.00000  Uiso   1.00
O314   O     0.75246   0.11173   0.50355   0.00000  Uiso   1.00
O315   O     0.10136   0.25594   0.82236   0.00000  Uiso   1.00
O316   O     0.01004   0.94156   0.07446   0.00000  Uiso   1.00
N317   N     0.60756   0.13709   0.42677   0.00000  Uiso   1.00
N318   N     0.14359   0.23986   0.65398   0.00000  Uiso   1.00
N319   N     0.07849   0.01583   0.12103   0.00000  Uiso   1.00
N320   N     0.63038   0.08136   0.55912   0.00000  Uiso   1.00
N321   N     0.16642   0.18414   0.78633   0.00000  Uiso   1.00
N322   N     0.10132   0.96011   0.25338   0.00000  Uiso   1.00
C323   C     0.77457   0.63582   0.38892   0.00000  Uiso   1.00
C324   C     0.87192   0.62254   0.43168   0.00000  Uiso   1.00
C325   C     0.94106   0.64243   0.39392   0.00000  Uiso   1.00
C326   C     0.02539   0.62544   0.44376   0.00000  Uiso   1.00
C327   C     0.17434   0.61026   0.49734   0.00000  Uiso   1.00
C328   C     0.74406   0.65087   0.49431   0.00000  Uiso   1.00
C329   C     0.70568   0.69457   0.50921   0.00000  Uiso   1.00
C330   C     0.68238   0.70143   0.61176   0.00000  Uiso   1.00
C331   C     0.63275   0.73022   0.76255   0.00000  Uiso   1.00
C332   C     0.72613   0.58913   0.34743   0.00000  Uiso   1.00
C333   C     0.67266   0.58092   0.23883   0.00000  Uiso   1.00
C334   C     0.63424   0.53580   0.21772   0.00000  Uiso   1.00
C335   C     0.55678   0.46872   0.14044   0.00000  Uiso   1.00
C336   C     0.80141   0.57029   0.54456   0.00000  Uiso   1.00
C337   C     0.88649   0.58695   0.51622   0.00000  Uiso   1.00
C338   C     0.97075   0.56993   0.56612   0.00000  Uiso   1.00
C339   C     0.04000   0.58978   0.52844   0.00000  Uiso   1.00
C340   C     0.75863   0.61528   0.57885   0.00000  Uiso   1.00
C341   C     0.73537   0.62207   0.68140   0.00000  Uiso   1.00
C342   C     0.69698   0.66577   0.69645   0.00000  Uiso   1.00
C343   C     0.74071   0.55354   0.43196   0.00000  Uiso   1.00
C344   C     0.70236   0.50842   0.41102   0.00000  Uiso   1.00
C345   C     0.64884   0.50014   0.30241   0.00000  Uiso   1.00
H346   H     0.76322   0.66353   0.32311   0.00000  Uiso   1.00
H347   H     0.92975   0.66998   0.32851   0.00000  Uiso   1.00
H348   H     0.69440   0.72211   0.44377   0.00000  Uiso   1.00
H349   H     0.66139   0.60847   0.17343   0.00000  Uiso   1.00
H350   H     0.12081   0.66144   0.37181   0.00000  Uiso   1.00
H351   H     0.62454   0.77136   0.61482   0.00000  Uiso   1.00
H352   H     0.55493   0.53174   0.04476   0.00000  Uiso   1.00
H353   H     0.81275   0.54258   0.61038   0.00000  Uiso   1.00
H354   H     0.98201   0.54238   0.63154   0.00000  Uiso   1.00
H355   H     0.74666   0.59452   0.74680   0.00000  Uiso   1.00
H356   H     0.71365   0.48088   0.47646   0.00000  Uiso   1.00
H357   H     0.16322   0.55788   0.61776   0.00000  Uiso   1.00
H358   H     0.66695   0.66780   0.86078   0.00000  Uiso   1.00
H359   H     0.59734   0.42818   0.29072   0.00000  Uiso   1.00
O360   O     0.25246   0.61173   0.50355   0.00000  Uiso   1.00
O361   O     0.60136   0.75594   0.82236   0.00000  Uiso   1.00
O362   O     0.51004   0.44156   0.07446   0.00000  Uiso   1.00
N363   N     0.10756   0.63709   0.42677   0.00000  Uiso   1.00
N364   N     0.64359   0.73986   0.65398   0.00000  Uiso   1.00
N365   N     0.57849   0.51583   0.12103   0.00000  Uiso   1.00
N366   N     0.13038   0.58136   0.55912   0.00000  Uiso   1.00
N367   N     0.66642   0.68414   0.78633   0.00000  Uiso   1.00
N368   N     0.60132   0.46011   0.25338   0.00000  Uiso   1.00
