data_job_01975
_audit_creation_date              2018-12-19
_audit_creation_method            'Materials Studio'
_symmetry_space_group_name_H-M    'P1'
_symmetry_Int_Tables_number       1
_symmetry_cell_setting            triclinic
loop_
_symmetry_equiv_pos_as_xyz
  x,y,z
_cell_length_a                    14.9736
_cell_length_b                    19.4592
_cell_length_c                    10.4390
_cell_angle_alpha                 90.0000
_cell_angle_beta                  120.5030
_cell_angle_gamma                 90.0000
loop_
_atom_site_label
_atom_site_type_symbol
_atom_site_fract_x
_atom_site_fract_y
_atom_site_fract_z
_atom_site_U_iso_or_equiv
_atom_site_adp_type
_atom_site_occupancy
C1     C     0.13844   0.05588   0.29980   0.00000  Uiso   1.00
C2     C     0.22572   0.06923   0.26803   0.00000  Uiso   1.00
C3     C     0.22129   0.05735   0.13384   0.00000  Uiso   1.00
C4     C     0.30936   0.07291   0.12724   0.00000  Uiso   1.00
C5     C     0.43133   0.08957   0.05918   0.00000  Uiso   1.00
C6     C     0.18326   0.00774   0.43352   0.00000  Uiso   1.00
C7     C     0.14312   0.94416   0.43847   0.00000  Uiso   1.00
C8     C     0.19544   0.90796   0.57120   0.00000  Uiso   1.00
C9     C     0.25144   0.82919   0.76009   0.00000  Uiso   1.00
C10    C     0.11894   0.12409   0.35337   0.00000  Uiso   1.00
C11    C     0.02470   0.15833   0.29096   0.00000  Uiso   1.00
C12    C     0.02287   0.22007   0.35624   0.00000  Uiso   1.00
C13    C     0.97899   0.32194   0.42070   0.00000  Uiso   1.00
C14    C     0.30273   0.10465   0.52673   0.00000  Uiso   1.00
C15    C     0.31496   0.09572   0.39129   0.00000  Uiso   1.00
C16    C     0.40306   0.11130   0.38490   0.00000  Uiso   1.00
C17    C     0.39876   0.09944   0.25072   0.00000  Uiso   1.00
C18    C     0.27249   0.03423   0.55677   0.00000  Uiso   1.00
C19    C     0.32488   0.99811   0.68953   0.00000  Uiso   1.00
C20    C     0.28484   0.93450   0.69468   0.00000  Uiso   1.00
C21    C     0.20817   0.15058   0.47663   0.00000  Uiso   1.00
C22    C     0.20648   0.21228   0.54202   0.00000  Uiso   1.00
C23    C     0.11226   0.24661   0.47972   0.00000  Uiso   1.00
H24    H     0.06897   0.03526   0.20385   0.00000  Uiso   1.00
H25    H     0.15222   0.03684   0.03848   0.00000  Uiso   1.00
H26    H     0.07405   0.92368   0.34307   0.00000  Uiso   1.00
H27    H     0.95567   0.13781   0.19558   0.00000  Uiso   1.00
H28    H     0.28389   0.05026   0.90951   0.00000  Uiso   1.00
H29    H     0.11905   0.81166   0.55177   0.00000  Uiso   1.00
H30    H     0.86940   0.26319   0.24077   0.00000  Uiso   1.00
H31    H     0.37221   0.12527   0.62269   0.00000  Uiso   1.00
H32    H     0.47210   0.13180   0.48030   0.00000  Uiso   1.00
H33    H     0.39393   0.01863   0.78489   0.00000  Uiso   1.00
H34    H     0.27555   0.23276   0.63740   0.00000  Uiso   1.00
H35    H     0.54351   0.12732   0.26811   0.00000  Uiso   1.00
H36    H     0.37867   0.88872   0.91037   0.00000  Uiso   1.00
H37    H     0.12903   0.34026   0.59937   0.00000  Uiso   1.00
O38    O     0.47395   0.09144   0.98760   0.00000  Uiso   1.00
O39    O     0.25768   0.77841   0.83022   0.00000  Uiso   1.00
O40    O     0.93015   0.37081   0.42219   0.00000  Uiso   1.00
N41    N     0.33127   0.06751   0.01344   0.00000  Uiso   1.00
N42    N     0.17717   0.84443   0.61391   0.00000  Uiso   1.00
N43    N     0.94376   0.26657   0.32317   0.00000  Uiso   1.00
N44    N     0.47098   0.10898   0.20640   0.00000  Uiso   1.00
N45    N     0.31687   0.88590   0.80686   0.00000  Uiso   1.00
N46    N     0.08346   0.30804   0.51613   0.00000  Uiso   1.00
C47    C     0.86156   0.55588   0.20020   0.00000  Uiso   1.00
C48    C     0.77428   0.56923   0.23197   0.00000  Uiso   1.00
C49    C     0.77871   0.55735   0.36616   0.00000  Uiso   1.00
C50    C     0.69064   0.57291   0.37276   0.00000  Uiso   1.00
C51    C     0.56867   0.58957   0.44082   0.00000  Uiso   1.00
C52    C     0.81674   0.50774   0.06648   0.00000  Uiso   1.00
C53    C     0.85688   0.44416   0.06153   0.00000  Uiso   1.00
C54    C     0.80456   0.40796   0.92880   0.00000  Uiso   1.00
C55    C     0.74856   0.32919   0.73991   0.00000  Uiso   1.00
C56    C     0.88106   0.62409   0.14663   0.00000  Uiso   1.00
C57    C     0.97530   0.65833   0.20904   0.00000  Uiso   1.00
C58    C     0.97713   0.72007   0.14376   0.00000  Uiso   1.00
C59    C     0.02101   0.82194   0.07930   0.00000  Uiso   1.00
C60    C     0.69727   0.60465   0.97327   0.00000  Uiso   1.00
C61    C     0.68504   0.59572   0.10871   0.00000  Uiso   1.00
C62    C     0.59694   0.61130   0.11510   0.00000  Uiso   1.00
C63    C     0.60124   0.59944   0.24928   0.00000  Uiso   1.00
C64    C     0.72751   0.53423   0.94323   0.00000  Uiso   1.00
C65    C     0.67512   0.49811   0.81047   0.00000  Uiso   1.00
C66    C     0.71516   0.43450   0.80532   0.00000  Uiso   1.00
C67    C     0.79183   0.65058   0.02337   0.00000  Uiso   1.00
C68    C     0.79352   0.71228   0.95798   0.00000  Uiso   1.00
C69    C     0.88774   0.74661   0.02028   0.00000  Uiso   1.00
H70    H     0.93103   0.53526   0.29615   0.00000  Uiso   1.00
H71    H     0.84778   0.53684   0.46152   0.00000  Uiso   1.00
H72    H     0.92595   0.42368   0.15693   0.00000  Uiso   1.00
H73    H     0.04433   0.63781   0.30442   0.00000  Uiso   1.00
H74    H     0.71611   0.55026   0.59049   0.00000  Uiso   1.00
H75    H     0.88095   0.31166   0.94823   0.00000  Uiso   1.00
H76    H     0.13060   0.76319   0.25923   0.00000  Uiso   1.00
H77    H     0.62779   0.62527   0.87731   0.00000  Uiso   1.00
H78    H     0.52790   0.63180   0.01970   0.00000  Uiso   1.00
H79    H     0.60607   0.51863   0.71511   0.00000  Uiso   1.00
H80    H     0.72445   0.73276   0.86260   0.00000  Uiso   1.00
H81    H     0.45649   0.62732   0.23189   0.00000  Uiso   1.00
H82    H     0.62133   0.38872   0.58963   0.00000  Uiso   1.00
H83    H     0.87097   0.84026   0.90063   0.00000  Uiso   1.00
O84    O     0.52605   0.59144   0.51240   0.00000  Uiso   1.00
O85    O     0.74232   0.27841   0.66978   0.00000  Uiso   1.00
O86    O     0.06985   0.87081   0.07781   0.00000  Uiso   1.00
N87    N     0.66873   0.56751   0.48656   0.00000  Uiso   1.00
N88    N     0.82283   0.34443   0.88609   0.00000  Uiso   1.00
N89    N     0.05624   0.76657   0.17683   0.00000  Uiso   1.00
N90    N     0.52902   0.60898   0.29360   0.00000  Uiso   1.00
N91    N     0.68313   0.38590   0.69314   0.00000  Uiso   1.00
N92    N     0.91654   0.80804   0.98387   0.00000  Uiso   1.00
C93    C     0.86156   0.94412   0.70020   0.00000  Uiso   1.00
C94    C     0.77428   0.93077   0.73197   0.00000  Uiso   1.00
C95    C     0.77871   0.94265   0.86616   0.00000  Uiso   1.00
C96    C     0.69064   0.92709   0.87276   0.00000  Uiso   1.00
C97    C     0.56867   0.91043   0.94082   0.00000  Uiso   1.00
C98    C     0.81674   0.99226   0.56648   0.00000  Uiso   1.00
C99    C     0.85688   0.05584   0.56153   0.00000  Uiso   1.00
C100   C     0.80456   0.09204   0.42880   0.00000  Uiso   1.00
C101   C     0.74856   0.17081   0.23991   0.00000  Uiso   1.00
C102   C     0.88106   0.87591   0.64663   0.00000  Uiso   1.00
C103   C     0.97530   0.84167   0.70904   0.00000  Uiso   1.00
C104   C     0.97713   0.77993   0.64376   0.00000  Uiso   1.00
C105   C     0.02101   0.67806   0.57930   0.00000  Uiso   1.00
C106   C     0.69727   0.89535   0.47327   0.00000  Uiso   1.00
C107   C     0.68504   0.90428   0.60871   0.00000  Uiso   1.00
C108   C     0.59694   0.88870   0.61510   0.00000  Uiso   1.00
C109   C     0.60124   0.90056   0.74928   0.00000  Uiso   1.00
C110   C     0.72751   0.96577   0.44323   0.00000  Uiso   1.00
C111   C     0.67512   0.00189   0.31047   0.00000  Uiso   1.00
C112   C     0.71516   0.06550   0.30532   0.00000  Uiso   1.00
C113   C     0.79183   0.84942   0.52337   0.00000  Uiso   1.00
C114   C     0.79352   0.78772   0.45798   0.00000  Uiso   1.00
C115   C     0.88774   0.75339   0.52028   0.00000  Uiso   1.00
H116   H     0.93103   0.96474   0.79615   0.00000  Uiso   1.00
H117   H     0.84778   0.96316   0.96152   0.00000  Uiso   1.00
H118   H     0.92595   0.07632   0.65693   0.00000  Uiso   1.00
H119   H     0.04433   0.86219   0.80442   0.00000  Uiso   1.00
H120   H     0.71611   0.94974   0.09049   0.00000  Uiso   1.00
H121   H     0.88095   0.18834   0.44823   0.00000  Uiso   1.00
H122   H     0.13060   0.73681   0.75923   0.00000  Uiso   1.00
H123   H     0.62779   0.87473   0.37731   0.00000  Uiso   1.00
H124   H     0.52790   0.86820   0.51970   0.00000  Uiso   1.00
H125   H     0.60607   0.98137   0.21511   0.00000  Uiso   1.00
H126   H     0.72445   0.76724   0.36260   0.00000  Uiso   1.00
H127   H     0.45649   0.87268   0.73189   0.00000  Uiso   1.00
H128   H     0.62133   0.11128   0.08963   0.00000  Uiso   1.00
H129   H     0.87097   0.65974   0.40063   0.00000  Uiso   1.00
O130   O     0.52605   0.90856   0.01240   0.00000  Uiso   1.00
O131   O     0.74232   0.22159   0.16978   0.00000  Uiso   1.00
O132   O     0.06985   0.62919   0.57781   0.00000  Uiso   1.00
N133   N     0.66873   0.93249   0.98656   0.00000  Uiso   1.00
N134   N     0.82283   0.15557   0.38609   0.00000  Uiso   1.00
N135   N     0.05624   0.73343   0.67683   0.00000  Uiso   1.00
N136   N     0.52902   0.89102   0.79360   0.00000  Uiso   1.00
N137   N     0.68313   0.11410   0.19314   0.00000  Uiso   1.00
N138   N     0.91654   0.69196   0.48387   0.00000  Uiso   1.00
C139   C     0.13844   0.44412   0.79980   0.00000  Uiso   1.00
C140   C     0.22572   0.43077   0.76803   0.00000  Uiso   1.00
C141   C     0.22129   0.44265   0.63384   0.00000  Uiso   1.00
C142   C     0.30936   0.42709   0.62724   0.00000  Uiso   1.00
C143   C     0.43133   0.41043   0.55918   0.00000  Uiso   1.00
C144   C     0.18326   0.49226   0.93352   0.00000  Uiso   1.00
C145   C     0.14312   0.55584   0.93847   0.00000  Uiso   1.00
C146   C     0.19544   0.59204   0.07120   0.00000  Uiso   1.00
C147   C     0.25144   0.67081   0.26009   0.00000  Uiso   1.00
C148   C     0.11894   0.37591   0.85337   0.00000  Uiso   1.00
C149   C     0.02470   0.34167   0.79096   0.00000  Uiso   1.00
C150   C     0.02287   0.27993   0.85624   0.00000  Uiso   1.00
C151   C     0.97899   0.17806   0.92070   0.00000  Uiso   1.00
C152   C     0.30273   0.39535   0.02673   0.00000  Uiso   1.00
C153   C     0.31496   0.40428   0.89129   0.00000  Uiso   1.00
C154   C     0.40306   0.38870   0.88490   0.00000  Uiso   1.00
C155   C     0.39876   0.40056   0.75072   0.00000  Uiso   1.00
C156   C     0.27249   0.46577   0.05677   0.00000  Uiso   1.00
C157   C     0.32488   0.50189   0.18953   0.00000  Uiso   1.00
C158   C     0.28484   0.56550   0.19468   0.00000  Uiso   1.00
C159   C     0.20817   0.34942   0.97663   0.00000  Uiso   1.00
C160   C     0.20648   0.28772   0.04202   0.00000  Uiso   1.00
C161   C     0.11226   0.25339   0.97972   0.00000  Uiso   1.00
H162   H     0.06897   0.46474   0.70385   0.00000  Uiso   1.00
H163   H     0.15222   0.46316   0.53848   0.00000  Uiso   1.00
H164   H     0.07405   0.57632   0.84307   0.00000  Uiso   1.00
H165   H     0.95567   0.36219   0.69558   0.00000  Uiso   1.00
H166   H     0.28389   0.44974   0.40951   0.00000  Uiso   1.00
H167   H     0.11905   0.68834   0.05177   0.00000  Uiso   1.00
H168   H     0.86940   0.23681   0.74077   0.00000  Uiso   1.00
H169   H     0.37221   0.37473   0.12269   0.00000  Uiso   1.00
H170   H     0.47210   0.36820   0.98030   0.00000  Uiso   1.00
H171   H     0.39393   0.48137   0.28489   0.00000  Uiso   1.00
H172   H     0.27555   0.26724   0.13740   0.00000  Uiso   1.00
H173   H     0.54351   0.37268   0.76811   0.00000  Uiso   1.00
H174   H     0.37867   0.61128   0.41037   0.00000  Uiso   1.00
H175   H     0.12903   0.15974   0.09937   0.00000  Uiso   1.00
O176   O     0.47395   0.40856   0.48760   0.00000  Uiso   1.00
O177   O     0.25768   0.72159   0.33022   0.00000  Uiso   1.00
O178   O     0.93015   0.12919   0.92219   0.00000  Uiso   1.00
N179   N     0.33127   0.43249   0.51344   0.00000  Uiso   1.00
N180   N     0.17717   0.65557   0.11391   0.00000  Uiso   1.00
N181   N     0.94376   0.23343   0.82317   0.00000  Uiso   1.00
N182   N     0.47098   0.39102   0.70640   0.00000  Uiso   1.00
N183   N     0.31687   0.61410   0.30686   0.00000  Uiso   1.00
N184   N     0.08346   0.19196   0.01613   0.00000  Uiso   1.00
