data_job_03912
_audit_creation_date              2018-12-19
_audit_creation_method            'Materials Studio'
_symmetry_space_group_name_H-M    'P1'
_symmetry_Int_Tables_number       1
_symmetry_cell_setting            triclinic
loop_
_symmetry_equiv_pos_as_xyz
  x,y,z
_cell_length_a                    11.3016
_cell_length_b                    11.3016
_cell_length_c                    43.6776
_cell_angle_alpha                 90.0000
_cell_angle_beta                  90.0000
_cell_angle_gamma                 90.0000
loop_
_atom_site_label
_atom_site_type_symbol
_atom_site_fract_x
_atom_site_fract_y
_atom_site_fract_z
_atom_site_U_iso_or_equiv
_atom_site_adp_type
_atom_site_occupancy
C1     C     0.09862   0.44291   0.65820   0.00000  Uiso   1.00
C2     C     0.06796   0.54596   0.67930   0.00000  Uiso   1.00
C3     C     0.14053   0.59210   0.70198   0.00000  Uiso   1.00
C4     C     0.09628   0.68642   0.71881   0.00000  Uiso   1.00
C5     C     0.06581   0.83933   0.75245   0.00000  Uiso   1.00
C6     C     0.00058   0.35172   0.66252   0.00000  Uiso   1.00
C7     C     0.01650   0.23455   0.67109   0.00000  Uiso   1.00
C8     C     0.91552   0.16537   0.67381   0.00000  Uiso   1.00
C9     C     0.78045   0.01670   0.68137   0.00000  Uiso   1.00
C10    C     0.08501   0.48962   0.62563   0.00000  Uiso   1.00
C11    C     0.17192   0.48837   0.60319   0.00000  Uiso   1.00
C12    C     0.14201   0.53527   0.57484   0.00000  Uiso   1.00
C13    C     0.13804   0.60071   0.52514   0.00000  Uiso   1.00
C14    C     0.89097   0.52839   0.64777   0.00000  Uiso   1.00
C15    C     0.95517   0.59238   0.67363   0.00000  Uiso   1.00
C16    C     0.91080   0.68667   0.69044   0.00000  Uiso   1.00
C17    C     0.98329   0.73294   0.71314   0.00000  Uiso   1.00
C18    C     0.88780   0.39815   0.65686   0.00000  Uiso   1.00
C19    C     0.78677   0.32912   0.65956   0.00000  Uiso   1.00
C20    C     0.80253   0.21188   0.66813   0.00000  Uiso   1.00
C21    C     0.97223   0.53605   0.61997   0.00000  Uiso   1.00
C22    C     0.94218   0.58295   0.59165   0.00000  Uiso   1.00
C23    C     0.02903   0.58178   0.56917   0.00000  Uiso   1.00
H24    H     0.18642   0.40676   0.66261   0.00000  Uiso   1.00
H25    H     0.22781   0.55613   0.70635   0.00000  Uiso   1.00
H26    H     0.10379   0.19865   0.67547   0.00000  Uiso   1.00
H27    H     0.25918   0.45244   0.60758   0.00000  Uiso   1.00
H28    H     0.22393   0.74219   0.75236   0.00000  Uiso   1.00
H29    H     0.96245   0.98840   0.68724   0.00000  Uiso   1.00
H30    H     0.29012   0.52355   0.54407   0.00000  Uiso   1.00
H31    H     0.80316   0.56453   0.64336   0.00000  Uiso   1.00
H32    H     0.82352   0.72258   0.68605   0.00000  Uiso   1.00
H33    H     0.69951   0.36508   0.65517   0.00000  Uiso   1.00
H34    H     0.85490   0.61887   0.58728   0.00000  Uiso   1.00
H35    H     0.89579   0.87728   0.73589   0.00000  Uiso   1.00
H36    H     0.63432   0.12347   0.67076   0.00000  Uiso   1.00
H37    H     0.96199   0.65864   0.52760   0.00000  Uiso   1.00
O38    O     0.08015   0.91083   0.77256   0.00000  Uiso   1.00
O39    O     0.73711   0.92187   0.68711   0.00000  Uiso   1.00
O40    O     0.16700   0.62399   0.49929   0.00000  Uiso   1.00
N41    N     0.14392   0.75231   0.74262   0.00000  Uiso   1.00
N42    N     0.89945   0.04756   0.68174   0.00000  Uiso   1.00
N43    N     0.20579   0.54786   0.54789   0.00000  Uiso   1.00
N44    N     0.96735   0.82500   0.73376   0.00000  Uiso   1.00
N45    N     0.72288   0.12025   0.67287   0.00000  Uiso   1.00
N46    N     0.02922   0.62055   0.53902   0.00000  Uiso   1.00
C47    C     0.90138   0.55709   0.15820   0.00000  Uiso   1.00
C48    C     0.93204   0.45404   0.17930   0.00000  Uiso   1.00
C49    C     0.85947   0.40790   0.20198   0.00000  Uiso   1.00
C50    C     0.90372   0.31358   0.21881   0.00000  Uiso   1.00
C51    C     0.93419   0.16067   0.25245   0.00000  Uiso   1.00
C52    C     0.99942   0.64828   0.16252   0.00000  Uiso   1.00
C53    C     0.98350   0.76545   0.17109   0.00000  Uiso   1.00
C54    C     0.08448   0.83463   0.17381   0.00000  Uiso   1.00
C55    C     0.21955   0.98330   0.18137   0.00000  Uiso   1.00
C56    C     0.91499   0.51038   0.12563   0.00000  Uiso   1.00
C57    C     0.82808   0.51163   0.10319   0.00000  Uiso   1.00
C58    C     0.85799   0.46473   0.07484   0.00000  Uiso   1.00
C59    C     0.86196   0.39929   0.02514   0.00000  Uiso   1.00
C60    C     0.10903   0.47161   0.14777   0.00000  Uiso   1.00
C61    C     0.04483   0.40762   0.17363   0.00000  Uiso   1.00
C62    C     0.08920   0.31333   0.19044   0.00000  Uiso   1.00
C63    C     0.01671   0.26706   0.21314   0.00000  Uiso   1.00
C64    C     0.11220   0.60185   0.15686   0.00000  Uiso   1.00
C65    C     0.21323   0.67088   0.15956   0.00000  Uiso   1.00
C66    C     0.19747   0.78812   0.16813   0.00000  Uiso   1.00
C67    C     0.02777   0.46395   0.11997   0.00000  Uiso   1.00
C68    C     0.05782   0.41705   0.09165   0.00000  Uiso   1.00
C69    C     0.97097   0.41822   0.06917   0.00000  Uiso   1.00
H70    H     0.81358   0.59324   0.16261   0.00000  Uiso   1.00
H71    H     0.77219   0.44387   0.20635   0.00000  Uiso   1.00
H72    H     0.89621   0.80135   0.17547   0.00000  Uiso   1.00
H73    H     0.74082   0.54756   0.10758   0.00000  Uiso   1.00
H74    H     0.77607   0.25781   0.25236   0.00000  Uiso   1.00
H75    H     0.03755   0.01160   0.18724   0.00000  Uiso   1.00
H76    H     0.70988   0.47645   0.04407   0.00000  Uiso   1.00
H77    H     0.19684   0.43547   0.14336   0.00000  Uiso   1.00
H78    H     0.17648   0.27742   0.18605   0.00000  Uiso   1.00
H79    H     0.30049   0.63492   0.15517   0.00000  Uiso   1.00
H80    H     0.14510   0.38113   0.08728   0.00000  Uiso   1.00
H81    H     0.10421   0.12272   0.23589   0.00000  Uiso   1.00
H82    H     0.36568   0.87653   0.17076   0.00000  Uiso   1.00
H83    H     0.03801   0.34136   0.02760   0.00000  Uiso   1.00
O84    O     0.91985   0.08917   0.27256   0.00000  Uiso   1.00
O85    O     0.26289   0.07813   0.18711   0.00000  Uiso   1.00
O86    O     0.83300   0.37601   0.99929   0.00000  Uiso   1.00
N87    N     0.85608   0.24769   0.24262   0.00000  Uiso   1.00
N88    N     0.10055   0.95244   0.18174   0.00000  Uiso   1.00
N89    N     0.79421   0.45214   0.04789   0.00000  Uiso   1.00
N90    N     0.03265   0.17500   0.23376   0.00000  Uiso   1.00
N91    N     0.27712   0.87975   0.17287   0.00000  Uiso   1.00
N92    N     0.97078   0.37945   0.03902   0.00000  Uiso   1.00
C93    C     0.55709   0.09862   0.90820   0.00000  Uiso   1.00
C94    C     0.45404   0.06796   0.92930   0.00000  Uiso   1.00
C95    C     0.40790   0.14053   0.95198   0.00000  Uiso   1.00
C96    C     0.31358   0.09628   0.96881   0.00000  Uiso   1.00
C97    C     0.16067   0.06581   0.00245   0.00000  Uiso   1.00
C98    C     0.64828   0.00058   0.91252   0.00000  Uiso   1.00
C99    C     0.76545   0.01650   0.92109   0.00000  Uiso   1.00
C100   C     0.83463   0.91552   0.92381   0.00000  Uiso   1.00
C101   C     0.98330   0.78045   0.93137   0.00000  Uiso   1.00
C102   C     0.51038   0.08501   0.87563   0.00000  Uiso   1.00
C103   C     0.51163   0.17192   0.85319   0.00000  Uiso   1.00
C104   C     0.46473   0.14201   0.82484   0.00000  Uiso   1.00
C105   C     0.39929   0.13804   0.77514   0.00000  Uiso   1.00
C106   C     0.47161   0.89097   0.89777   0.00000  Uiso   1.00
C107   C     0.40762   0.95517   0.92363   0.00000  Uiso   1.00
C108   C     0.31333   0.91080   0.94044   0.00000  Uiso   1.00
C109   C     0.26706   0.98329   0.96314   0.00000  Uiso   1.00
C110   C     0.60185   0.88780   0.90686   0.00000  Uiso   1.00
C111   C     0.67088   0.78677   0.90956   0.00000  Uiso   1.00
C112   C     0.78812   0.80253   0.91813   0.00000  Uiso   1.00
C113   C     0.46395   0.97223   0.86997   0.00000  Uiso   1.00
C114   C     0.41705   0.94218   0.84165   0.00000  Uiso   1.00
C115   C     0.41822   0.02903   0.81917   0.00000  Uiso   1.00
H116   H     0.59324   0.18642   0.91261   0.00000  Uiso   1.00
H117   H     0.44387   0.22781   0.95635   0.00000  Uiso   1.00
H118   H     0.80135   0.10379   0.92547   0.00000  Uiso   1.00
H119   H     0.54756   0.25918   0.85758   0.00000  Uiso   1.00
H120   H     0.25781   0.22393   0.00236   0.00000  Uiso   1.00
H121   H     0.01160   0.96245   0.93724   0.00000  Uiso   1.00
H122   H     0.47645   0.29012   0.79407   0.00000  Uiso   1.00
H123   H     0.43547   0.80316   0.89336   0.00000  Uiso   1.00
H124   H     0.27742   0.82352   0.93605   0.00000  Uiso   1.00
H125   H     0.63492   0.69951   0.90517   0.00000  Uiso   1.00
H126   H     0.38113   0.85490   0.83728   0.00000  Uiso   1.00
H127   H     0.12272   0.89579   0.98589   0.00000  Uiso   1.00
H128   H     0.87653   0.63432   0.92076   0.00000  Uiso   1.00
H129   H     0.34136   0.96199   0.77760   0.00000  Uiso   1.00
O130   O     0.08917   0.08015   0.02256   0.00000  Uiso   1.00
O131   O     0.07813   0.73711   0.93711   0.00000  Uiso   1.00
O132   O     0.37601   0.16700   0.74929   0.00000  Uiso   1.00
N133   N     0.24769   0.14392   0.99262   0.00000  Uiso   1.00
N134   N     0.95244   0.89945   0.93174   0.00000  Uiso   1.00
N135   N     0.45214   0.20579   0.79789   0.00000  Uiso   1.00
N136   N     0.17500   0.96735   0.98376   0.00000  Uiso   1.00
N137   N     0.87975   0.72288   0.92287   0.00000  Uiso   1.00
N138   N     0.37945   0.02922   0.78902   0.00000  Uiso   1.00
C139   C     0.44291   0.90138   0.40820   0.00000  Uiso   1.00
C140   C     0.54596   0.93204   0.42930   0.00000  Uiso   1.00
C141   C     0.59210   0.85947   0.45198   0.00000  Uiso   1.00
C142   C     0.68642   0.90372   0.46881   0.00000  Uiso   1.00
C143   C     0.83933   0.93419   0.50245   0.00000  Uiso   1.00
C144   C     0.35172   0.99942   0.41252   0.00000  Uiso   1.00
C145   C     0.23455   0.98350   0.42109   0.00000  Uiso   1.00
C146   C     0.16537   0.08448   0.42381   0.00000  Uiso   1.00
C147   C     0.01670   0.21955   0.43137   0.00000  Uiso   1.00
C148   C     0.48962   0.91499   0.37563   0.00000  Uiso   1.00
C149   C     0.48837   0.82808   0.35319   0.00000  Uiso   1.00
C150   C     0.53527   0.85799   0.32484   0.00000  Uiso   1.00
C151   C     0.60071   0.86196   0.27514   0.00000  Uiso   1.00
C152   C     0.52839   0.10903   0.39777   0.00000  Uiso   1.00
C153   C     0.59238   0.04483   0.42363   0.00000  Uiso   1.00
C154   C     0.68667   0.08920   0.44044   0.00000  Uiso   1.00
C155   C     0.73294   0.01671   0.46314   0.00000  Uiso   1.00
C156   C     0.39815   0.11220   0.40686   0.00000  Uiso   1.00
C157   C     0.32912   0.21323   0.40956   0.00000  Uiso   1.00
C158   C     0.21188   0.19747   0.41813   0.00000  Uiso   1.00
C159   C     0.53605   0.02777   0.36997   0.00000  Uiso   1.00
C160   C     0.58295   0.05782   0.34165   0.00000  Uiso   1.00
C161   C     0.58178   0.97097   0.31917   0.00000  Uiso   1.00
H162   H     0.40676   0.81358   0.41261   0.00000  Uiso   1.00
H163   H     0.55613   0.77219   0.45635   0.00000  Uiso   1.00
H164   H     0.19865   0.89621   0.42547   0.00000  Uiso   1.00
H165   H     0.45244   0.74082   0.35758   0.00000  Uiso   1.00
H166   H     0.74219   0.77607   0.50236   0.00000  Uiso   1.00
H167   H     0.98840   0.03755   0.43724   0.00000  Uiso   1.00
H168   H     0.52355   0.70988   0.29407   0.00000  Uiso   1.00
H169   H     0.56453   0.19684   0.39336   0.00000  Uiso   1.00
H170   H     0.72258   0.17648   0.43605   0.00000  Uiso   1.00
H171   H     0.36508   0.30049   0.40517   0.00000  Uiso   1.00
H172   H     0.61887   0.14510   0.33728   0.00000  Uiso   1.00
H173   H     0.87728   0.10421   0.48589   0.00000  Uiso   1.00
H174   H     0.12347   0.36568   0.42076   0.00000  Uiso   1.00
H175   H     0.65864   0.03801   0.27760   0.00000  Uiso   1.00
O176   O     0.91083   0.91985   0.52256   0.00000  Uiso   1.00
O177   O     0.92187   0.26289   0.43711   0.00000  Uiso   1.00
O178   O     0.62399   0.83300   0.24929   0.00000  Uiso   1.00
N179   N     0.75231   0.85608   0.49262   0.00000  Uiso   1.00
N180   N     0.04756   0.10055   0.43174   0.00000  Uiso   1.00
N181   N     0.54786   0.79421   0.29789   0.00000  Uiso   1.00
N182   N     0.82500   0.03265   0.48376   0.00000  Uiso   1.00
N183   N     0.12025   0.27712   0.42287   0.00000  Uiso   1.00
N184   N     0.62055   0.97078   0.28902   0.00000  Uiso   1.00
C185   C     0.90138   0.44291   0.34180   0.00000  Uiso   1.00
C186   C     0.93204   0.54596   0.32070   0.00000  Uiso   1.00
C187   C     0.85947   0.59210   0.29802   0.00000  Uiso   1.00
C188   C     0.90372   0.68642   0.28119   0.00000  Uiso   1.00
C189   C     0.93419   0.83933   0.24755   0.00000  Uiso   1.00
C190   C     0.99942   0.35172   0.33748   0.00000  Uiso   1.00
C191   C     0.98350   0.23455   0.32891   0.00000  Uiso   1.00
C192   C     0.08448   0.16537   0.32619   0.00000  Uiso   1.00
C193   C     0.21955   0.01670   0.31863   0.00000  Uiso   1.00
C194   C     0.91499   0.48962   0.37437   0.00000  Uiso   1.00
C195   C     0.82808   0.48837   0.39681   0.00000  Uiso   1.00
C196   C     0.85799   0.53527   0.42516   0.00000  Uiso   1.00
C197   C     0.86196   0.60071   0.47486   0.00000  Uiso   1.00
C198   C     0.10903   0.52839   0.35223   0.00000  Uiso   1.00
C199   C     0.04483   0.59238   0.32637   0.00000  Uiso   1.00
C200   C     0.08920   0.68667   0.30956   0.00000  Uiso   1.00
C201   C     0.01671   0.73294   0.28686   0.00000  Uiso   1.00
C202   C     0.11220   0.39815   0.34314   0.00000  Uiso   1.00
C203   C     0.21323   0.32912   0.34044   0.00000  Uiso   1.00
C204   C     0.19747   0.21188   0.33187   0.00000  Uiso   1.00
C205   C     0.02777   0.53605   0.38003   0.00000  Uiso   1.00
C206   C     0.05782   0.58295   0.40835   0.00000  Uiso   1.00
C207   C     0.97097   0.58178   0.43083   0.00000  Uiso   1.00
H208   H     0.81358   0.40676   0.33739   0.00000  Uiso   1.00
H209   H     0.77219   0.55613   0.29365   0.00000  Uiso   1.00
H210   H     0.89621   0.19865   0.32453   0.00000  Uiso   1.00
H211   H     0.74082   0.45244   0.39242   0.00000  Uiso   1.00
H212   H     0.77607   0.74219   0.24764   0.00000  Uiso   1.00
H213   H     0.03755   0.98840   0.31276   0.00000  Uiso   1.00
H214   H     0.70988   0.52355   0.45593   0.00000  Uiso   1.00
H215   H     0.19684   0.56453   0.35664   0.00000  Uiso   1.00
H216   H     0.17648   0.72258   0.31395   0.00000  Uiso   1.00
H217   H     0.30049   0.36508   0.34483   0.00000  Uiso   1.00
H218   H     0.14510   0.61887   0.41272   0.00000  Uiso   1.00
H219   H     0.10421   0.87728   0.26411   0.00000  Uiso   1.00
H220   H     0.36568   0.12347   0.32924   0.00000  Uiso   1.00
H221   H     0.03801   0.65864   0.47240   0.00000  Uiso   1.00
O222   O     0.91985   0.91083   0.22744   0.00000  Uiso   1.00
O223   O     0.26289   0.92187   0.31289   0.00000  Uiso   1.00
O224   O     0.83300   0.62399   0.50071   0.00000  Uiso   1.00
N225   N     0.85608   0.75231   0.25738   0.00000  Uiso   1.00
N226   N     0.10055   0.04756   0.31826   0.00000  Uiso   1.00
N227   N     0.79421   0.54786   0.45211   0.00000  Uiso   1.00
N228   N     0.03265   0.82500   0.26624   0.00000  Uiso   1.00
N229   N     0.27712   0.12025   0.32713   0.00000  Uiso   1.00
N230   N     0.97078   0.62055   0.46098   0.00000  Uiso   1.00
C231   C     0.09862   0.55709   0.84180   0.00000  Uiso   1.00
C232   C     0.06796   0.45404   0.82070   0.00000  Uiso   1.00
C233   C     0.14053   0.40790   0.79802   0.00000  Uiso   1.00
C234   C     0.09628   0.31358   0.78119   0.00000  Uiso   1.00
C235   C     0.06581   0.16067   0.74755   0.00000  Uiso   1.00
C236   C     0.00058   0.64828   0.83748   0.00000  Uiso   1.00
C237   C     0.01650   0.76545   0.82891   0.00000  Uiso   1.00
C238   C     0.91552   0.83463   0.82619   0.00000  Uiso   1.00
C239   C     0.78045   0.98330   0.81863   0.00000  Uiso   1.00
C240   C     0.08501   0.51038   0.87437   0.00000  Uiso   1.00
C241   C     0.17192   0.51163   0.89681   0.00000  Uiso   1.00
C242   C     0.14201   0.46473   0.92516   0.00000  Uiso   1.00
C243   C     0.13804   0.39929   0.97486   0.00000  Uiso   1.00
C244   C     0.89097   0.47161   0.85223   0.00000  Uiso   1.00
C245   C     0.95517   0.40762   0.82637   0.00000  Uiso   1.00
C246   C     0.91080   0.31333   0.80956   0.00000  Uiso   1.00
C247   C     0.98329   0.26706   0.78686   0.00000  Uiso   1.00
C248   C     0.88780   0.60185   0.84314   0.00000  Uiso   1.00
C249   C     0.78677   0.67088   0.84044   0.00000  Uiso   1.00
C250   C     0.80253   0.78812   0.83187   0.00000  Uiso   1.00
C251   C     0.97223   0.46395   0.88003   0.00000  Uiso   1.00
C252   C     0.94218   0.41705   0.90835   0.00000  Uiso   1.00
C253   C     0.02903   0.41822   0.93083   0.00000  Uiso   1.00
H254   H     0.18642   0.59324   0.83739   0.00000  Uiso   1.00
H255   H     0.22781   0.44387   0.79365   0.00000  Uiso   1.00
H256   H     0.10379   0.80135   0.82453   0.00000  Uiso   1.00
H257   H     0.25918   0.54756   0.89242   0.00000  Uiso   1.00
H258   H     0.22393   0.25781   0.74764   0.00000  Uiso   1.00
H259   H     0.96245   0.01160   0.81276   0.00000  Uiso   1.00
H260   H     0.29012   0.47645   0.95593   0.00000  Uiso   1.00
H261   H     0.80316   0.43547   0.85664   0.00000  Uiso   1.00
H262   H     0.82352   0.27742   0.81395   0.00000  Uiso   1.00
H263   H     0.69951   0.63492   0.84483   0.00000  Uiso   1.00
H264   H     0.85490   0.38113   0.91272   0.00000  Uiso   1.00
H265   H     0.89579   0.12272   0.76411   0.00000  Uiso   1.00
H266   H     0.63432   0.87653   0.82924   0.00000  Uiso   1.00
H267   H     0.96199   0.34136   0.97240   0.00000  Uiso   1.00
O268   O     0.08015   0.08917   0.72744   0.00000  Uiso   1.00
O269   O     0.73711   0.07813   0.81289   0.00000  Uiso   1.00
O270   O     0.16700   0.37601   0.00071   0.00000  Uiso   1.00
N271   N     0.14392   0.24769   0.75738   0.00000  Uiso   1.00
N272   N     0.89945   0.95244   0.81826   0.00000  Uiso   1.00
N273   N     0.20579   0.45214   0.95211   0.00000  Uiso   1.00
N274   N     0.96735   0.17500   0.76624   0.00000  Uiso   1.00
N275   N     0.72288   0.87975   0.82713   0.00000  Uiso   1.00
N276   N     0.02922   0.37945   0.96098   0.00000  Uiso   1.00
C277   C     0.44291   0.09862   0.09180   0.00000  Uiso   1.00
C278   C     0.54596   0.06796   0.07070   0.00000  Uiso   1.00
C279   C     0.59210   0.14053   0.04802   0.00000  Uiso   1.00
C280   C     0.68642   0.09628   0.03119   0.00000  Uiso   1.00
C281   C     0.83933   0.06581   0.99755   0.00000  Uiso   1.00
C282   C     0.35172   0.00058   0.08748   0.00000  Uiso   1.00
C283   C     0.23455   0.01650   0.07891   0.00000  Uiso   1.00
C284   C     0.16537   0.91552   0.07619   0.00000  Uiso   1.00
C285   C     0.01670   0.78045   0.06863   0.00000  Uiso   1.00
C286   C     0.48962   0.08501   0.12437   0.00000  Uiso   1.00
C287   C     0.48837   0.17192   0.14681   0.00000  Uiso   1.00
C288   C     0.53527   0.14201   0.17516   0.00000  Uiso   1.00
C289   C     0.60071   0.13804   0.22486   0.00000  Uiso   1.00
C290   C     0.52839   0.89097   0.10223   0.00000  Uiso   1.00
C291   C     0.59238   0.95517   0.07637   0.00000  Uiso   1.00
C292   C     0.68667   0.91080   0.05956   0.00000  Uiso   1.00
C293   C     0.73294   0.98329   0.03686   0.00000  Uiso   1.00
C294   C     0.39815   0.88780   0.09314   0.00000  Uiso   1.00
C295   C     0.32912   0.78677   0.09044   0.00000  Uiso   1.00
C296   C     0.21188   0.80253   0.08187   0.00000  Uiso   1.00
C297   C     0.53605   0.97223   0.13003   0.00000  Uiso   1.00
C298   C     0.58295   0.94218   0.15835   0.00000  Uiso   1.00
C299   C     0.58178   0.02903   0.18083   0.00000  Uiso   1.00
H300   H     0.40676   0.18642   0.08739   0.00000  Uiso   1.00
H301   H     0.55613   0.22781   0.04365   0.00000  Uiso   1.00
H302   H     0.19865   0.10379   0.07453   0.00000  Uiso   1.00
H303   H     0.45244   0.25918   0.14242   0.00000  Uiso   1.00
H304   H     0.74219   0.22393   0.99764   0.00000  Uiso   1.00
H305   H     0.98840   0.96245   0.06276   0.00000  Uiso   1.00
H306   H     0.52355   0.29012   0.20593   0.00000  Uiso   1.00
H307   H     0.56453   0.80316   0.10664   0.00000  Uiso   1.00
H308   H     0.72258   0.82352   0.06395   0.00000  Uiso   1.00
H309   H     0.36508   0.69951   0.09483   0.00000  Uiso   1.00
H310   H     0.61887   0.85490   0.16272   0.00000  Uiso   1.00
H311   H     0.87728   0.89579   0.01411   0.00000  Uiso   1.00
H312   H     0.12347   0.63432   0.07924   0.00000  Uiso   1.00
H313   H     0.65864   0.96199   0.22240   0.00000  Uiso   1.00
O314   O     0.91083   0.08015   0.97744   0.00000  Uiso   1.00
O315   O     0.92187   0.73711   0.06289   0.00000  Uiso   1.00
O316   O     0.62399   0.16700   0.25071   0.00000  Uiso   1.00
N317   N     0.75231   0.14392   0.00738   0.00000  Uiso   1.00
N318   N     0.04756   0.89945   0.06826   0.00000  Uiso   1.00
N319   N     0.54786   0.20579   0.20211   0.00000  Uiso   1.00
N320   N     0.82500   0.96735   0.01624   0.00000  Uiso   1.00
N321   N     0.12025   0.72288   0.07713   0.00000  Uiso   1.00
N322   N     0.62055   0.02922   0.21098   0.00000  Uiso   1.00
C323   C     0.55709   0.90138   0.59180   0.00000  Uiso   1.00
C324   C     0.45404   0.93204   0.57070   0.00000  Uiso   1.00
C325   C     0.40790   0.85947   0.54802   0.00000  Uiso   1.00
C326   C     0.31358   0.90372   0.53119   0.00000  Uiso   1.00
C327   C     0.16067   0.93419   0.49755   0.00000  Uiso   1.00
C328   C     0.64828   0.99942   0.58748   0.00000  Uiso   1.00
C329   C     0.76545   0.98350   0.57891   0.00000  Uiso   1.00
C330   C     0.83463   0.08448   0.57619   0.00000  Uiso   1.00
C331   C     0.98330   0.21955   0.56863   0.00000  Uiso   1.00
C332   C     0.51038   0.91499   0.62437   0.00000  Uiso   1.00
C333   C     0.51163   0.82808   0.64681   0.00000  Uiso   1.00
C334   C     0.46473   0.85799   0.67516   0.00000  Uiso   1.00
C335   C     0.39929   0.86196   0.72486   0.00000  Uiso   1.00
C336   C     0.47161   0.10903   0.60223   0.00000  Uiso   1.00
C337   C     0.40762   0.04483   0.57637   0.00000  Uiso   1.00
C338   C     0.31333   0.08920   0.55956   0.00000  Uiso   1.00
C339   C     0.26706   0.01671   0.53686   0.00000  Uiso   1.00
C340   C     0.60185   0.11220   0.59314   0.00000  Uiso   1.00
C341   C     0.67088   0.21323   0.59044   0.00000  Uiso   1.00
C342   C     0.78812   0.19747   0.58187   0.00000  Uiso   1.00
C343   C     0.46395   0.02777   0.63003   0.00000  Uiso   1.00
C344   C     0.41705   0.05782   0.65835   0.00000  Uiso   1.00
C345   C     0.41822   0.97097   0.68083   0.00000  Uiso   1.00
H346   H     0.59324   0.81358   0.58739   0.00000  Uiso   1.00
H347   H     0.44387   0.77219   0.54365   0.00000  Uiso   1.00
H348   H     0.80135   0.89621   0.57453   0.00000  Uiso   1.00
H349   H     0.54756   0.74082   0.64242   0.00000  Uiso   1.00
H350   H     0.25781   0.77607   0.49764   0.00000  Uiso   1.00
H351   H     0.01160   0.03755   0.56276   0.00000  Uiso   1.00
H352   H     0.47645   0.70988   0.70593   0.00000  Uiso   1.00
H353   H     0.43547   0.19684   0.60664   0.00000  Uiso   1.00
H354   H     0.27742   0.17648   0.56395   0.00000  Uiso   1.00
H355   H     0.63492   0.30049   0.59483   0.00000  Uiso   1.00
H356   H     0.38113   0.14510   0.66272   0.00000  Uiso   1.00
H357   H     0.12272   0.10421   0.51411   0.00000  Uiso   1.00
H358   H     0.87653   0.36568   0.57924   0.00000  Uiso   1.00
H359   H     0.34136   0.03801   0.72240   0.00000  Uiso   1.00
O360   O     0.08917   0.91985   0.47744   0.00000  Uiso   1.00
O361   O     0.07813   0.26289   0.56289   0.00000  Uiso   1.00
O362   O     0.37601   0.83300   0.75071   0.00000  Uiso   1.00
N363   N     0.24769   0.85608   0.50738   0.00000  Uiso   1.00
N364   N     0.95244   0.10055   0.56826   0.00000  Uiso   1.00
N365   N     0.45214   0.79421   0.70211   0.00000  Uiso   1.00
N366   N     0.17500   0.03265   0.51624   0.00000  Uiso   1.00
N367   N     0.87975   0.27712   0.57713   0.00000  Uiso   1.00
N368   N     0.37945   0.97078   0.71098   0.00000  Uiso   1.00
