data_job_00765
_audit_creation_date              2018-12-19
_audit_creation_method            'Materials Studio'
_symmetry_space_group_name_H-M    'P1'
_symmetry_Int_Tables_number       1
_symmetry_cell_setting            triclinic
loop_
_symmetry_equiv_pos_as_xyz
  x,y,z
_cell_length_a                    11.2530
_cell_length_b                    13.8949
_cell_length_c                    19.2862
_cell_angle_alpha                 90.0000
_cell_angle_beta                  120.9366
_cell_angle_gamma                 90.0000
loop_
_atom_site_label
_atom_site_type_symbol
_atom_site_fract_x
_atom_site_fract_y
_atom_site_fract_z
_atom_site_U_iso_or_equiv
_atom_site_adp_type
_atom_site_occupancy
C1     C     0.38553   0.77920   0.15034   0.00000  Uiso   1.00
C2     C     0.27487   0.77454   0.17348   0.00000  Uiso   1.00
C3     C     0.20427   0.69243   0.17303   0.00000  Uiso   1.00
C4     C     0.10688   0.70316   0.19622   0.00000  Uiso   1.00
C5     C     0.93892   0.68229   0.22864   0.00000  Uiso   1.00
C6     C     0.33543   0.85408   0.08323   0.00000  Uiso   1.00
C7     C     0.31578   0.83884   0.00690   0.00000  Uiso   1.00
C8     C     0.26939   0.91655   0.95413   0.00000  Uiso   1.00
C9     C     0.19556   0.01919   0.84645   0.00000  Uiso   1.00
C10    C     0.51378   0.82212   0.22309   0.00000  Uiso   1.00
C11    C     0.64410   0.78003   0.26435   0.00000  Uiso   1.00
C12    C     0.74788   0.83084   0.32933   0.00000  Uiso   1.00
C13    C     0.95097   0.88385   0.43881   0.00000  Uiso   1.00
C14    C     0.33811   0.94429   0.19235   0.00000  Uiso   1.00
C15    C     0.24911   0.86421   0.19629   0.00000  Uiso   1.00
C16    C     0.15181   0.87508   0.21950   0.00000  Uiso   1.00
C17    C     0.08108   0.79299   0.21909   0.00000  Uiso   1.00
C18    C     0.30968   0.94375   0.10604   0.00000  Uiso   1.00
C19    C     0.26332   0.02150   0.05338   0.00000  Uiso   1.00
C20    C     0.24359   0.00638   0.97698   0.00000  Uiso   1.00
C21    C     0.48803   0.91179   0.24591   0.00000  Uiso   1.00
C22    C     0.59164   0.96268   0.31083   0.00000  Uiso   1.00
C23    C     0.72208   0.92067   0.35218   0.00000  Uiso   1.00
H24    H     0.40558   0.70939   0.13257   0.00000  Uiso   1.00
H25    H     0.22422   0.62304   0.15536   0.00000  Uiso   1.00
H26    H     0.33573   0.76945   0.98926   0.00000  Uiso   1.00
H27    H     0.66399   0.71064   0.24668   0.00000  Uiso   1.00
H28    H     0.01176   0.56686   0.19065   0.00000  Uiso   1.00
H29    H     0.24692   0.87557   0.84044   0.00000  Uiso   1.00
H30    H     0.93914   0.75155   0.38325   0.00000  Uiso   1.00
H31    H     0.31806   0.01411   0.21011   0.00000  Uiso   1.00
H32    H     0.13190   0.94448   0.23716   0.00000  Uiso   1.00
H33    H     0.24341   0.09088   0.07106   0.00000  Uiso   1.00
H34    H     0.57167   0.03207   0.32847   0.00000  Uiso   1.00
H35    H     0.93682   0.82775   0.25704   0.00000  Uiso   1.00
H36    H     0.17199   0.13646   0.90682   0.00000  Uiso   1.00
H37    H     0.86420   0.01244   0.44964   0.00000  Uiso   1.00
O38    O     0.85337   0.64601   0.24021   0.00000  Uiso   1.00
O39    O     0.16193   0.05102   0.78075   0.00000  Uiso   1.00
O40    O     0.07009   0.88832   0.49290   0.00000  Uiso   1.00
N41    N     0.01969   0.63781   0.20258   0.00000  Uiso   1.00
N42    N     0.23953   0.92643   0.87515   0.00000  Uiso   1.00
N43    N     0.88671   0.81050   0.38262   0.00000  Uiso   1.00
N44    N     0.97937   0.77820   0.23830   0.00000  Uiso   1.00
N45    N     0.19921   0.06681   0.91087   0.00000  Uiso   1.00
N46    N     0.84639   0.95088   0.41834   0.00000  Uiso   1.00
C47    C     0.61447   0.27920   0.34966   0.00000  Uiso   1.00
C48    C     0.72513   0.27454   0.32652   0.00000  Uiso   1.00
C49    C     0.79573   0.19243   0.32697   0.00000  Uiso   1.00
C50    C     0.89312   0.20316   0.30378   0.00000  Uiso   1.00
C51    C     0.06108   0.18229   0.27136   0.00000  Uiso   1.00
C52    C     0.66457   0.35408   0.41677   0.00000  Uiso   1.00
C53    C     0.68422   0.33884   0.49310   0.00000  Uiso   1.00
C54    C     0.73061   0.41655   0.54587   0.00000  Uiso   1.00
C55    C     0.80444   0.51919   0.65355   0.00000  Uiso   1.00
C56    C     0.48622   0.32212   0.27691   0.00000  Uiso   1.00
C57    C     0.35590   0.28003   0.23565   0.00000  Uiso   1.00
C58    C     0.25212   0.33084   0.17067   0.00000  Uiso   1.00
C59    C     0.04903   0.38385   0.06119   0.00000  Uiso   1.00
C60    C     0.66189   0.44429   0.30765   0.00000  Uiso   1.00
C61    C     0.75089   0.36421   0.30371   0.00000  Uiso   1.00
C62    C     0.84819   0.37508   0.28050   0.00000  Uiso   1.00
C63    C     0.91892   0.29299   0.28091   0.00000  Uiso   1.00
C64    C     0.69032   0.44375   0.39396   0.00000  Uiso   1.00
C65    C     0.73668   0.52150   0.44662   0.00000  Uiso   1.00
C66    C     0.75641   0.50638   0.52302   0.00000  Uiso   1.00
C67    C     0.51197   0.41179   0.25409   0.00000  Uiso   1.00
C68    C     0.40836   0.46268   0.18917   0.00000  Uiso   1.00
C69    C     0.27792   0.42067   0.14782   0.00000  Uiso   1.00
H70    H     0.59442   0.20939   0.36743   0.00000  Uiso   1.00
H71    H     0.77578   0.12304   0.34464   0.00000  Uiso   1.00
H72    H     0.66427   0.26945   0.51074   0.00000  Uiso   1.00
H73    H     0.33601   0.21064   0.25332   0.00000  Uiso   1.00
H74    H     0.98824   0.06686   0.30935   0.00000  Uiso   1.00
H75    H     0.75308   0.37557   0.65956   0.00000  Uiso   1.00
H76    H     0.06086   0.25155   0.11675   0.00000  Uiso   1.00
H77    H     0.68194   0.51411   0.28989   0.00000  Uiso   1.00
H78    H     0.86810   0.44448   0.26284   0.00000  Uiso   1.00
H79    H     0.75659   0.59088   0.42894   0.00000  Uiso   1.00
H80    H     0.42833   0.53207   0.17153   0.00000  Uiso   1.00
H81    H     0.06318   0.32775   0.24296   0.00000  Uiso   1.00
H82    H     0.82801   0.63646   0.59318   0.00000  Uiso   1.00
H83    H     0.13580   0.51244   0.05036   0.00000  Uiso   1.00
O84    O     0.14663   0.14601   0.25979   0.00000  Uiso   1.00
O85    O     0.83807   0.55102   0.71925   0.00000  Uiso   1.00
O86    O     0.92991   0.38832   0.00710   0.00000  Uiso   1.00
N87    N     0.98031   0.13781   0.29742   0.00000  Uiso   1.00
N88    N     0.76047   0.42643   0.62485   0.00000  Uiso   1.00
N89    N     0.11329   0.31050   0.11738   0.00000  Uiso   1.00
N90    N     0.02063   0.27820   0.26170   0.00000  Uiso   1.00
N91    N     0.80079   0.56681   0.58913   0.00000  Uiso   1.00
N92    N     0.15361   0.45088   0.08166   0.00000  Uiso   1.00
C93    C     0.61447   0.22080   0.84966   0.00000  Uiso   1.00
C94    C     0.72513   0.22546   0.82652   0.00000  Uiso   1.00
C95    C     0.79573   0.30757   0.82697   0.00000  Uiso   1.00
C96    C     0.89312   0.29684   0.80378   0.00000  Uiso   1.00
C97    C     0.06108   0.31771   0.77136   0.00000  Uiso   1.00
C98    C     0.66457   0.14592   0.91677   0.00000  Uiso   1.00
C99    C     0.68422   0.16116   0.99310   0.00000  Uiso   1.00
C100   C     0.73061   0.08345   0.04587   0.00000  Uiso   1.00
C101   C     0.80444   0.98081   0.15355   0.00000  Uiso   1.00
C102   C     0.48622   0.17788   0.77691   0.00000  Uiso   1.00
C103   C     0.35590   0.21997   0.73565   0.00000  Uiso   1.00
C104   C     0.25212   0.16916   0.67067   0.00000  Uiso   1.00
C105   C     0.04903   0.11615   0.56119   0.00000  Uiso   1.00
C106   C     0.66189   0.05571   0.80765   0.00000  Uiso   1.00
C107   C     0.75089   0.13579   0.80371   0.00000  Uiso   1.00
C108   C     0.84819   0.12492   0.78050   0.00000  Uiso   1.00
C109   C     0.91892   0.20701   0.78091   0.00000  Uiso   1.00
C110   C     0.69032   0.05625   0.89396   0.00000  Uiso   1.00
C111   C     0.73668   0.97850   0.94662   0.00000  Uiso   1.00
C112   C     0.75641   0.99362   0.02302   0.00000  Uiso   1.00
C113   C     0.51197   0.08821   0.75409   0.00000  Uiso   1.00
C114   C     0.40836   0.03732   0.68917   0.00000  Uiso   1.00
C115   C     0.27792   0.07933   0.64782   0.00000  Uiso   1.00
H116   H     0.59442   0.29061   0.86743   0.00000  Uiso   1.00
H117   H     0.77578   0.37696   0.84464   0.00000  Uiso   1.00
H118   H     0.66427   0.23055   0.01074   0.00000  Uiso   1.00
H119   H     0.33601   0.28936   0.75332   0.00000  Uiso   1.00
H120   H     0.98824   0.43314   0.80935   0.00000  Uiso   1.00
H121   H     0.75308   0.12443   0.15956   0.00000  Uiso   1.00
H122   H     0.06086   0.24845   0.61675   0.00000  Uiso   1.00
H123   H     0.68194   0.98589   0.78989   0.00000  Uiso   1.00
H124   H     0.86810   0.05552   0.76284   0.00000  Uiso   1.00
H125   H     0.75659   0.90912   0.92894   0.00000  Uiso   1.00
H126   H     0.42833   0.96793   0.67153   0.00000  Uiso   1.00
H127   H     0.06318   0.17225   0.74296   0.00000  Uiso   1.00
H128   H     0.82801   0.86354   0.09318   0.00000  Uiso   1.00
H129   H     0.13580   0.98756   0.55036   0.00000  Uiso   1.00
O130   O     0.14663   0.35399   0.75979   0.00000  Uiso   1.00
O131   O     0.83807   0.94898   0.21925   0.00000  Uiso   1.00
O132   O     0.92991   0.11168   0.50710   0.00000  Uiso   1.00
N133   N     0.98031   0.36219   0.79742   0.00000  Uiso   1.00
N134   N     0.76047   0.07357   0.12485   0.00000  Uiso   1.00
N135   N     0.11329   0.18950   0.61738   0.00000  Uiso   1.00
N136   N     0.02063   0.22180   0.76170   0.00000  Uiso   1.00
N137   N     0.80079   0.93319   0.08913   0.00000  Uiso   1.00
N138   N     0.15361   0.04912   0.58166   0.00000  Uiso   1.00
C139   C     0.38553   0.72080   0.65034   0.00000  Uiso   1.00
C140   C     0.27487   0.72546   0.67348   0.00000  Uiso   1.00
C141   C     0.20427   0.80757   0.67303   0.00000  Uiso   1.00
C142   C     0.10688   0.79684   0.69622   0.00000  Uiso   1.00
C143   C     0.93892   0.81771   0.72864   0.00000  Uiso   1.00
C144   C     0.33543   0.64592   0.58323   0.00000  Uiso   1.00
C145   C     0.31578   0.66116   0.50690   0.00000  Uiso   1.00
C146   C     0.26939   0.58345   0.45413   0.00000  Uiso   1.00
C147   C     0.19556   0.48081   0.34645   0.00000  Uiso   1.00
C148   C     0.51378   0.67788   0.72309   0.00000  Uiso   1.00
C149   C     0.64410   0.71997   0.76435   0.00000  Uiso   1.00
C150   C     0.74788   0.66916   0.82933   0.00000  Uiso   1.00
C151   C     0.95097   0.61615   0.93881   0.00000  Uiso   1.00
C152   C     0.33811   0.55571   0.69235   0.00000  Uiso   1.00
C153   C     0.24911   0.63579   0.69629   0.00000  Uiso   1.00
C154   C     0.15181   0.62492   0.71950   0.00000  Uiso   1.00
C155   C     0.08108   0.70701   0.71909   0.00000  Uiso   1.00
C156   C     0.30968   0.55625   0.60604   0.00000  Uiso   1.00
C157   C     0.26332   0.47850   0.55338   0.00000  Uiso   1.00
C158   C     0.24359   0.49362   0.47698   0.00000  Uiso   1.00
C159   C     0.48803   0.58821   0.74591   0.00000  Uiso   1.00
C160   C     0.59164   0.53732   0.81083   0.00000  Uiso   1.00
C161   C     0.72208   0.57933   0.85218   0.00000  Uiso   1.00
H162   H     0.40558   0.79061   0.63257   0.00000  Uiso   1.00
H163   H     0.22422   0.87696   0.65536   0.00000  Uiso   1.00
H164   H     0.33573   0.73055   0.48926   0.00000  Uiso   1.00
H165   H     0.66399   0.78936   0.74668   0.00000  Uiso   1.00
H166   H     0.01176   0.93314   0.69065   0.00000  Uiso   1.00
H167   H     0.24692   0.62443   0.34044   0.00000  Uiso   1.00
H168   H     0.93914   0.74845   0.88325   0.00000  Uiso   1.00
H169   H     0.31806   0.48589   0.71011   0.00000  Uiso   1.00
H170   H     0.13190   0.55552   0.73716   0.00000  Uiso   1.00
H171   H     0.24341   0.40912   0.57106   0.00000  Uiso   1.00
H172   H     0.57167   0.46793   0.82847   0.00000  Uiso   1.00
H173   H     0.93682   0.67225   0.75704   0.00000  Uiso   1.00
H174   H     0.17199   0.36354   0.40682   0.00000  Uiso   1.00
H175   H     0.86420   0.48756   0.94964   0.00000  Uiso   1.00
O176   O     0.85337   0.85399   0.74021   0.00000  Uiso   1.00
O177   O     0.16193   0.44898   0.28075   0.00000  Uiso   1.00
O178   O     0.07009   0.61168   0.99290   0.00000  Uiso   1.00
N179   N     0.01969   0.86219   0.70258   0.00000  Uiso   1.00
N180   N     0.23953   0.57357   0.37515   0.00000  Uiso   1.00
N181   N     0.88671   0.68950   0.88262   0.00000  Uiso   1.00
N182   N     0.97937   0.72180   0.73830   0.00000  Uiso   1.00
N183   N     0.19921   0.43319   0.41087   0.00000  Uiso   1.00
N184   N     0.84639   0.54912   0.91834   0.00000  Uiso   1.00
