data_job_04966
_audit_creation_date              2018-12-19
_audit_creation_method            'Materials Studio'
_symmetry_space_group_name_H-M    'P1'
_symmetry_Int_Tables_number       1
_symmetry_cell_setting            triclinic
loop_
_symmetry_equiv_pos_as_xyz
  x,y,z
_cell_length_a                    15.6873
_cell_length_b                    15.6873
_cell_length_c                    21.5404
_cell_angle_alpha                 90.0000
_cell_angle_beta                  90.0000
_cell_angle_gamma                 90.0000
loop_
_atom_site_label
_atom_site_type_symbol
_atom_site_fract_x
_atom_site_fract_y
_atom_site_fract_z
_atom_site_U_iso_or_equiv
_atom_site_adp_type
_atom_site_occupancy
C1     C     0.18911   0.02244   0.75439   0.00000  Uiso   1.00
C2     C     0.23536   0.99303   0.81286   0.00000  Uiso   1.00
C3     C     0.20789   0.00591   0.87338   0.00000  Uiso   1.00
C4     C     0.25928   0.97412   0.92047   0.00000  Uiso   1.00
C5     C     0.31954   0.93506   0.01324   0.00000  Uiso   1.00
C6     C     0.25267   0.07724   0.71867   0.00000  Uiso   1.00
C7     C     0.23974   0.16092   0.69998   0.00000  Uiso   1.00
C8     C     0.30569   0.20001   0.66778   0.00000  Uiso   1.00
C9     C     0.39279   0.29166   0.61427   0.00000  Uiso   1.00
C10    C     0.17532   0.94266   0.71521   0.00000  Uiso   1.00
C11    C     0.09736   0.91319   0.69361   0.00000  Uiso   1.00
C12    C     0.09819   0.83898   0.65848   0.00000  Uiso   1.00
C13    C     0.06520   0.72167   0.59961   0.00000  Uiso   1.00
C14    C     0.32922   0.94308   0.73041   0.00000  Uiso   1.00
C15    C     0.31146   0.94993   0.79983   0.00000  Uiso   1.00
C16    C     0.36291   0.91811   0.84685   0.00000  Uiso   1.00
C17    C     0.33551   0.93094   0.90742   0.00000  Uiso   1.00
C18    C     0.32877   0.03414   0.70564   0.00000  Uiso   1.00
C19    C     0.39475   0.07312   0.67345   0.00000  Uiso   1.00
C20    C     0.38193   0.15683   0.65473   0.00000  Uiso   1.00
C21    C     0.25142   0.89955   0.70219   0.00000  Uiso   1.00
C22    C     0.25238   0.82538   0.66708   0.00000  Uiso   1.00
C23    C     0.17443   0.79580   0.64543   0.00000  Uiso   1.00
H24    H     0.12986   0.05600   0.76453   0.00000  Uiso   1.00
H25    H     0.14899   0.03928   0.88344   0.00000  Uiso   1.00
H26    H     0.18083   0.19426   0.71006   0.00000  Uiso   1.00
H27    H     0.03848   0.94656   0.70369   0.00000  Uiso   1.00
H28    H     0.20379   0.00176   0.00953   0.00000  Uiso   1.00
H29    H     0.27091   0.32853   0.64394   0.00000  Uiso   1.00
H30    H     0.97072   0.80621   0.63051   0.00000  Uiso   1.00
H31    H     0.38847   0.90952   0.72027   0.00000  Uiso   1.00
H32    H     0.42179   0.88476   0.83675   0.00000  Uiso   1.00
H33    H     0.45363   0.03974   0.66338   0.00000  Uiso   1.00
H34    H     0.31128   0.79204   0.65701   0.00000  Uiso   1.00
H35    H     0.42520   0.87635   0.97164   0.00000  Uiso   1.00
H36    H     0.49232   0.20312   0.60605   0.00000  Uiso   1.00
H37    H     0.19214   0.68080   0.59261   0.00000  Uiso   1.00
O38    O     0.33176   0.92543   0.06801   0.00000  Uiso   1.00
O39    O     0.41982   0.35413   0.58836   0.00000  Uiso   1.00
O40    O     0.02598   0.66887   0.57074   0.00000  Uiso   1.00
N41    N     0.25131   0.97563   0.98462   0.00000  Uiso   1.00
N42    N     0.31407   0.28114   0.64283   0.00000  Uiso   1.00
N43    N     0.03343   0.79283   0.63026   0.00000  Uiso   1.00
N44    N     0.37046   0.90814   0.96424   0.00000  Uiso   1.00
N45    N     0.43322   0.21366   0.62244   0.00000  Uiso   1.00
N46    N     0.15257   0.72535   0.60987   0.00000  Uiso   1.00
C47    C     0.81089   0.97756   0.75439   0.00000  Uiso   1.00
C48    C     0.76464   0.00697   0.81286   0.00000  Uiso   1.00
C49    C     0.79211   0.99409   0.87338   0.00000  Uiso   1.00
C50    C     0.74072   0.02588   0.92047   0.00000  Uiso   1.00
C51    C     0.68046   0.06494   0.01324   0.00000  Uiso   1.00
C52    C     0.74733   0.92276   0.71867   0.00000  Uiso   1.00
C53    C     0.76026   0.83908   0.69998   0.00000  Uiso   1.00
C54    C     0.69431   0.79999   0.66778   0.00000  Uiso   1.00
C55    C     0.60721   0.70834   0.61427   0.00000  Uiso   1.00
C56    C     0.82468   0.05734   0.71521   0.00000  Uiso   1.00
C57    C     0.90264   0.08681   0.69361   0.00000  Uiso   1.00
C58    C     0.90181   0.16102   0.65848   0.00000  Uiso   1.00
C59    C     0.93480   0.27833   0.59961   0.00000  Uiso   1.00
C60    C     0.67078   0.05692   0.73041   0.00000  Uiso   1.00
C61    C     0.68854   0.05007   0.79983   0.00000  Uiso   1.00
C62    C     0.63709   0.08189   0.84685   0.00000  Uiso   1.00
C63    C     0.66449   0.06906   0.90742   0.00000  Uiso   1.00
C64    C     0.67123   0.96586   0.70564   0.00000  Uiso   1.00
C65    C     0.60525   0.92688   0.67345   0.00000  Uiso   1.00
C66    C     0.61807   0.84317   0.65473   0.00000  Uiso   1.00
C67    C     0.74858   0.10045   0.70219   0.00000  Uiso   1.00
C68    C     0.74762   0.17462   0.66708   0.00000  Uiso   1.00
C69    C     0.82557   0.20420   0.64543   0.00000  Uiso   1.00
H70    H     0.87014   0.94400   0.76453   0.00000  Uiso   1.00
H71    H     0.85101   0.96072   0.88344   0.00000  Uiso   1.00
H72    H     0.81917   0.80574   0.71006   0.00000  Uiso   1.00
H73    H     0.96152   0.05344   0.70369   0.00000  Uiso   1.00
H74    H     0.79621   0.99824   0.00953   0.00000  Uiso   1.00
H75    H     0.72909   0.67147   0.64394   0.00000  Uiso   1.00
H76    H     0.02928   0.19379   0.63051   0.00000  Uiso   1.00
H77    H     0.61153   0.09048   0.72027   0.00000  Uiso   1.00
H78    H     0.57821   0.11524   0.83675   0.00000  Uiso   1.00
H79    H     0.54637   0.96026   0.66338   0.00000  Uiso   1.00
H80    H     0.68872   0.20796   0.65701   0.00000  Uiso   1.00
H81    H     0.57480   0.12365   0.97164   0.00000  Uiso   1.00
H82    H     0.50768   0.79688   0.60605   0.00000  Uiso   1.00
H83    H     0.80786   0.31920   0.59261   0.00000  Uiso   1.00
O84    O     0.66824   0.07457   0.06801   0.00000  Uiso   1.00
O85    O     0.58018   0.64587   0.58836   0.00000  Uiso   1.00
O86    O     0.97402   0.33113   0.57074   0.00000  Uiso   1.00
N87    N     0.74869   0.02437   0.98462   0.00000  Uiso   1.00
N88    N     0.68593   0.71886   0.64283   0.00000  Uiso   1.00
N89    N     0.96657   0.20717   0.63026   0.00000  Uiso   1.00
N90    N     0.62954   0.09186   0.96424   0.00000  Uiso   1.00
N91    N     0.56678   0.78634   0.62244   0.00000  Uiso   1.00
N92    N     0.84743   0.27465   0.60987   0.00000  Uiso   1.00
C93    C     0.02244   0.81089   0.24561   0.00000  Uiso   1.00
C94    C     0.99303   0.76464   0.18714   0.00000  Uiso   1.00
C95    C     0.00591   0.79211   0.12662   0.00000  Uiso   1.00
C96    C     0.97412   0.74072   0.07953   0.00000  Uiso   1.00
C97    C     0.93506   0.68046   0.98676   0.00000  Uiso   1.00
C98    C     0.07724   0.74733   0.28133   0.00000  Uiso   1.00
C99    C     0.16092   0.76026   0.30002   0.00000  Uiso   1.00
C100   C     0.20001   0.69431   0.33222   0.00000  Uiso   1.00
C101   C     0.29166   0.60721   0.38573   0.00000  Uiso   1.00
C102   C     0.94266   0.82468   0.28479   0.00000  Uiso   1.00
C103   C     0.91319   0.90264   0.30639   0.00000  Uiso   1.00
C104   C     0.83898   0.90181   0.34152   0.00000  Uiso   1.00
C105   C     0.72167   0.93480   0.40039   0.00000  Uiso   1.00
C106   C     0.94308   0.67078   0.26959   0.00000  Uiso   1.00
C107   C     0.94993   0.68854   0.20017   0.00000  Uiso   1.00
C108   C     0.91811   0.63709   0.15315   0.00000  Uiso   1.00
C109   C     0.93094   0.66449   0.09258   0.00000  Uiso   1.00
C110   C     0.03414   0.67123   0.29436   0.00000  Uiso   1.00
C111   C     0.07312   0.60525   0.32655   0.00000  Uiso   1.00
C112   C     0.15683   0.61807   0.34527   0.00000  Uiso   1.00
C113   C     0.89955   0.74858   0.29781   0.00000  Uiso   1.00
C114   C     0.82538   0.74762   0.33292   0.00000  Uiso   1.00
C115   C     0.79580   0.82557   0.35457   0.00000  Uiso   1.00
H116   H     0.05600   0.87014   0.23547   0.00000  Uiso   1.00
H117   H     0.03928   0.85101   0.11656   0.00000  Uiso   1.00
H118   H     0.19426   0.81917   0.28994   0.00000  Uiso   1.00
H119   H     0.94656   0.96152   0.29631   0.00000  Uiso   1.00
H120   H     0.00176   0.79621   0.99047   0.00000  Uiso   1.00
H121   H     0.32853   0.72909   0.35606   0.00000  Uiso   1.00
H122   H     0.80621   0.02928   0.36949   0.00000  Uiso   1.00
H123   H     0.90952   0.61153   0.27973   0.00000  Uiso   1.00
H124   H     0.88476   0.57821   0.16325   0.00000  Uiso   1.00
H125   H     0.03974   0.54637   0.33662   0.00000  Uiso   1.00
H126   H     0.79204   0.68872   0.34299   0.00000  Uiso   1.00
H127   H     0.87635   0.57480   0.02836   0.00000  Uiso   1.00
H128   H     0.20312   0.50768   0.39395   0.00000  Uiso   1.00
H129   H     0.68080   0.80786   0.40739   0.00000  Uiso   1.00
O130   O     0.92543   0.66824   0.93199   0.00000  Uiso   1.00
O131   O     0.35413   0.58018   0.41164   0.00000  Uiso   1.00
O132   O     0.66887   0.97402   0.42926   0.00000  Uiso   1.00
N133   N     0.97563   0.74869   0.01538   0.00000  Uiso   1.00
N134   N     0.28114   0.68593   0.35717   0.00000  Uiso   1.00
N135   N     0.79283   0.96657   0.36974   0.00000  Uiso   1.00
N136   N     0.90814   0.62954   0.03576   0.00000  Uiso   1.00
N137   N     0.21366   0.56678   0.37756   0.00000  Uiso   1.00
N138   N     0.72535   0.84743   0.39013   0.00000  Uiso   1.00
C139   C     0.97756   0.18911   0.24561   0.00000  Uiso   1.00
C140   C     0.00697   0.23536   0.18714   0.00000  Uiso   1.00
C141   C     0.99409   0.20789   0.12662   0.00000  Uiso   1.00
C142   C     0.02588   0.25928   0.07953   0.00000  Uiso   1.00
C143   C     0.06494   0.31954   0.98676   0.00000  Uiso   1.00
C144   C     0.92276   0.25267   0.28133   0.00000  Uiso   1.00
C145   C     0.83908   0.23974   0.30002   0.00000  Uiso   1.00
C146   C     0.79999   0.30569   0.33222   0.00000  Uiso   1.00
C147   C     0.70834   0.39279   0.38573   0.00000  Uiso   1.00
C148   C     0.05734   0.17532   0.28479   0.00000  Uiso   1.00
C149   C     0.08681   0.09736   0.30639   0.00000  Uiso   1.00
C150   C     0.16102   0.09819   0.34152   0.00000  Uiso   1.00
C151   C     0.27833   0.06520   0.40039   0.00000  Uiso   1.00
C152   C     0.05692   0.32922   0.26959   0.00000  Uiso   1.00
C153   C     0.05007   0.31146   0.20017   0.00000  Uiso   1.00
C154   C     0.08189   0.36291   0.15315   0.00000  Uiso   1.00
C155   C     0.06906   0.33551   0.09258   0.00000  Uiso   1.00
C156   C     0.96586   0.32877   0.29436   0.00000  Uiso   1.00
C157   C     0.92688   0.39475   0.32655   0.00000  Uiso   1.00
C158   C     0.84317   0.38193   0.34527   0.00000  Uiso   1.00
C159   C     0.10045   0.25142   0.29781   0.00000  Uiso   1.00
C160   C     0.17462   0.25238   0.33292   0.00000  Uiso   1.00
C161   C     0.20420   0.17443   0.35457   0.00000  Uiso   1.00
H162   H     0.94400   0.12986   0.23547   0.00000  Uiso   1.00
H163   H     0.96072   0.14899   0.11656   0.00000  Uiso   1.00
H164   H     0.80574   0.18083   0.28994   0.00000  Uiso   1.00
H165   H     0.05344   0.03848   0.29631   0.00000  Uiso   1.00
H166   H     0.99824   0.20379   0.99047   0.00000  Uiso   1.00
H167   H     0.67147   0.27091   0.35606   0.00000  Uiso   1.00
H168   H     0.19379   0.97072   0.36949   0.00000  Uiso   1.00
H169   H     0.09048   0.38847   0.27973   0.00000  Uiso   1.00
H170   H     0.11524   0.42179   0.16325   0.00000  Uiso   1.00
H171   H     0.96026   0.45363   0.33662   0.00000  Uiso   1.00
H172   H     0.20796   0.31128   0.34299   0.00000  Uiso   1.00
H173   H     0.12365   0.42520   0.02836   0.00000  Uiso   1.00
H174   H     0.79688   0.49232   0.39395   0.00000  Uiso   1.00
H175   H     0.31920   0.19214   0.40739   0.00000  Uiso   1.00
O176   O     0.07457   0.33176   0.93199   0.00000  Uiso   1.00
O177   O     0.64587   0.41982   0.41164   0.00000  Uiso   1.00
O178   O     0.33113   0.02598   0.42926   0.00000  Uiso   1.00
N179   N     0.02437   0.25131   0.01538   0.00000  Uiso   1.00
N180   N     0.71886   0.31407   0.35717   0.00000  Uiso   1.00
N181   N     0.20717   0.03343   0.36974   0.00000  Uiso   1.00
N182   N     0.09186   0.37046   0.03576   0.00000  Uiso   1.00
N183   N     0.78634   0.43322   0.37756   0.00000  Uiso   1.00
N184   N     0.27465   0.15257   0.39013   0.00000  Uiso   1.00
C185   C     0.31089   0.52244   0.74561   0.00000  Uiso   1.00
C186   C     0.26464   0.49303   0.68714   0.00000  Uiso   1.00
C187   C     0.29211   0.50591   0.62662   0.00000  Uiso   1.00
C188   C     0.24072   0.47412   0.57953   0.00000  Uiso   1.00
C189   C     0.18046   0.43506   0.48676   0.00000  Uiso   1.00
C190   C     0.24733   0.57724   0.78133   0.00000  Uiso   1.00
C191   C     0.26026   0.66092   0.80002   0.00000  Uiso   1.00
C192   C     0.19431   0.70001   0.83222   0.00000  Uiso   1.00
C193   C     0.10721   0.79166   0.88573   0.00000  Uiso   1.00
C194   C     0.32468   0.44266   0.78479   0.00000  Uiso   1.00
C195   C     0.40264   0.41319   0.80639   0.00000  Uiso   1.00
C196   C     0.40181   0.33898   0.84152   0.00000  Uiso   1.00
C197   C     0.43480   0.22167   0.90039   0.00000  Uiso   1.00
C198   C     0.17078   0.44308   0.76959   0.00000  Uiso   1.00
C199   C     0.18854   0.44993   0.70017   0.00000  Uiso   1.00
C200   C     0.13709   0.41811   0.65315   0.00000  Uiso   1.00
C201   C     0.16449   0.43094   0.59258   0.00000  Uiso   1.00
C202   C     0.17123   0.53414   0.79436   0.00000  Uiso   1.00
C203   C     0.10525   0.57312   0.82655   0.00000  Uiso   1.00
C204   C     0.11807   0.65683   0.84527   0.00000  Uiso   1.00
C205   C     0.24858   0.39955   0.79781   0.00000  Uiso   1.00
C206   C     0.24762   0.32538   0.83292   0.00000  Uiso   1.00
C207   C     0.32557   0.29580   0.85457   0.00000  Uiso   1.00
H208   H     0.37014   0.55600   0.73547   0.00000  Uiso   1.00
H209   H     0.35101   0.53928   0.61656   0.00000  Uiso   1.00
H210   H     0.31917   0.69426   0.78994   0.00000  Uiso   1.00
H211   H     0.46152   0.44656   0.79631   0.00000  Uiso   1.00
H212   H     0.29621   0.50176   0.49047   0.00000  Uiso   1.00
H213   H     0.22909   0.82853   0.85606   0.00000  Uiso   1.00
H214   H     0.52928   0.30621   0.86949   0.00000  Uiso   1.00
H215   H     0.11153   0.40952   0.77973   0.00000  Uiso   1.00
H216   H     0.07821   0.38476   0.66325   0.00000  Uiso   1.00
H217   H     0.04637   0.53974   0.83662   0.00000  Uiso   1.00
H218   H     0.18872   0.29204   0.84299   0.00000  Uiso   1.00
H219   H     0.07480   0.37635   0.52836   0.00000  Uiso   1.00
H220   H     0.00768   0.70312   0.89395   0.00000  Uiso   1.00
H221   H     0.30786   0.18080   0.90739   0.00000  Uiso   1.00
O222   O     0.16824   0.42543   0.43199   0.00000  Uiso   1.00
O223   O     0.08018   0.85413   0.91164   0.00000  Uiso   1.00
O224   O     0.47402   0.16887   0.92926   0.00000  Uiso   1.00
N225   N     0.24869   0.47563   0.51538   0.00000  Uiso   1.00
N226   N     0.18593   0.78114   0.85717   0.00000  Uiso   1.00
N227   N     0.46657   0.29283   0.86974   0.00000  Uiso   1.00
N228   N     0.12954   0.40814   0.53576   0.00000  Uiso   1.00
N229   N     0.06678   0.71366   0.87756   0.00000  Uiso   1.00
N230   N     0.34743   0.22535   0.89013   0.00000  Uiso   1.00
C231   C     0.68911   0.47756   0.74561   0.00000  Uiso   1.00
C232   C     0.73536   0.50697   0.68714   0.00000  Uiso   1.00
C233   C     0.70789   0.49409   0.62662   0.00000  Uiso   1.00
C234   C     0.75928   0.52588   0.57953   0.00000  Uiso   1.00
C235   C     0.81954   0.56494   0.48676   0.00000  Uiso   1.00
C236   C     0.75267   0.42276   0.78133   0.00000  Uiso   1.00
C237   C     0.73974   0.33908   0.80002   0.00000  Uiso   1.00
C238   C     0.80569   0.29999   0.83222   0.00000  Uiso   1.00
C239   C     0.89279   0.20834   0.88573   0.00000  Uiso   1.00
C240   C     0.67532   0.55734   0.78479   0.00000  Uiso   1.00
C241   C     0.59736   0.58681   0.80639   0.00000  Uiso   1.00
C242   C     0.59819   0.66102   0.84152   0.00000  Uiso   1.00
C243   C     0.56520   0.77833   0.90039   0.00000  Uiso   1.00
C244   C     0.82922   0.55692   0.76959   0.00000  Uiso   1.00
C245   C     0.81146   0.55007   0.70017   0.00000  Uiso   1.00
C246   C     0.86291   0.58189   0.65315   0.00000  Uiso   1.00
C247   C     0.83551   0.56906   0.59258   0.00000  Uiso   1.00
C248   C     0.82877   0.46586   0.79436   0.00000  Uiso   1.00
C249   C     0.89475   0.42688   0.82655   0.00000  Uiso   1.00
C250   C     0.88193   0.34317   0.84527   0.00000  Uiso   1.00
C251   C     0.75142   0.60045   0.79781   0.00000  Uiso   1.00
C252   C     0.75238   0.67462   0.83292   0.00000  Uiso   1.00
C253   C     0.67443   0.70420   0.85457   0.00000  Uiso   1.00
H254   H     0.62986   0.44400   0.73547   0.00000  Uiso   1.00
H255   H     0.64899   0.46072   0.61656   0.00000  Uiso   1.00
H256   H     0.68083   0.30574   0.78994   0.00000  Uiso   1.00
H257   H     0.53848   0.55344   0.79631   0.00000  Uiso   1.00
H258   H     0.70379   0.49824   0.49047   0.00000  Uiso   1.00
H259   H     0.77091   0.17147   0.85606   0.00000  Uiso   1.00
H260   H     0.47072   0.69379   0.86949   0.00000  Uiso   1.00
H261   H     0.88847   0.59048   0.77973   0.00000  Uiso   1.00
H262   H     0.92179   0.61524   0.66325   0.00000  Uiso   1.00
H263   H     0.95363   0.46026   0.83662   0.00000  Uiso   1.00
H264   H     0.81128   0.70796   0.84299   0.00000  Uiso   1.00
H265   H     0.92520   0.62365   0.52836   0.00000  Uiso   1.00
H266   H     0.99232   0.29688   0.89395   0.00000  Uiso   1.00
H267   H     0.69214   0.81920   0.90739   0.00000  Uiso   1.00
O268   O     0.83176   0.57457   0.43199   0.00000  Uiso   1.00
O269   O     0.91982   0.14587   0.91164   0.00000  Uiso   1.00
O270   O     0.52598   0.83113   0.92926   0.00000  Uiso   1.00
N271   N     0.75131   0.52437   0.51538   0.00000  Uiso   1.00
N272   N     0.81407   0.21886   0.85717   0.00000  Uiso   1.00
N273   N     0.53343   0.70717   0.86974   0.00000  Uiso   1.00
N274   N     0.87046   0.59186   0.53576   0.00000  Uiso   1.00
N275   N     0.93322   0.28634   0.87756   0.00000  Uiso   1.00
N276   N     0.65257   0.77465   0.89013   0.00000  Uiso   1.00
C277   C     0.47756   0.31089   0.25439   0.00000  Uiso   1.00
C278   C     0.50697   0.26464   0.31286   0.00000  Uiso   1.00
C279   C     0.49409   0.29211   0.37338   0.00000  Uiso   1.00
C280   C     0.52588   0.24072   0.42047   0.00000  Uiso   1.00
C281   C     0.56494   0.18046   0.51324   0.00000  Uiso   1.00
C282   C     0.42276   0.24733   0.21867   0.00000  Uiso   1.00
C283   C     0.33908   0.26026   0.19998   0.00000  Uiso   1.00
C284   C     0.29999   0.19431   0.16778   0.00000  Uiso   1.00
C285   C     0.20834   0.10721   0.11427   0.00000  Uiso   1.00
C286   C     0.55734   0.32468   0.21521   0.00000  Uiso   1.00
C287   C     0.58681   0.40264   0.19361   0.00000  Uiso   1.00
C288   C     0.66102   0.40181   0.15848   0.00000  Uiso   1.00
C289   C     0.77833   0.43480   0.09961   0.00000  Uiso   1.00
C290   C     0.55692   0.17078   0.23041   0.00000  Uiso   1.00
C291   C     0.55007   0.18854   0.29983   0.00000  Uiso   1.00
C292   C     0.58189   0.13709   0.34685   0.00000  Uiso   1.00
C293   C     0.56906   0.16449   0.40742   0.00000  Uiso   1.00
C294   C     0.46586   0.17123   0.20564   0.00000  Uiso   1.00
C295   C     0.42688   0.10525   0.17345   0.00000  Uiso   1.00
C296   C     0.34317   0.11807   0.15473   0.00000  Uiso   1.00
C297   C     0.60045   0.24858   0.20219   0.00000  Uiso   1.00
C298   C     0.67462   0.24762   0.16708   0.00000  Uiso   1.00
C299   C     0.70420   0.32557   0.14543   0.00000  Uiso   1.00
H300   H     0.44400   0.37014   0.26453   0.00000  Uiso   1.00
H301   H     0.46072   0.35101   0.38344   0.00000  Uiso   1.00
H302   H     0.30574   0.31917   0.21006   0.00000  Uiso   1.00
H303   H     0.55344   0.46152   0.20369   0.00000  Uiso   1.00
H304   H     0.49824   0.29621   0.50953   0.00000  Uiso   1.00
H305   H     0.17147   0.22909   0.14394   0.00000  Uiso   1.00
H306   H     0.69379   0.52928   0.13051   0.00000  Uiso   1.00
H307   H     0.59048   0.11153   0.22027   0.00000  Uiso   1.00
H308   H     0.61524   0.07821   0.33675   0.00000  Uiso   1.00
H309   H     0.46026   0.04637   0.16338   0.00000  Uiso   1.00
H310   H     0.70796   0.18872   0.15701   0.00000  Uiso   1.00
H311   H     0.62365   0.07480   0.47164   0.00000  Uiso   1.00
H312   H     0.29688   0.00768   0.10605   0.00000  Uiso   1.00
H313   H     0.81920   0.30786   0.09261   0.00000  Uiso   1.00
O314   O     0.57457   0.16824   0.56801   0.00000  Uiso   1.00
O315   O     0.14587   0.08018   0.08836   0.00000  Uiso   1.00
O316   O     0.83113   0.47402   0.07074   0.00000  Uiso   1.00
N317   N     0.52437   0.24869   0.48462   0.00000  Uiso   1.00
N318   N     0.21886   0.18593   0.14283   0.00000  Uiso   1.00
N319   N     0.70717   0.46657   0.13026   0.00000  Uiso   1.00
N320   N     0.59186   0.12954   0.46424   0.00000  Uiso   1.00
N321   N     0.28634   0.06678   0.12244   0.00000  Uiso   1.00
N322   N     0.77465   0.34743   0.10987   0.00000  Uiso   1.00
C323   C     0.52244   0.68911   0.25439   0.00000  Uiso   1.00
C324   C     0.49303   0.73536   0.31286   0.00000  Uiso   1.00
C325   C     0.50591   0.70789   0.37338   0.00000  Uiso   1.00
C326   C     0.47412   0.75928   0.42047   0.00000  Uiso   1.00
C327   C     0.43506   0.81954   0.51324   0.00000  Uiso   1.00
C328   C     0.57724   0.75267   0.21867   0.00000  Uiso   1.00
C329   C     0.66092   0.73974   0.19998   0.00000  Uiso   1.00
C330   C     0.70001   0.80569   0.16778   0.00000  Uiso   1.00
C331   C     0.79166   0.89279   0.11427   0.00000  Uiso   1.00
C332   C     0.44266   0.67532   0.21521   0.00000  Uiso   1.00
C333   C     0.41319   0.59736   0.19361   0.00000  Uiso   1.00
C334   C     0.33898   0.59819   0.15848   0.00000  Uiso   1.00
C335   C     0.22167   0.56520   0.09961   0.00000  Uiso   1.00
C336   C     0.44308   0.82922   0.23041   0.00000  Uiso   1.00
C337   C     0.44993   0.81146   0.29983   0.00000  Uiso   1.00
C338   C     0.41811   0.86291   0.34685   0.00000  Uiso   1.00
C339   C     0.43094   0.83551   0.40742   0.00000  Uiso   1.00
C340   C     0.53414   0.82877   0.20564   0.00000  Uiso   1.00
C341   C     0.57312   0.89475   0.17345   0.00000  Uiso   1.00
C342   C     0.65683   0.88193   0.15473   0.00000  Uiso   1.00
C343   C     0.39955   0.75142   0.20219   0.00000  Uiso   1.00
C344   C     0.32538   0.75238   0.16708   0.00000  Uiso   1.00
C345   C     0.29580   0.67443   0.14543   0.00000  Uiso   1.00
H346   H     0.55600   0.62986   0.26453   0.00000  Uiso   1.00
H347   H     0.53928   0.64899   0.38344   0.00000  Uiso   1.00
H348   H     0.69426   0.68083   0.21006   0.00000  Uiso   1.00
H349   H     0.44656   0.53848   0.20369   0.00000  Uiso   1.00
H350   H     0.50176   0.70379   0.50953   0.00000  Uiso   1.00
H351   H     0.82853   0.77091   0.14394   0.00000  Uiso   1.00
H352   H     0.30621   0.47072   0.13051   0.00000  Uiso   1.00
H353   H     0.40952   0.88847   0.22027   0.00000  Uiso   1.00
H354   H     0.38476   0.92179   0.33675   0.00000  Uiso   1.00
H355   H     0.53974   0.95363   0.16338   0.00000  Uiso   1.00
H356   H     0.29204   0.81128   0.15701   0.00000  Uiso   1.00
H357   H     0.37635   0.92520   0.47164   0.00000  Uiso   1.00
H358   H     0.70312   0.99232   0.10605   0.00000  Uiso   1.00
H359   H     0.18080   0.69214   0.09261   0.00000  Uiso   1.00
O360   O     0.42543   0.83176   0.56801   0.00000  Uiso   1.00
O361   O     0.85413   0.91982   0.08836   0.00000  Uiso   1.00
O362   O     0.16887   0.52598   0.07074   0.00000  Uiso   1.00
N363   N     0.47563   0.75131   0.48462   0.00000  Uiso   1.00
N364   N     0.78114   0.81407   0.14283   0.00000  Uiso   1.00
N365   N     0.29283   0.53343   0.13026   0.00000  Uiso   1.00
N366   N     0.40814   0.87046   0.46424   0.00000  Uiso   1.00
N367   N     0.71366   0.93322   0.12244   0.00000  Uiso   1.00
N368   N     0.22535   0.65257   0.10987   0.00000  Uiso   1.00
