data_job_02604
_audit_creation_date              2018-12-19
_audit_creation_method            'Materials Studio'
_symmetry_space_group_name_H-M    'P1'
_symmetry_Int_Tables_number       1
_symmetry_cell_setting            triclinic
loop_
_symmetry_equiv_pos_as_xyz
  x,y,z
_cell_length_a                    20.2840
_cell_length_b                    44.3871
_cell_length_c                    14.3109
_cell_angle_alpha                 90.0000
_cell_angle_beta                  146.8722
_cell_angle_gamma                 90.0000
loop_
_atom_site_label
_atom_site_type_symbol
_atom_site_fract_x
_atom_site_fract_y
_atom_site_fract_z
_atom_site_U_iso_or_equiv
_atom_site_adp_type
_atom_site_occupancy
C1     C     0.93694   0.89185   0.31259   0.00000  Uiso   1.00
C2     C     0.84696   0.91437   0.24600   0.00000  Uiso   1.00
C3     C     0.78401   0.93592   0.12072   0.00000  Uiso   1.00
C4     C     0.70589   0.95439   0.07767   0.00000  Uiso   1.00
C5     C     0.56844   0.98983   0.96224   0.00000  Uiso   1.00
C6     C     0.05423   0.89664   0.50547   0.00000  Uiso   1.00
C7     C     0.16556   0.90329   0.59834   0.00000  Uiso   1.00
C8     C     0.26193   0.90684   0.77372   0.00000  Uiso   1.00
C9     C     0.44629   0.91474   0.06113   0.00000  Uiso   1.00
C10    C     0.89126   0.86075   0.28659   0.00000  Uiso   1.00
C11    C     0.86560   0.83721   0.19548   0.00000  Uiso   1.00
C12    C     0.82479   0.81053   0.18661   0.00000  Uiso   1.00
C13    C     0.75611   0.76269   0.13419   0.00000  Uiso   1.00
C14    C     0.91013   0.88632   0.45891   0.00000  Uiso   1.00
C15    C     0.83240   0.91137   0.32548   0.00000  Uiso   1.00
C16    C     0.75435   0.92981   0.28260   0.00000  Uiso   1.00
C17    C     0.69130   0.95139   0.15728   0.00000  Uiso   1.00
C18    C     0.03967   0.89364   0.58494   0.00000  Uiso   1.00
C19    C     0.13590   0.89718   0.76022   0.00000  Uiso   1.00
C20    C     0.24734   0.90383   0.85334   0.00000  Uiso   1.00
C21    C     0.87670   0.85774   0.36606   0.00000  Uiso   1.00
C22    C     0.83593   0.83109   0.35735   0.00000  Uiso   1.00
C23    C     0.81020   0.80752   0.26623   0.00000  Uiso   1.00
H24    H     0.94828   0.89418   0.25073   0.00000  Uiso   1.00
H25    H     0.79532   0.93824   0.05926   0.00000  Uiso   1.00
H26    H     0.17681   0.90561   0.53681   0.00000  Uiso   1.00
H27    H     0.87688   0.83954   0.13400   0.00000  Uiso   1.00
H28    H     0.61934   0.98577   0.88207   0.00000  Uiso   1.00
H29    H     0.42374   0.91696   0.88902   0.00000  Uiso   1.00
H30    H     0.79129   0.77763   0.03961   0.00000  Uiso   1.00
H31    H     0.89879   0.88398   0.52079   0.00000  Uiso   1.00
H32    H     0.74310   0.92748   0.34412   0.00000  Uiso   1.00
H33    H     0.12460   0.89485   0.82168   0.00000  Uiso   1.00
H34    H     0.82467   0.82878   0.41886   0.00000  Uiso   1.00
H35    H     0.57696   0.97704   0.11328   0.00000  Uiso   1.00
H36    H     0.38137   0.90823   0.12023   0.00000  Uiso   1.00
H37    H     0.74891   0.76890   0.27082   0.00000  Uiso   1.00
O38    O     0.49665   0.01021   0.87663   0.00000  Uiso   1.00
O39    O     0.55200   0.91992   0.19770   0.00000  Uiso   1.00
O40    O     0.72224   0.73713   0.08330   0.00000  Uiso   1.00
N41    N     0.63071   0.97774   0.96071   0.00000  Uiso   1.00
N42    N     0.38278   0.91341   0.90214   0.00000  Uiso   1.00
N43    N     0.79152   0.78315   0.10805   0.00000  Uiso   1.00
N44    N     0.60791   0.97304   0.08512   0.00000  Uiso   1.00
N45    N     0.35997   0.90871   0.02655   0.00000  Uiso   1.00
N46    N     0.76872   0.77845   0.23246   0.00000  Uiso   1.00
C47    C     0.43694   0.39185   0.31259   0.00000  Uiso   1.00
C48    C     0.34696   0.41437   0.24600   0.00000  Uiso   1.00
C49    C     0.28401   0.43592   0.12072   0.00000  Uiso   1.00
C50    C     0.20589   0.45439   0.07767   0.00000  Uiso   1.00
C51    C     0.06844   0.48983   0.96224   0.00000  Uiso   1.00
C52    C     0.55423   0.39664   0.50547   0.00000  Uiso   1.00
C53    C     0.66556   0.40329   0.59834   0.00000  Uiso   1.00
C54    C     0.76193   0.40684   0.77372   0.00000  Uiso   1.00
C55    C     0.94629   0.41474   0.06113   0.00000  Uiso   1.00
C56    C     0.39126   0.36075   0.28659   0.00000  Uiso   1.00
C57    C     0.36560   0.33721   0.19548   0.00000  Uiso   1.00
C58    C     0.32479   0.31053   0.18661   0.00000  Uiso   1.00
C59    C     0.25611   0.26269   0.13419   0.00000  Uiso   1.00
C60    C     0.41013   0.38632   0.45891   0.00000  Uiso   1.00
C61    C     0.33240   0.41137   0.32548   0.00000  Uiso   1.00
C62    C     0.25435   0.42981   0.28260   0.00000  Uiso   1.00
C63    C     0.19130   0.45139   0.15728   0.00000  Uiso   1.00
C64    C     0.53967   0.39364   0.58494   0.00000  Uiso   1.00
C65    C     0.63590   0.39718   0.76022   0.00000  Uiso   1.00
C66    C     0.74734   0.40383   0.85334   0.00000  Uiso   1.00
C67    C     0.37670   0.35774   0.36606   0.00000  Uiso   1.00
C68    C     0.33593   0.33109   0.35735   0.00000  Uiso   1.00
C69    C     0.31020   0.30752   0.26623   0.00000  Uiso   1.00
H70    H     0.44828   0.39418   0.25073   0.00000  Uiso   1.00
H71    H     0.29532   0.43824   0.05926   0.00000  Uiso   1.00
H72    H     0.67681   0.40561   0.53681   0.00000  Uiso   1.00
H73    H     0.37688   0.33954   0.13400   0.00000  Uiso   1.00
H74    H     0.11934   0.48577   0.88207   0.00000  Uiso   1.00
H75    H     0.92374   0.41696   0.88902   0.00000  Uiso   1.00
H76    H     0.29129   0.27763   0.03961   0.00000  Uiso   1.00
H77    H     0.39879   0.38398   0.52079   0.00000  Uiso   1.00
H78    H     0.24310   0.42748   0.34412   0.00000  Uiso   1.00
H79    H     0.62460   0.39485   0.82168   0.00000  Uiso   1.00
H80    H     0.32467   0.32878   0.41886   0.00000  Uiso   1.00
H81    H     0.07696   0.47704   0.11328   0.00000  Uiso   1.00
H82    H     0.88137   0.40823   0.12023   0.00000  Uiso   1.00
H83    H     0.24891   0.26890   0.27082   0.00000  Uiso   1.00
O84    O     0.99665   0.51021   0.87663   0.00000  Uiso   1.00
O85    O     0.05200   0.41992   0.19770   0.00000  Uiso   1.00
O86    O     0.22224   0.23713   0.08330   0.00000  Uiso   1.00
N87    N     0.13071   0.47774   0.96071   0.00000  Uiso   1.00
N88    N     0.88278   0.41341   0.90214   0.00000  Uiso   1.00
N89    N     0.29152   0.28315   0.10805   0.00000  Uiso   1.00
N90    N     0.10791   0.47304   0.08512   0.00000  Uiso   1.00
N91    N     0.85997   0.40871   0.02655   0.00000  Uiso   1.00
N92    N     0.26872   0.27845   0.23246   0.00000  Uiso   1.00
C93    C     0.06306   0.89185   0.18741   0.00000  Uiso   1.00
C94    C     0.15304   0.91437   0.25400   0.00000  Uiso   1.00
C95    C     0.21599   0.93592   0.37928   0.00000  Uiso   1.00
C96    C     0.29411   0.95439   0.42233   0.00000  Uiso   1.00
C97    C     0.43156   0.98983   0.53776   0.00000  Uiso   1.00
C98    C     0.94577   0.89664   0.99453   0.00000  Uiso   1.00
C99    C     0.83444   0.90329   0.90166   0.00000  Uiso   1.00
C100   C     0.73807   0.90684   0.72628   0.00000  Uiso   1.00
C101   C     0.55371   0.91474   0.43887   0.00000  Uiso   1.00
C102   C     0.10874   0.86075   0.21341   0.00000  Uiso   1.00
C103   C     0.13440   0.83721   0.30452   0.00000  Uiso   1.00
C104   C     0.17521   0.81053   0.31339   0.00000  Uiso   1.00
C105   C     0.24389   0.76269   0.36581   0.00000  Uiso   1.00
C106   C     0.08987   0.88632   0.04109   0.00000  Uiso   1.00
C107   C     0.16760   0.91137   0.17452   0.00000  Uiso   1.00
C108   C     0.24565   0.92981   0.21740   0.00000  Uiso   1.00
C109   C     0.30870   0.95139   0.34272   0.00000  Uiso   1.00
C110   C     0.96033   0.89364   0.91506   0.00000  Uiso   1.00
C111   C     0.86410   0.89718   0.73978   0.00000  Uiso   1.00
C112   C     0.75266   0.90383   0.64666   0.00000  Uiso   1.00
C113   C     0.12330   0.85774   0.13394   0.00000  Uiso   1.00
C114   C     0.16407   0.83109   0.14265   0.00000  Uiso   1.00
C115   C     0.18980   0.80752   0.23377   0.00000  Uiso   1.00
H116   H     0.05172   0.89418   0.24927   0.00000  Uiso   1.00
H117   H     0.20468   0.93824   0.44074   0.00000  Uiso   1.00
H118   H     0.82319   0.90561   0.96319   0.00000  Uiso   1.00
H119   H     0.12312   0.83954   0.36600   0.00000  Uiso   1.00
H120   H     0.38066   0.98577   0.61793   0.00000  Uiso   1.00
H121   H     0.57626   0.91696   0.61098   0.00000  Uiso   1.00
H122   H     0.20871   0.77763   0.46039   0.00000  Uiso   1.00
H123   H     0.10121   0.88398   0.97921   0.00000  Uiso   1.00
H124   H     0.25690   0.92748   0.15588   0.00000  Uiso   1.00
H125   H     0.87540   0.89485   0.67832   0.00000  Uiso   1.00
H126   H     0.17533   0.82878   0.08114   0.00000  Uiso   1.00
H127   H     0.42304   0.97704   0.38672   0.00000  Uiso   1.00
H128   H     0.61863   0.90823   0.37977   0.00000  Uiso   1.00
H129   H     0.25109   0.76890   0.22918   0.00000  Uiso   1.00
O130   O     0.50335   0.01021   0.62337   0.00000  Uiso   1.00
O131   O     0.44800   0.91992   0.30230   0.00000  Uiso   1.00
O132   O     0.27776   0.73713   0.41670   0.00000  Uiso   1.00
N133   N     0.36929   0.97774   0.53929   0.00000  Uiso   1.00
N134   N     0.61722   0.91341   0.59786   0.00000  Uiso   1.00
N135   N     0.20848   0.78315   0.39195   0.00000  Uiso   1.00
N136   N     0.39209   0.97304   0.41488   0.00000  Uiso   1.00
N137   N     0.64003   0.90871   0.47345   0.00000  Uiso   1.00
N138   N     0.23128   0.77845   0.26754   0.00000  Uiso   1.00
C139   C     0.56306   0.39185   0.18741   0.00000  Uiso   1.00
C140   C     0.65304   0.41437   0.25400   0.00000  Uiso   1.00
C141   C     0.71599   0.43592   0.37928   0.00000  Uiso   1.00
C142   C     0.79411   0.45439   0.42233   0.00000  Uiso   1.00
C143   C     0.93156   0.48983   0.53776   0.00000  Uiso   1.00
C144   C     0.44577   0.39664   0.99453   0.00000  Uiso   1.00
C145   C     0.33444   0.40329   0.90166   0.00000  Uiso   1.00
C146   C     0.23807   0.40684   0.72628   0.00000  Uiso   1.00
C147   C     0.05371   0.41474   0.43887   0.00000  Uiso   1.00
C148   C     0.60874   0.36075   0.21341   0.00000  Uiso   1.00
C149   C     0.63440   0.33721   0.30452   0.00000  Uiso   1.00
C150   C     0.67521   0.31053   0.31339   0.00000  Uiso   1.00
C151   C     0.74389   0.26269   0.36581   0.00000  Uiso   1.00
C152   C     0.58987   0.38632   0.04109   0.00000  Uiso   1.00
C153   C     0.66760   0.41137   0.17452   0.00000  Uiso   1.00
C154   C     0.74565   0.42981   0.21740   0.00000  Uiso   1.00
C155   C     0.80870   0.45139   0.34272   0.00000  Uiso   1.00
C156   C     0.46033   0.39364   0.91506   0.00000  Uiso   1.00
C157   C     0.36410   0.39718   0.73978   0.00000  Uiso   1.00
C158   C     0.25266   0.40383   0.64666   0.00000  Uiso   1.00
C159   C     0.62330   0.35774   0.13394   0.00000  Uiso   1.00
C160   C     0.66407   0.33109   0.14265   0.00000  Uiso   1.00
C161   C     0.68980   0.30752   0.23377   0.00000  Uiso   1.00
H162   H     0.55172   0.39418   0.24927   0.00000  Uiso   1.00
H163   H     0.70468   0.43824   0.44074   0.00000  Uiso   1.00
H164   H     0.32319   0.40561   0.96319   0.00000  Uiso   1.00
H165   H     0.62312   0.33954   0.36600   0.00000  Uiso   1.00
H166   H     0.88066   0.48577   0.61793   0.00000  Uiso   1.00
H167   H     0.07626   0.41696   0.61098   0.00000  Uiso   1.00
H168   H     0.70871   0.27763   0.46039   0.00000  Uiso   1.00
H169   H     0.60121   0.38398   0.97921   0.00000  Uiso   1.00
H170   H     0.75690   0.42748   0.15588   0.00000  Uiso   1.00
H171   H     0.37540   0.39485   0.67832   0.00000  Uiso   1.00
H172   H     0.67533   0.32878   0.08114   0.00000  Uiso   1.00
H173   H     0.92304   0.47704   0.38672   0.00000  Uiso   1.00
H174   H     0.11863   0.40823   0.37977   0.00000  Uiso   1.00
H175   H     0.75109   0.26890   0.22918   0.00000  Uiso   1.00
O176   O     0.00335   0.51021   0.62337   0.00000  Uiso   1.00
O177   O     0.94800   0.41992   0.30230   0.00000  Uiso   1.00
O178   O     0.77776   0.23713   0.41670   0.00000  Uiso   1.00
N179   N     0.86929   0.47774   0.53929   0.00000  Uiso   1.00
N180   N     0.11722   0.41341   0.59786   0.00000  Uiso   1.00
N181   N     0.70848   0.28315   0.39195   0.00000  Uiso   1.00
N182   N     0.89209   0.47304   0.41488   0.00000  Uiso   1.00
N183   N     0.14003   0.40871   0.47345   0.00000  Uiso   1.00
N184   N     0.73128   0.27845   0.26754   0.00000  Uiso   1.00
C185   C     0.06306   0.10815   0.68741   0.00000  Uiso   1.00
C186   C     0.15304   0.08563   0.75400   0.00000  Uiso   1.00
C187   C     0.21599   0.06408   0.87928   0.00000  Uiso   1.00
C188   C     0.29411   0.04561   0.92233   0.00000  Uiso   1.00
C189   C     0.43156   0.01017   0.03776   0.00000  Uiso   1.00
C190   C     0.94577   0.10336   0.49453   0.00000  Uiso   1.00
C191   C     0.83444   0.09671   0.40166   0.00000  Uiso   1.00
C192   C     0.73807   0.09316   0.22628   0.00000  Uiso   1.00
C193   C     0.55371   0.08526   0.93887   0.00000  Uiso   1.00
C194   C     0.10874   0.13925   0.71341   0.00000  Uiso   1.00
C195   C     0.13440   0.16279   0.80452   0.00000  Uiso   1.00
C196   C     0.17521   0.18947   0.81339   0.00000  Uiso   1.00
C197   C     0.24389   0.23731   0.86581   0.00000  Uiso   1.00
C198   C     0.08987   0.11368   0.54109   0.00000  Uiso   1.00
C199   C     0.16760   0.08863   0.67452   0.00000  Uiso   1.00
C200   C     0.24565   0.07019   0.71740   0.00000  Uiso   1.00
C201   C     0.30870   0.04861   0.84272   0.00000  Uiso   1.00
C202   C     0.96033   0.10636   0.41506   0.00000  Uiso   1.00
C203   C     0.86410   0.10282   0.23978   0.00000  Uiso   1.00
C204   C     0.75266   0.09617   0.14666   0.00000  Uiso   1.00
C205   C     0.12330   0.14226   0.63394   0.00000  Uiso   1.00
C206   C     0.16407   0.16891   0.64265   0.00000  Uiso   1.00
C207   C     0.18980   0.19248   0.73377   0.00000  Uiso   1.00
H208   H     0.05172   0.10582   0.74927   0.00000  Uiso   1.00
H209   H     0.20468   0.06176   0.94074   0.00000  Uiso   1.00
H210   H     0.82319   0.09439   0.46319   0.00000  Uiso   1.00
H211   H     0.12312   0.16046   0.86600   0.00000  Uiso   1.00
H212   H     0.38066   0.01423   0.11793   0.00000  Uiso   1.00
H213   H     0.57626   0.08304   0.11098   0.00000  Uiso   1.00
H214   H     0.20871   0.22237   0.96039   0.00000  Uiso   1.00
H215   H     0.10121   0.11602   0.47921   0.00000  Uiso   1.00
H216   H     0.25690   0.07252   0.65588   0.00000  Uiso   1.00
H217   H     0.87540   0.10515   0.17832   0.00000  Uiso   1.00
H218   H     0.17533   0.17122   0.58114   0.00000  Uiso   1.00
H219   H     0.42304   0.02296   0.88672   0.00000  Uiso   1.00
H220   H     0.61863   0.09177   0.87977   0.00000  Uiso   1.00
H221   H     0.25109   0.23110   0.72918   0.00000  Uiso   1.00
O222   O     0.50335   0.98979   0.12337   0.00000  Uiso   1.00
O223   O     0.44800   0.08008   0.80230   0.00000  Uiso   1.00
O224   O     0.27776   0.26287   0.91670   0.00000  Uiso   1.00
N225   N     0.36929   0.02226   0.03929   0.00000  Uiso   1.00
N226   N     0.61722   0.08659   0.09786   0.00000  Uiso   1.00
N227   N     0.20848   0.21685   0.89195   0.00000  Uiso   1.00
N228   N     0.39209   0.02696   0.91488   0.00000  Uiso   1.00
N229   N     0.64003   0.09129   0.97345   0.00000  Uiso   1.00
N230   N     0.23128   0.22155   0.76754   0.00000  Uiso   1.00
C231   C     0.56306   0.60815   0.68741   0.00000  Uiso   1.00
C232   C     0.65304   0.58563   0.75400   0.00000  Uiso   1.00
C233   C     0.71599   0.56408   0.87928   0.00000  Uiso   1.00
C234   C     0.79411   0.54561   0.92233   0.00000  Uiso   1.00
C235   C     0.93156   0.51017   0.03776   0.00000  Uiso   1.00
C236   C     0.44577   0.60336   0.49453   0.00000  Uiso   1.00
C237   C     0.33444   0.59671   0.40166   0.00000  Uiso   1.00
C238   C     0.23807   0.59316   0.22628   0.00000  Uiso   1.00
C239   C     0.05371   0.58526   0.93887   0.00000  Uiso   1.00
C240   C     0.60874   0.63925   0.71341   0.00000  Uiso   1.00
C241   C     0.63440   0.66279   0.80452   0.00000  Uiso   1.00
C242   C     0.67521   0.68947   0.81339   0.00000  Uiso   1.00
C243   C     0.74389   0.73731   0.86581   0.00000  Uiso   1.00
C244   C     0.58987   0.61368   0.54109   0.00000  Uiso   1.00
C245   C     0.66760   0.58863   0.67452   0.00000  Uiso   1.00
C246   C     0.74565   0.57019   0.71740   0.00000  Uiso   1.00
C247   C     0.80870   0.54861   0.84272   0.00000  Uiso   1.00
C248   C     0.46033   0.60636   0.41506   0.00000  Uiso   1.00
C249   C     0.36410   0.60282   0.23978   0.00000  Uiso   1.00
C250   C     0.25266   0.59617   0.14666   0.00000  Uiso   1.00
C251   C     0.62330   0.64226   0.63394   0.00000  Uiso   1.00
C252   C     0.66407   0.66891   0.64265   0.00000  Uiso   1.00
C253   C     0.68980   0.69248   0.73377   0.00000  Uiso   1.00
H254   H     0.55172   0.60582   0.74927   0.00000  Uiso   1.00
H255   H     0.70468   0.56176   0.94074   0.00000  Uiso   1.00
H256   H     0.32319   0.59439   0.46319   0.00000  Uiso   1.00
H257   H     0.62312   0.66046   0.86600   0.00000  Uiso   1.00
H258   H     0.88066   0.51423   0.11793   0.00000  Uiso   1.00
H259   H     0.07626   0.58304   0.11098   0.00000  Uiso   1.00
H260   H     0.70871   0.72237   0.96039   0.00000  Uiso   1.00
H261   H     0.60121   0.61602   0.47921   0.00000  Uiso   1.00
H262   H     0.75690   0.57252   0.65588   0.00000  Uiso   1.00
H263   H     0.37540   0.60515   0.17832   0.00000  Uiso   1.00
H264   H     0.67533   0.67122   0.58114   0.00000  Uiso   1.00
H265   H     0.92304   0.52296   0.88672   0.00000  Uiso   1.00
H266   H     0.11863   0.59177   0.87977   0.00000  Uiso   1.00
H267   H     0.75109   0.73110   0.72918   0.00000  Uiso   1.00
O268   O     0.00335   0.48979   0.12337   0.00000  Uiso   1.00
O269   O     0.94800   0.58008   0.80230   0.00000  Uiso   1.00
O270   O     0.77776   0.76287   0.91670   0.00000  Uiso   1.00
N271   N     0.86929   0.52226   0.03929   0.00000  Uiso   1.00
N272   N     0.11722   0.58659   0.09786   0.00000  Uiso   1.00
N273   N     0.70848   0.71685   0.89195   0.00000  Uiso   1.00
N274   N     0.89209   0.52696   0.91488   0.00000  Uiso   1.00
N275   N     0.14003   0.59129   0.97345   0.00000  Uiso   1.00
N276   N     0.73128   0.72155   0.76754   0.00000  Uiso   1.00
C277   C     0.93694   0.10815   0.81259   0.00000  Uiso   1.00
C278   C     0.84696   0.08563   0.74600   0.00000  Uiso   1.00
C279   C     0.78401   0.06408   0.62072   0.00000  Uiso   1.00
C280   C     0.70589   0.04561   0.57767   0.00000  Uiso   1.00
C281   C     0.56844   0.01017   0.46224   0.00000  Uiso   1.00
C282   C     0.05423   0.10336   0.00547   0.00000  Uiso   1.00
C283   C     0.16556   0.09671   0.09834   0.00000  Uiso   1.00
C284   C     0.26193   0.09316   0.27372   0.00000  Uiso   1.00
C285   C     0.44629   0.08526   0.56113   0.00000  Uiso   1.00
C286   C     0.89126   0.13925   0.78659   0.00000  Uiso   1.00
C287   C     0.86560   0.16279   0.69548   0.00000  Uiso   1.00
C288   C     0.82479   0.18947   0.68661   0.00000  Uiso   1.00
C289   C     0.75611   0.23731   0.63419   0.00000  Uiso   1.00
C290   C     0.91013   0.11368   0.95891   0.00000  Uiso   1.00
C291   C     0.83240   0.08863   0.82548   0.00000  Uiso   1.00
C292   C     0.75435   0.07019   0.78260   0.00000  Uiso   1.00
C293   C     0.69130   0.04861   0.65728   0.00000  Uiso   1.00
C294   C     0.03967   0.10636   0.08494   0.00000  Uiso   1.00
C295   C     0.13590   0.10282   0.26022   0.00000  Uiso   1.00
C296   C     0.24734   0.09617   0.35334   0.00000  Uiso   1.00
C297   C     0.87670   0.14226   0.86606   0.00000  Uiso   1.00
C298   C     0.83593   0.16891   0.85735   0.00000  Uiso   1.00
C299   C     0.81020   0.19248   0.76623   0.00000  Uiso   1.00
H300   H     0.94828   0.10582   0.75073   0.00000  Uiso   1.00
H301   H     0.79532   0.06176   0.55926   0.00000  Uiso   1.00
H302   H     0.17681   0.09439   0.03681   0.00000  Uiso   1.00
H303   H     0.87688   0.16046   0.63400   0.00000  Uiso   1.00
H304   H     0.61934   0.01423   0.38207   0.00000  Uiso   1.00
H305   H     0.42374   0.08304   0.38902   0.00000  Uiso   1.00
H306   H     0.79129   0.22237   0.53961   0.00000  Uiso   1.00
H307   H     0.89879   0.11602   0.02079   0.00000  Uiso   1.00
H308   H     0.74310   0.07252   0.84412   0.00000  Uiso   1.00
H309   H     0.12460   0.10515   0.32168   0.00000  Uiso   1.00
H310   H     0.82467   0.17122   0.91886   0.00000  Uiso   1.00
H311   H     0.57696   0.02296   0.61328   0.00000  Uiso   1.00
H312   H     0.38137   0.09177   0.62023   0.00000  Uiso   1.00
H313   H     0.74891   0.23110   0.77082   0.00000  Uiso   1.00
O314   O     0.49665   0.98979   0.37663   0.00000  Uiso   1.00
O315   O     0.55200   0.08008   0.69770   0.00000  Uiso   1.00
O316   O     0.72224   0.26287   0.58330   0.00000  Uiso   1.00
N317   N     0.63071   0.02226   0.46071   0.00000  Uiso   1.00
N318   N     0.38278   0.08659   0.40214   0.00000  Uiso   1.00
N319   N     0.79152   0.21685   0.60805   0.00000  Uiso   1.00
N320   N     0.60791   0.02696   0.58512   0.00000  Uiso   1.00
N321   N     0.35997   0.09129   0.52655   0.00000  Uiso   1.00
N322   N     0.76872   0.22155   0.73246   0.00000  Uiso   1.00
C323   C     0.43694   0.60815   0.81259   0.00000  Uiso   1.00
C324   C     0.34696   0.58563   0.74600   0.00000  Uiso   1.00
C325   C     0.28401   0.56408   0.62072   0.00000  Uiso   1.00
C326   C     0.20589   0.54561   0.57767   0.00000  Uiso   1.00
C327   C     0.06844   0.51017   0.46224   0.00000  Uiso   1.00
C328   C     0.55423   0.60336   0.00547   0.00000  Uiso   1.00
C329   C     0.66556   0.59671   0.09834   0.00000  Uiso   1.00
C330   C     0.76193   0.59316   0.27372   0.00000  Uiso   1.00
C331   C     0.94629   0.58526   0.56113   0.00000  Uiso   1.00
C332   C     0.39126   0.63925   0.78659   0.00000  Uiso   1.00
C333   C     0.36560   0.66279   0.69548   0.00000  Uiso   1.00
C334   C     0.32479   0.68947   0.68661   0.00000  Uiso   1.00
C335   C     0.25611   0.73731   0.63419   0.00000  Uiso   1.00
C336   C     0.41013   0.61368   0.95891   0.00000  Uiso   1.00
C337   C     0.33240   0.58863   0.82548   0.00000  Uiso   1.00
C338   C     0.25435   0.57019   0.78260   0.00000  Uiso   1.00
C339   C     0.19130   0.54861   0.65728   0.00000  Uiso   1.00
C340   C     0.53967   0.60636   0.08494   0.00000  Uiso   1.00
C341   C     0.63590   0.60282   0.26022   0.00000  Uiso   1.00
C342   C     0.74734   0.59617   0.35334   0.00000  Uiso   1.00
C343   C     0.37670   0.64226   0.86606   0.00000  Uiso   1.00
C344   C     0.33593   0.66891   0.85735   0.00000  Uiso   1.00
C345   C     0.31020   0.69248   0.76623   0.00000  Uiso   1.00
H346   H     0.44828   0.60582   0.75073   0.00000  Uiso   1.00
H347   H     0.29532   0.56176   0.55926   0.00000  Uiso   1.00
H348   H     0.67681   0.59439   0.03681   0.00000  Uiso   1.00
H349   H     0.37688   0.66046   0.63400   0.00000  Uiso   1.00
H350   H     0.11934   0.51423   0.38207   0.00000  Uiso   1.00
H351   H     0.92374   0.58304   0.38902   0.00000  Uiso   1.00
H352   H     0.29129   0.72237   0.53961   0.00000  Uiso   1.00
H353   H     0.39879   0.61602   0.02079   0.00000  Uiso   1.00
H354   H     0.24310   0.57252   0.84412   0.00000  Uiso   1.00
H355   H     0.62460   0.60515   0.32168   0.00000  Uiso   1.00
H356   H     0.32467   0.67122   0.91886   0.00000  Uiso   1.00
H357   H     0.07696   0.52296   0.61328   0.00000  Uiso   1.00
H358   H     0.88137   0.59177   0.62023   0.00000  Uiso   1.00
H359   H     0.24891   0.73110   0.77082   0.00000  Uiso   1.00
O360   O     0.99665   0.48979   0.37663   0.00000  Uiso   1.00
O361   O     0.05200   0.58008   0.69770   0.00000  Uiso   1.00
O362   O     0.22224   0.76287   0.58330   0.00000  Uiso   1.00
N363   N     0.13071   0.52226   0.46071   0.00000  Uiso   1.00
N364   N     0.88278   0.58659   0.40214   0.00000  Uiso   1.00
N365   N     0.29152   0.71685   0.60805   0.00000  Uiso   1.00
N366   N     0.10791   0.52696   0.58512   0.00000  Uiso   1.00
N367   N     0.85997   0.59129   0.52655   0.00000  Uiso   1.00
N368   N     0.26872   0.72155   0.73246   0.00000  Uiso   1.00
