data_job_07079
_audit_creation_date              2018-12-19
_audit_creation_method            'Materials Studio'
_symmetry_space_group_name_H-M    'P1'
_symmetry_Int_Tables_number       1
_symmetry_cell_setting            triclinic
loop_
_symmetry_equiv_pos_as_xyz
  x,y,z
_cell_length_a                    22.4351
_cell_length_b                    22.7269
_cell_length_c                    24.2649
_cell_angle_alpha                 102.1318
_cell_angle_beta                  72.2587
_cell_angle_gamma                 89.8153
loop_
_atom_site_label
_atom_site_type_symbol
_atom_site_fract_x
_atom_site_fract_y
_atom_site_fract_z
_atom_site_U_iso_or_equiv
_atom_site_adp_type
_atom_site_occupancy
C1     C     0.80721   0.37290   0.93914   0.00000  Uiso   1.00
C2     C     0.74489   0.39240   0.93297   0.00000  Uiso   1.00
C3     C     0.68582   0.38294   0.96836   0.00000  Uiso   1.00
C4     C     0.63460   0.40420   0.95554   0.00000  Uiso   1.00
C5     C     0.53667   0.42995   0.95302   0.00000  Uiso   1.00
C6     C     0.84428   0.33368   0.87899   0.00000  Uiso   1.00
C7     C     0.86879   0.27485   0.86900   0.00000  Uiso   1.00
C8     C     0.90126   0.24668   0.81074   0.00000  Uiso   1.00
C9     C     0.95768   0.18128   0.72441   0.00000  Uiso   1.00
C10    C     0.84211   0.43000   0.94674   0.00000  Uiso   1.00
C11    C     0.86480   0.45215   0.99372   0.00000  Uiso   1.00
C12    C     0.89545   0.50507   0.99250   0.00000  Uiso   1.00
C13    C     0.94850   0.58922   0.01138   0.00000  Uiso   1.00
C14    C     0.82130   0.42746   0.85345   0.00000  Uiso   1.00
C15    C     0.75255   0.42204   0.88642   0.00000  Uiso   1.00
C16    C     0.70141   0.44332   0.87355   0.00000  Uiso   1.00
C17    C     0.64227   0.43390   0.90892   0.00000  Uiso   1.00
C18    C     0.85194   0.36331   0.83244   0.00000  Uiso   1.00
C19    C     0.88438   0.33523   0.77418   0.00000  Uiso   1.00
C20    C     0.90892   0.27637   0.76411   0.00000  Uiso   1.00
C21    C     0.84976   0.45964   0.90020   0.00000  Uiso   1.00
C22    C     0.88039   0.51253   0.89891   0.00000  Uiso   1.00
C23    C     0.90312   0.53476   0.94587   0.00000  Uiso   1.00
H24    H     0.80125   0.34982   0.97538   0.00000  Uiso   1.00
H25    H     0.67991   0.36000   0.00437   0.00000  Uiso   1.00
H26    H     0.86286   0.25193   0.90503   0.00000  Uiso   1.00
H27    H     0.85887   0.42920   0.02973   0.00000  Uiso   1.00
H28    H     0.54876   0.38434   0.01598   0.00000  Uiso   1.00
H29    H     0.93454   0.15648   0.80650   0.00000  Uiso   1.00
H30    H     0.92613   0.53029   0.06947   0.00000  Uiso   1.00
H31    H     0.82726   0.45054   0.81721   0.00000  Uiso   1.00
H32    H     0.70734   0.46625   0.83752   0.00000  Uiso   1.00
H33    H     0.89030   0.35818   0.73818   0.00000  Uiso   1.00
H34    H     0.88630   0.53545   0.86288   0.00000  Uiso   1.00
H35    H     0.57102   0.47058   0.88056   0.00000  Uiso   1.00
H36    H     0.95681   0.24271   0.67108   0.00000  Uiso   1.00
H37    H     0.94839   0.61652   0.93405   0.00000  Uiso   1.00
O38    O     0.48054   0.43596   0.96447   0.00000  Uiso   1.00
O39    O     0.98668   0.13702   0.68965   0.00000  Uiso   1.00
O40    O     0.97564   0.62745   0.03466   0.00000  Uiso   1.00
N41    N     0.57046   0.40249   0.98133   0.00000  Uiso   1.00
N42    N     0.93113   0.18945   0.78548   0.00000  Uiso   1.00
N43    N     0.92328   0.53892   0.03132   0.00000  Uiso   1.00
N44    N     0.58244   0.44889   0.90846   0.00000  Uiso   1.00
N45    N     0.94311   0.23585   0.71261   0.00000  Uiso   1.00
N46    N     0.93526   0.58533   0.95845   0.00000  Uiso   1.00
C47    C     0.68242   0.45703   0.15106   0.00000  Uiso   1.00
C48    C     0.69907   0.50470   0.11407   0.00000  Uiso   1.00
C49    C     0.66911   0.51657   0.07487   0.00000  Uiso   1.00
C50    C     0.69138   0.56197   0.04524   0.00000  Uiso   1.00
C51    C     0.70958   0.63104   0.98637   0.00000  Uiso   1.00
C52    C     0.74235   0.41672   0.13538   0.00000  Uiso   1.00
C53    C     0.74876   0.35462   0.11410   0.00000  Uiso   1.00
C54    C     0.80746   0.32597   0.10241   0.00000  Uiso   1.00
C55    C     0.89284   0.25845   0.07667   0.00000  Uiso   1.00
C56    C     0.66946   0.49047   0.21544   0.00000  Uiso   1.00
C57    C     0.61460   0.49038   0.26149   0.00000  Uiso   1.00
C58    C     0.61194   0.52381   0.31721   0.00000  Uiso   1.00
C59    C     0.58415   0.57080   0.41577   0.00000  Uiso   1.00
C60    C     0.77524   0.51656   0.16815   0.00000  Uiso   1.00
C61    C     0.74949   0.53703   0.12335   0.00000  Uiso   1.00
C62    C     0.77181   0.58243   0.09378   0.00000  Uiso   1.00
C63    C     0.74188   0.59437   0.05454   0.00000  Uiso   1.00
C64    C     0.79276   0.44905   0.14466   0.00000  Uiso   1.00
C65    C     0.85146   0.42048   0.13301   0.00000  Uiso   1.00
C66    C     0.85797   0.35836   0.11171   0.00000  Uiso   1.00
C67    C     0.71988   0.52281   0.22473   0.00000  Uiso   1.00
C68    C     0.71730   0.55624   0.28039   0.00000  Uiso   1.00
C69    C     0.66245   0.55620   0.32651   0.00000  Uiso   1.00
H70    H     0.64317   0.43186   0.14383   0.00000  Uiso   1.00
H71    H     0.63010   0.49153   0.06769   0.00000  Uiso   1.00
H72    H     0.70974   0.32962   0.10692   0.00000  Uiso   1.00
H73    H     0.57560   0.46535   0.25428   0.00000  Uiso   1.00
H74    H     0.63785   0.57194   0.98735   0.00000  Uiso   1.00
H75    H     0.80577   0.23052   0.07010   0.00000  Uiso   1.00
H76    H     0.52291   0.51674   0.38083   0.00000  Uiso   1.00
H77    H     0.81450   0.54173   0.17538   0.00000  Uiso   1.00
H78    H     0.81083   0.60744   0.10097   0.00000  Uiso   1.00
H79    H     0.89047   0.44552   0.14020   0.00000  Uiso   1.00
H80    H     0.75632   0.58126   0.28756   0.00000  Uiso   1.00
H81    H     0.78454   0.66601   0.01436   0.00000  Uiso   1.00
H82    H     0.95246   0.32459   0.09711   0.00000  Uiso   1.00
H83    H     0.66959   0.61082   0.40784   0.00000  Uiso   1.00
O84    O     0.70570   0.66020   0.95132   0.00000  Uiso   1.00
O85    O     0.92600   0.21227   0.05989   0.00000  Uiso   1.00
O86    O     0.55489   0.58779   0.46757   0.00000  Uiso   1.00
N87    N     0.67287   0.58507   0.00393   0.00000  Uiso   1.00
N88    N     0.82987   0.26586   0.08128   0.00000  Uiso   1.00
N89    N     0.56542   0.53345   0.37180   0.00000  Uiso   1.00
N90    N     0.75180   0.63569   0.01846   0.00000  Uiso   1.00
N91    N     0.90880   0.31648   0.09581   0.00000  Uiso   1.00
N92    N     0.64435   0.58407   0.38633   0.00000  Uiso   1.00
C93    C     0.45138   0.43837   0.20966   0.00000  Uiso   1.00
C94    C     0.46547   0.50459   0.21551   0.00000  Uiso   1.00
C95    C     0.50813   0.52864   0.17279   0.00000  Uiso   1.00
C96    C     0.51423   0.59031   0.18666   0.00000  Uiso   1.00
C97    C     0.54151   0.68760   0.18745   0.00000  Uiso   1.00
C98    C     0.46323   0.41930   0.26225   0.00000  Uiso   1.00
C99    C     0.50398   0.37163   0.25881   0.00000  Uiso   1.00
C100   C     0.50819   0.36150   0.31202   0.00000  Uiso   1.00
C101   C     0.53194   0.32636   0.38537   0.00000  Uiso   1.00
C102   C     0.38089   0.43699   0.22015   0.00000  Uiso   1.00
C103   C     0.35241   0.40417   0.18133   0.00000  Uiso   1.00
C104   C     0.28728   0.40893   0.19911   0.00000  Uiso   1.00
C105   C     0.18320   0.40124   0.20710   0.00000  Uiso   1.00
C106   C     0.38636   0.50514   0.31025   0.00000  Uiso   1.00
C107   C     0.43016   0.54086   0.27015   0.00000  Uiso   1.00
C108   C     0.43619   0.60251   0.28409   0.00000  Uiso   1.00
C109   C     0.47885   0.62664   0.24139   0.00000  Uiso   1.00
C110   C     0.42791   0.45557   0.31688   0.00000  Uiso   1.00
C111   C     0.43205   0.44550   0.37011   0.00000  Uiso   1.00
C112   C     0.47281   0.39783   0.36676   0.00000  Uiso   1.00
C113   C     0.34557   0.47325   0.27479   0.00000  Uiso   1.00
C114   C     0.28048   0.47805   0.29263   0.00000  Uiso   1.00
C115   C     0.25190   0.44526   0.25385   0.00000  Uiso   1.00
H116   H     0.47887   0.41014   0.16712   0.00000  Uiso   1.00
H117   H     0.53545   0.50055   0.13051   0.00000  Uiso   1.00
H118   H     0.53130   0.34357   0.21652   0.00000  Uiso   1.00
H119   H     0.37975   0.37611   0.13905   0.00000  Uiso   1.00
H120   H     0.58262   0.61679   0.11403   0.00000  Uiso   1.00
H121   H     0.57386   0.28577   0.29539   0.00000  Uiso   1.00
H122   H     0.25428   0.35439   0.13203   0.00000  Uiso   1.00
H123   H     0.35887   0.53338   0.35279   0.00000  Uiso   1.00
H124   H     0.40886   0.63056   0.32638   0.00000  Uiso   1.00
H125   H     0.40471   0.47358   0.41239   0.00000  Uiso   1.00
H126   H     0.25316   0.50612   0.33492   0.00000  Uiso   1.00
H127   H     0.47987   0.72231   0.27300   0.00000  Uiso   1.00
H128   H     0.47111   0.39128   0.45436   0.00000  Uiso   1.00
H129   H     0.15154   0.45991   0.29100   0.00000  Uiso   1.00
O130   O     0.56631   0.73125   0.17280   0.00000  Uiso   1.00
O131   O     0.55481   0.29695   0.41073   0.00000  Uiso   1.00
O132   O     0.13554   0.38699   0.19641   0.00000  Uiso   1.00
N133   N     0.55157   0.62829   0.15507   0.00000  Uiso   1.00
N134   N     0.54339   0.31881   0.32463   0.00000  Uiso   1.00
N135   N     0.24461   0.38295   0.17191   0.00000  Uiso   1.00
N136   N     0.49628   0.68507   0.24061   0.00000  Uiso   1.00
N137   N     0.48810   0.37559   0.41017   0.00000  Uiso   1.00
N138   N     0.18932   0.43973   0.25745   0.00000  Uiso   1.00
C139   C     0.54022   0.89034   0.72451   0.00000  Uiso   1.00
C140   C     0.53030   0.95134   0.71062   0.00000  Uiso   1.00
C141   C     0.55945   0.00309   0.72642   0.00000  Uiso   1.00
C142   C     0.54407   0.05436   0.70957   0.00000  Uiso   1.00
C143   C     0.53523   0.14915   0.69277   0.00000  Uiso   1.00
C144   C     0.56072   0.84502   0.66498   0.00000  Uiso   1.00
C145   C     0.61544   0.80736   0.64242   0.00000  Uiso   1.00
C146   C     0.62566   0.76911   0.58716   0.00000  Uiso   1.00
C147   C     0.66401   0.69880   0.49953   0.00000  Uiso   1.00
C148   C     0.47543   0.87400   0.75814   0.00000  Uiso   1.00
C149   C     0.45844   0.86070   0.81391   0.00000  Uiso   1.00
C150   C     0.39685   0.84684   0.83707   0.00000  Uiso   1.00
C151   C     0.30278   0.82154   0.89409   0.00000  Uiso   1.00
C152   C     0.46108   0.88938   0.66647   0.00000  Uiso   1.00
C153   C     0.48731   0.95082   0.67910   0.00000  Uiso   1.00
C154   C     0.47188   0.00203   0.66222   0.00000  Uiso   1.00
C155   C     0.50101   0.05384   0.67799   0.00000  Uiso   1.00
C156   C     0.51773   0.84449   0.63346   0.00000  Uiso   1.00
C157   C     0.52787   0.80629   0.57822   0.00000  Uiso   1.00
C158   C     0.58259   0.76859   0.55558   0.00000  Uiso   1.00
C159   C     0.43243   0.87348   0.72662   0.00000  Uiso   1.00
C160   C     0.37087   0.85964   0.74970   0.00000  Uiso   1.00
C161   C     0.35378   0.84632   0.80549   0.00000  Uiso   1.00
H162   H     0.57370   0.89074   0.74904   0.00000  Uiso   1.00
H163   H     0.59272   0.00347   0.75081   0.00000  Uiso   1.00
H164   H     0.64869   0.80777   0.66683   0.00000  Uiso   1.00
H165   H     0.49172   0.86111   0.83829   0.00000  Uiso   1.00
H166   H     0.59487   0.12821   0.73885   0.00000  Uiso   1.00
H167   H     0.71288   0.71554   0.56178   0.00000  Uiso   1.00
H168   H     0.38187   0.82802   0.92333   0.00000  Uiso   1.00
H169   H     0.42761   0.88897   0.64193   0.00000  Uiso   1.00
H170   H     0.43861   0.00161   0.63782   0.00000  Uiso   1.00
H171   H     0.49459   0.80590   0.55384   0.00000  Uiso   1.00
H172   H     0.33761   0.85924   0.72530   0.00000  Uiso   1.00
H173   H     0.46980   0.12670   0.64714   0.00000  Uiso   1.00
H174   H     0.58781   0.71403   0.47007   0.00000  Uiso   1.00
H175   H     0.25679   0.82650   0.83162   0.00000  Uiso   1.00
O176   O     0.54223   0.20158   0.69221   0.00000  Uiso   1.00
O177   O     0.69705   0.66016   0.45991   0.00000  Uiso   1.00
O178   O     0.26276   0.80773   0.93425   0.00000  Uiso   1.00
N179   N     0.56392   0.11240   0.71784   0.00000  Uiso   1.00
N180   N     0.67425   0.72659   0.55229   0.00000  Uiso   1.00
N181   N     0.36479   0.83173   0.89030   0.00000  Uiso   1.00
N182   N     0.49661   0.11159   0.66849   0.00000  Uiso   1.00
N183   N     0.60695   0.72577   0.50294   0.00000  Uiso   1.00
N184   N     0.29748   0.83091   0.84095   0.00000  Uiso   1.00
C185   C     0.79284   0.88050   0.81681   0.00000  Uiso   1.00
C186   C     0.74794   0.92376   0.87027   0.00000  Uiso   1.00
C187   C     0.68293   0.92484   0.88767   0.00000  Uiso   1.00
C188   C     0.65024   0.96787   0.93785   0.00000  Uiso   1.00
C189   C     0.57577   0.02887   0.01607   0.00000  Uiso   1.00
C190   C     0.83617   0.84883   0.84093   0.00000  Uiso   1.00
C191   C     0.84536   0.78690   0.83365   0.00000  Uiso   1.00
C192   C     0.88695   0.76685   0.85913   0.00000  Uiso   1.00
C193   C     0.94950   0.71151   0.89177   0.00000  Uiso   1.00
C194   C     0.83383   0.91997   0.77910   0.00000  Uiso   1.00
C195   C     0.84107   0.91784   0.71982   0.00000  Uiso   1.00
C196   C     0.88070   0.95768   0.69323   0.00000  Uiso   1.00
C197   C     0.93962   0.01280   0.62986   0.00000  Uiso   1.00
C198   C     0.85038   0.95502   0.87499   0.00000  Uiso   1.00
C199   C     0.77919   0.96424   0.90188   0.00000  Uiso   1.00
C200   C     0.74659   0.00728   0.95204   0.00000  Uiso   1.00
C201   C     0.68155   0.00842   0.96951   0.00000  Uiso   1.00
C202   C     0.86742   0.88930   0.87254   0.00000  Uiso   1.00
C203   C     0.90902   0.86934   0.89803   0.00000  Uiso   1.00
C204   C     0.91826   0.80740   0.89079   0.00000  Uiso   1.00
C205   C     0.86509   0.96044   0.81070   0.00000  Uiso   1.00
C206   C     0.90472   0.00029   0.78420   0.00000  Uiso   1.00
C207   C     0.91201   0.99823   0.72489   0.00000  Uiso   1.00
H208   H     0.76851   0.84899   0.79220   0.00000  Uiso   1.00
H209   H     0.65876   0.89350   0.86320   0.00000  Uiso   1.00
H210   H     0.82117   0.75559   0.80919   0.00000  Uiso   1.00
H211   H     0.81687   0.88652   0.69538   0.00000  Uiso   1.00
H212   H     0.55088   0.96069   0.95586   0.00000  Uiso   1.00
H213   H     0.89333   0.66989   0.84196   0.00000  Uiso   1.00
H214   H     0.88428   0.94597   0.60196   0.00000  Uiso   1.00
H215   H     0.87471   0.98653   0.89960   0.00000  Uiso   1.00
H216   H     0.77079   0.03860   0.97649   0.00000  Uiso   1.00
H217   H     0.93320   0.90068   0.92248   0.00000  Uiso   1.00
H218   H     0.92890   0.03160   0.80867   0.00000  Uiso   1.00
H219   H     0.64180   0.07845   0.04782   0.00000  Uiso   1.00
H220   H     0.98426   0.78765   0.93391   0.00000  Uiso   1.00
H221   H     0.97520   0.06373   0.69392   0.00000  Uiso   1.00
O222   O     0.52607   0.05133   0.05049   0.00000  Uiso   1.00
O223   O     0.97536   0.66981   0.90105   0.00000  Uiso   1.00
O224   O     0.96348   0.03202   0.58618   0.00000  Uiso   1.00
N225   N     0.58654   0.98127   0.96694   0.00000  Uiso   1.00
N226   N     0.90670   0.70939   0.86046   0.00000  Uiso   1.00
N227   N     0.89825   0.96749   0.63608   0.00000  Uiso   1.00
N228   N     0.63546   0.04464   0.01642   0.00000  Uiso   1.00
N229   N     0.95563   0.77275   0.90994   0.00000  Uiso   1.00
N230   N     0.94718   0.03086   0.68556   0.00000  Uiso   1.00
C231   C     0.72876   0.94833   0.60661   0.00000  Uiso   1.00
C232   C     0.74119   0.99509   0.65623   0.00000  Uiso   1.00
C233   C     0.72090   0.99422   0.71608   0.00000  Uiso   1.00
C234   C     0.73714   0.04111   0.75445   0.00000  Uiso   1.00
C235   C     0.75110   0.10669   0.83466   0.00000  Uiso   1.00
C236   C     0.79298   0.92483   0.56235   0.00000  Uiso   1.00
C237   C     0.81622   0.86487   0.54326   0.00000  Uiso   1.00
C238   C     0.87605   0.85262   0.50259   0.00000  Uiso   1.00
C239   C     0.97040   0.80910   0.43701   0.00000  Uiso   1.00
C240   C     0.69660   0.98322   0.57502   0.00000  Uiso   1.00
C241   C     0.63882   0.97234   0.56657   0.00000  Uiso   1.00
C242   C     0.61752   0.00924   0.53656   0.00000  Uiso   1.00
C243   C     0.56223   0.05638   0.49066   0.00000  Uiso   1.00
C244   C     0.79367   0.03317   0.56833   0.00000  Uiso   1.00
C245   C     0.77645   0.04117   0.63543   0.00000  Uiso   1.00
C246   C     0.79272   0.08808   0.67373   0.00000  Uiso   1.00
C247   C     0.77245   0.08728   0.73362   0.00000  Uiso   1.00
C248   C     0.82823   0.97091   0.54155   0.00000  Uiso   1.00
C249   C     0.88804   0.95874   0.50091   0.00000  Uiso   1.00
C250   C     0.91137   0.89878   0.48176   0.00000  Uiso   1.00
C251   C     0.73186   0.02930   0.55423   0.00000  Uiso   1.00
C252   C     0.71064   0.06621   0.52422   0.00000  Uiso   1.00
C253   C     0.65284   0.05540   0.51573   0.00000  Uiso   1.00
H254   H     0.70131   0.91246   0.62279   0.00000  Uiso   1.00
H255   H     0.69362   0.95855   0.73215   0.00000  Uiso   1.00
H256   H     0.78893   0.82922   0.55935   0.00000  Uiso   1.00
H257   H     0.61155   0.93668   0.58266   0.00000  Uiso   1.00
H258   H     0.70066   0.02996   0.84422   0.00000  Uiso   1.00
H259   H     0.90161   0.75727   0.47985   0.00000  Uiso   1.00
H260   H     0.52758   0.98386   0.52901   0.00000  Uiso   1.00
H261   H     0.82112   0.06905   0.55214   0.00000  Uiso   1.00
H262   H     0.82000   0.12374   0.65762   0.00000  Uiso   1.00
H263   H     0.91531   0.99441   0.48482   0.00000  Uiso   1.00
H264   H     0.73794   0.10187   0.50814   0.00000  Uiso   1.00
H265   H     0.80324   0.16403   0.78373   0.00000  Uiso   1.00
H266   H     0.00419   0.89134   0.41936   0.00000  Uiso   1.00
H267   H     0.63016   0.11794   0.46852   0.00000  Uiso   1.00
O268   O     0.74907   0.13013   0.88464   0.00000  Uiso   1.00
O269   O     0.01270   0.77237   0.40659   0.00000  Uiso   1.00
O270   O     0.52199   0.06966   0.47109   0.00000  Uiso   1.00
N271   N     0.72494   0.05401   0.81551   0.00000  Uiso   1.00
N272   N     0.91282   0.79906   0.47485   0.00000  Uiso   1.00
N273   N     0.56315   0.01090   0.52080   0.00000  Uiso   1.00
N274   N     0.78014   0.12616   0.78296   0.00000  Uiso   1.00
N275   N     0.96802   0.87121   0.44230   0.00000  Uiso   1.00
N276   N     0.61835   0.08305   0.48825   0.00000  Uiso   1.00
C277   C     0.19279   0.62710   0.06086   0.00000  Uiso   1.00
C278   C     0.25511   0.60760   0.06703   0.00000  Uiso   1.00
C279   C     0.31418   0.61706   0.03164   0.00000  Uiso   1.00
C280   C     0.36540   0.59580   0.04446   0.00000  Uiso   1.00
C281   C     0.46333   0.57005   0.04698   0.00000  Uiso   1.00
C282   C     0.15572   0.66632   0.12101   0.00000  Uiso   1.00
C283   C     0.13121   0.72515   0.13100   0.00000  Uiso   1.00
C284   C     0.09874   0.75332   0.18926   0.00000  Uiso   1.00
C285   C     0.04232   0.81872   0.27559   0.00000  Uiso   1.00
C286   C     0.15789   0.57000   0.05326   0.00000  Uiso   1.00
C287   C     0.13520   0.54785   0.00628   0.00000  Uiso   1.00
C288   C     0.10455   0.49493   0.00750   0.00000  Uiso   1.00
C289   C     0.05150   0.41078   0.98862   0.00000  Uiso   1.00
C290   C     0.17870   0.57254   0.14655   0.00000  Uiso   1.00
C291   C     0.24745   0.57796   0.11358   0.00000  Uiso   1.00
C292   C     0.29859   0.55668   0.12645   0.00000  Uiso   1.00
C293   C     0.35773   0.56610   0.09108   0.00000  Uiso   1.00
C294   C     0.14806   0.63669   0.16756   0.00000  Uiso   1.00
C295   C     0.11562   0.66477   0.22582   0.00000  Uiso   1.00
C296   C     0.09108   0.72363   0.23589   0.00000  Uiso   1.00
C297   C     0.15024   0.54036   0.09980   0.00000  Uiso   1.00
C298   C     0.11961   0.48747   0.10109   0.00000  Uiso   1.00
C299   C     0.09688   0.46524   0.05413   0.00000  Uiso   1.00
H300   H     0.19875   0.65018   0.02462   0.00000  Uiso   1.00
H301   H     0.32009   0.64000   0.99563   0.00000  Uiso   1.00
H302   H     0.13714   0.74807   0.09497   0.00000  Uiso   1.00
H303   H     0.14113   0.57080   0.97027   0.00000  Uiso   1.00
H304   H     0.45124   0.61566   0.98402   0.00000  Uiso   1.00
H305   H     0.06546   0.84352   0.19350   0.00000  Uiso   1.00
H306   H     0.07387   0.46971   0.93053   0.00000  Uiso   1.00
H307   H     0.17274   0.54946   0.18279   0.00000  Uiso   1.00
H308   H     0.29266   0.53375   0.16248   0.00000  Uiso   1.00
H309   H     0.10970   0.64182   0.26182   0.00000  Uiso   1.00
H310   H     0.11370   0.46455   0.13712   0.00000  Uiso   1.00
H311   H     0.42898   0.52942   0.11944   0.00000  Uiso   1.00
H312   H     0.04319   0.75729   0.32892   0.00000  Uiso   1.00
H313   H     0.05161   0.38348   0.06595   0.00000  Uiso   1.00
O314   O     0.51946   0.56404   0.03553   0.00000  Uiso   1.00
O315   O     0.01332   0.86298   0.31035   0.00000  Uiso   1.00
O316   O     0.02436   0.37255   0.96534   0.00000  Uiso   1.00
N317   N     0.42954   0.59751   0.01867   0.00000  Uiso   1.00
N318   N     0.06887   0.81055   0.21452   0.00000  Uiso   1.00
N319   N     0.07672   0.46108   0.96868   0.00000  Uiso   1.00
N320   N     0.41756   0.55111   0.09154   0.00000  Uiso   1.00
N321   N     0.05689   0.76415   0.28739   0.00000  Uiso   1.00
N322   N     0.06474   0.41467   0.04155   0.00000  Uiso   1.00
C323   C     0.31758   0.54297   0.84894   0.00000  Uiso   1.00
C324   C     0.30093   0.49530   0.88593   0.00000  Uiso   1.00
C325   C     0.33089   0.48343   0.92513   0.00000  Uiso   1.00
C326   C     0.30862   0.43803   0.95476   0.00000  Uiso   1.00
C327   C     0.29042   0.36896   0.01363   0.00000  Uiso   1.00
C328   C     0.25765   0.58328   0.86462   0.00000  Uiso   1.00
C329   C     0.25124   0.64538   0.88590   0.00000  Uiso   1.00
C330   C     0.19254   0.67403   0.89759   0.00000  Uiso   1.00
C331   C     0.10716   0.74155   0.92333   0.00000  Uiso   1.00
C332   C     0.33054   0.50953   0.78456   0.00000  Uiso   1.00
C333   C     0.38540   0.50962   0.73851   0.00000  Uiso   1.00
C334   C     0.38806   0.47619   0.68279   0.00000  Uiso   1.00
C335   C     0.41585   0.42920   0.58423   0.00000  Uiso   1.00
C336   C     0.22476   0.48344   0.83185   0.00000  Uiso   1.00
C337   C     0.25051   0.46297   0.87665   0.00000  Uiso   1.00
C338   C     0.22819   0.41757   0.90622   0.00000  Uiso   1.00
C339   C     0.25812   0.40563   0.94546   0.00000  Uiso   1.00
C340   C     0.20724   0.55095   0.85534   0.00000  Uiso   1.00
C341   C     0.14854   0.57952   0.86699   0.00000  Uiso   1.00
C342   C     0.14203   0.64164   0.88829   0.00000  Uiso   1.00
C343   C     0.28012   0.47719   0.77527   0.00000  Uiso   1.00
C344   C     0.28270   0.44376   0.71961   0.00000  Uiso   1.00
C345   C     0.33755   0.44380   0.67349   0.00000  Uiso   1.00
H346   H     0.35683   0.56814   0.85617   0.00000  Uiso   1.00
H347   H     0.36990   0.50847   0.93231   0.00000  Uiso   1.00
H348   H     0.29026   0.67038   0.89308   0.00000  Uiso   1.00
H349   H     0.42440   0.53465   0.74572   0.00000  Uiso   1.00
H350   H     0.36215   0.42806   0.01265   0.00000  Uiso   1.00
H351   H     0.19423   0.76948   0.92990   0.00000  Uiso   1.00
H352   H     0.47709   0.48326   0.61917   0.00000  Uiso   1.00
H353   H     0.18550   0.45827   0.82462   0.00000  Uiso   1.00
H354   H     0.18917   0.39256   0.89903   0.00000  Uiso   1.00
H355   H     0.10953   0.55448   0.85980   0.00000  Uiso   1.00
H356   H     0.24368   0.41874   0.71244   0.00000  Uiso   1.00
H357   H     0.21546   0.33399   0.98564   0.00000  Uiso   1.00
H358   H     0.04754   0.67541   0.90289   0.00000  Uiso   1.00
H359   H     0.33041   0.38918   0.59216   0.00000  Uiso   1.00
O360   O     0.29430   0.33980   0.04868   0.00000  Uiso   1.00
O361   O     0.07400   0.78773   0.94011   0.00000  Uiso   1.00
O362   O     0.44511   0.41221   0.53243   0.00000  Uiso   1.00
N363   N     0.32713   0.41493   0.99607   0.00000  Uiso   1.00
N364   N     0.17013   0.73414   0.91872   0.00000  Uiso   1.00
N365   N     0.43458   0.46655   0.62820   0.00000  Uiso   1.00
N366   N     0.24820   0.36431   0.98154   0.00000  Uiso   1.00
N367   N     0.09120   0.68352   0.90419   0.00000  Uiso   1.00
N368   N     0.35565   0.41593   0.61367   0.00000  Uiso   1.00
C369   C     0.54862   0.56163   0.79034   0.00000  Uiso   1.00
C370   C     0.53453   0.49541   0.78449   0.00000  Uiso   1.00
C371   C     0.49187   0.47136   0.82721   0.00000  Uiso   1.00
C372   C     0.48577   0.40969   0.81334   0.00000  Uiso   1.00
C373   C     0.45849   0.31240   0.81255   0.00000  Uiso   1.00
C374   C     0.53677   0.58070   0.73775   0.00000  Uiso   1.00
C375   C     0.49602   0.62837   0.74119   0.00000  Uiso   1.00
C376   C     0.49181   0.63850   0.68798   0.00000  Uiso   1.00
C377   C     0.46806   0.67364   0.61463   0.00000  Uiso   1.00
C378   C     0.61911   0.56301   0.77985   0.00000  Uiso   1.00
C379   C     0.64759   0.59583   0.81867   0.00000  Uiso   1.00
C380   C     0.71272   0.59107   0.80089   0.00000  Uiso   1.00
C381   C     0.81680   0.59876   0.79290   0.00000  Uiso   1.00
C382   C     0.61364   0.49486   0.68975   0.00000  Uiso   1.00
C383   C     0.56984   0.45914   0.72985   0.00000  Uiso   1.00
C384   C     0.56381   0.39749   0.71591   0.00000  Uiso   1.00
C385   C     0.52115   0.37336   0.75861   0.00000  Uiso   1.00
C386   C     0.57209   0.54443   0.68312   0.00000  Uiso   1.00
C387   C     0.56795   0.55450   0.62989   0.00000  Uiso   1.00
C388   C     0.52719   0.60217   0.63324   0.00000  Uiso   1.00
C389   C     0.65443   0.52675   0.72521   0.00000  Uiso   1.00
C390   C     0.71952   0.52195   0.70737   0.00000  Uiso   1.00
C391   C     0.74810   0.55474   0.74615   0.00000  Uiso   1.00
H392   H     0.52113   0.58986   0.83288   0.00000  Uiso   1.00
H393   H     0.46455   0.49945   0.86949   0.00000  Uiso   1.00
H394   H     0.46870   0.65643   0.78348   0.00000  Uiso   1.00
H395   H     0.62025   0.62389   0.86095   0.00000  Uiso   1.00
H396   H     0.41738   0.38321   0.88597   0.00000  Uiso   1.00
H397   H     0.42614   0.71423   0.70461   0.00000  Uiso   1.00
H398   H     0.74572   0.64561   0.86797   0.00000  Uiso   1.00
H399   H     0.64113   0.46662   0.64721   0.00000  Uiso   1.00
H400   H     0.59114   0.36944   0.67362   0.00000  Uiso   1.00
H401   H     0.59529   0.52642   0.58761   0.00000  Uiso   1.00
H402   H     0.74684   0.49388   0.66508   0.00000  Uiso   1.00
H403   H     0.52013   0.27769   0.72700   0.00000  Uiso   1.00
H404   H     0.52889   0.60872   0.54564   0.00000  Uiso   1.00
H405   H     0.84846   0.54009   0.70900   0.00000  Uiso   1.00
O406   O     0.43369   0.26875   0.82720   0.00000  Uiso   1.00
O407   O     0.44519   0.70305   0.58927   0.00000  Uiso   1.00
O408   O     0.86446   0.61301   0.80359   0.00000  Uiso   1.00
N409   N     0.44843   0.37171   0.84493   0.00000  Uiso   1.00
N410   N     0.45661   0.68119   0.67537   0.00000  Uiso   1.00
N411   N     0.75539   0.61705   0.82809   0.00000  Uiso   1.00
N412   N     0.50372   0.31493   0.75939   0.00000  Uiso   1.00
N413   N     0.51190   0.62441   0.58983   0.00000  Uiso   1.00
N414   N     0.81068   0.56027   0.74255   0.00000  Uiso   1.00
C415   C     0.45978   0.10966   0.27549   0.00000  Uiso   1.00
C416   C     0.46970   0.04866   0.28938   0.00000  Uiso   1.00
C417   C     0.44055   0.99691   0.27358   0.00000  Uiso   1.00
C418   C     0.45593   0.94564   0.29043   0.00000  Uiso   1.00
C419   C     0.46477   0.85085   0.30723   0.00000  Uiso   1.00
C420   C     0.43928   0.15498   0.33502   0.00000  Uiso   1.00
C421   C     0.38456   0.19264   0.35758   0.00000  Uiso   1.00
C422   C     0.37434   0.23089   0.41284   0.00000  Uiso   1.00
C423   C     0.33599   0.30120   0.50047   0.00000  Uiso   1.00
C424   C     0.52457   0.12600   0.24186   0.00000  Uiso   1.00
C425   C     0.54156   0.13930   0.18609   0.00000  Uiso   1.00
C426   C     0.60315   0.15316   0.16293   0.00000  Uiso   1.00
C427   C     0.69722   0.17846   0.10591   0.00000  Uiso   1.00
C428   C     0.53892   0.11062   0.33353   0.00000  Uiso   1.00
C429   C     0.51269   0.04918   0.32090   0.00000  Uiso   1.00
C430   C     0.52812   0.99797   0.33778   0.00000  Uiso   1.00
C431   C     0.49899   0.94616   0.32201   0.00000  Uiso   1.00
C432   C     0.48227   0.15551   0.36654   0.00000  Uiso   1.00
C433   C     0.47213   0.19371   0.42178   0.00000  Uiso   1.00
C434   C     0.41741   0.23141   0.44442   0.00000  Uiso   1.00
C435   C     0.56757   0.12652   0.27338   0.00000  Uiso   1.00
C436   C     0.62913   0.14036   0.25030   0.00000  Uiso   1.00
C437   C     0.64622   0.15368   0.19451   0.00000  Uiso   1.00
H438   H     0.42630   0.10926   0.25096   0.00000  Uiso   1.00
H439   H     0.40728   0.99653   0.24919   0.00000  Uiso   1.00
H440   H     0.35131   0.19223   0.33317   0.00000  Uiso   1.00
H441   H     0.50828   0.13889   0.16171   0.00000  Uiso   1.00
H442   H     0.40513   0.87179   0.26115   0.00000  Uiso   1.00
H443   H     0.28712   0.28446   0.43822   0.00000  Uiso   1.00
H444   H     0.61813   0.17198   0.07667   0.00000  Uiso   1.00
H445   H     0.57239   0.11103   0.35807   0.00000  Uiso   1.00
H446   H     0.56139   0.99839   0.36218   0.00000  Uiso   1.00
H447   H     0.50541   0.19410   0.44616   0.00000  Uiso   1.00
H448   H     0.66239   0.14076   0.27470   0.00000  Uiso   1.00
H449   H     0.53020   0.87330   0.35286   0.00000  Uiso   1.00
H450   H     0.41219   0.28597   0.52993   0.00000  Uiso   1.00
H451   H     0.74321   0.17350   0.16838   0.00000  Uiso   1.00
O452   O     0.45777   0.79842   0.30779   0.00000  Uiso   1.00
O453   O     0.30295   0.33984   0.54009   0.00000  Uiso   1.00
O454   O     0.73724   0.19227   0.06575   0.00000  Uiso   1.00
N455   N     0.43608   0.88760   0.28216   0.00000  Uiso   1.00
N456   N     0.32575   0.27341   0.44771   0.00000  Uiso   1.00
N457   N     0.63521   0.16827   0.10970   0.00000  Uiso   1.00
N458   N     0.50339   0.88841   0.33151   0.00000  Uiso   1.00
N459   N     0.39305   0.27423   0.49706   0.00000  Uiso   1.00
N460   N     0.70252   0.16909   0.15905   0.00000  Uiso   1.00
C461   C     0.20716   0.11950   0.18319   0.00000  Uiso   1.00
C462   C     0.25206   0.07624   0.12973   0.00000  Uiso   1.00
C463   C     0.31707   0.07516   0.11233   0.00000  Uiso   1.00
C464   C     0.34976   0.03213   0.06215   0.00000  Uiso   1.00
C465   C     0.42423   0.97113   0.98393   0.00000  Uiso   1.00
C466   C     0.16383   0.15117   0.15907   0.00000  Uiso   1.00
C467   C     0.15464   0.21310   0.16635   0.00000  Uiso   1.00
C468   C     0.11305   0.23315   0.14087   0.00000  Uiso   1.00
C469   C     0.05050   0.28849   0.10823   0.00000  Uiso   1.00
C470   C     0.16617   0.08003   0.22090   0.00000  Uiso   1.00
C471   C     0.15893   0.08216   0.28018   0.00000  Uiso   1.00
C472   C     0.11930   0.04232   0.30677   0.00000  Uiso   1.00
C473   C     0.06038   0.98720   0.37014   0.00000  Uiso   1.00
C474   C     0.14962   0.04498   0.12501   0.00000  Uiso   1.00
C475   C     0.22081   0.03576   0.09812   0.00000  Uiso   1.00
C476   C     0.25341   0.99272   0.04796   0.00000  Uiso   1.00
C477   C     0.31845   0.99158   0.03049   0.00000  Uiso   1.00
C478   C     0.13258   0.11070   0.12746   0.00000  Uiso   1.00
C479   C     0.09098   0.13066   0.10197   0.00000  Uiso   1.00
C480   C     0.08174   0.19260   0.10921   0.00000  Uiso   1.00
C481   C     0.13491   0.03956   0.18930   0.00000  Uiso   1.00
C482   C     0.09528   0.99971   0.21580   0.00000  Uiso   1.00
C483   C     0.08799   0.00177   0.27511   0.00000  Uiso   1.00
H484   H     0.23149   0.15101   0.20780   0.00000  Uiso   1.00
H485   H     0.34124   0.10650   0.13680   0.00000  Uiso   1.00
H486   H     0.17883   0.24441   0.19081   0.00000  Uiso   1.00
H487   H     0.18313   0.11348   0.30462   0.00000  Uiso   1.00
H488   H     0.44912   0.03931   0.04414   0.00000  Uiso   1.00
H489   H     0.10667   0.33011   0.15804   0.00000  Uiso   1.00
H490   H     0.11572   0.05403   0.39804   0.00000  Uiso   1.00
H491   H     0.12529   0.01347   0.10040   0.00000  Uiso   1.00
H492   H     0.22921   0.96140   0.02351   0.00000  Uiso   1.00
H493   H     0.06680   0.09932   0.07752   0.00000  Uiso   1.00
H494   H     0.07110   0.96840   0.19133   0.00000  Uiso   1.00
H495   H     0.35820   0.92155   0.95218   0.00000  Uiso   1.00
H496   H     0.01574   0.21235   0.06609   0.00000  Uiso   1.00
H497   H     0.02480   0.93627   0.30608   0.00000  Uiso   1.00
O498   O     0.47393   0.94867   0.94951   0.00000  Uiso   1.00
O499   O     0.02464   0.33019   0.09895   0.00000  Uiso   1.00
O500   O     0.03652   0.96798   0.41382   0.00000  Uiso   1.00
N501   N     0.41346   0.01873   0.03306   0.00000  Uiso   1.00
N502   N     0.09330   0.29061   0.13954   0.00000  Uiso   1.00
N503   N     0.10175   0.03251   0.36392   0.00000  Uiso   1.00
N504   N     0.36454   0.95536   0.98358   0.00000  Uiso   1.00
N505   N     0.04437   0.22725   0.09006   0.00000  Uiso   1.00
N506   N     0.05282   0.96914   0.31444   0.00000  Uiso   1.00
C507   C     0.27124   0.05167   0.39339   0.00000  Uiso   1.00
C508   C     0.25881   0.00491   0.34377   0.00000  Uiso   1.00
C509   C     0.27910   0.00578   0.28392   0.00000  Uiso   1.00
C510   C     0.26286   0.95889   0.24555   0.00000  Uiso   1.00
C511   C     0.24890   0.89331   0.16534   0.00000  Uiso   1.00
C512   C     0.20702   0.07517   0.43765   0.00000  Uiso   1.00
C513   C     0.18378   0.13513   0.45674   0.00000  Uiso   1.00
C514   C     0.12395   0.14738   0.49741   0.00000  Uiso   1.00
C515   C     0.02960   0.19090   0.56299   0.00000  Uiso   1.00
C516   C     0.30340   0.01678   0.42498   0.00000  Uiso   1.00
C517   C     0.36118   0.02766   0.43343   0.00000  Uiso   1.00
C518   C     0.38248   0.99076   0.46344   0.00000  Uiso   1.00
C519   C     0.43777   0.94362   0.50934   0.00000  Uiso   1.00
C520   C     0.20633   0.96683   0.43167   0.00000  Uiso   1.00
C521   C     0.22355   0.95883   0.36457   0.00000  Uiso   1.00
C522   C     0.20728   0.91192   0.32627   0.00000  Uiso   1.00
C523   C     0.22755   0.91272   0.26638   0.00000  Uiso   1.00
C524   C     0.17177   0.02909   0.45845   0.00000  Uiso   1.00
C525   C     0.11196   0.04126   0.49909   0.00000  Uiso   1.00
C526   C     0.08863   0.10122   0.51824   0.00000  Uiso   1.00
C527   C     0.26814   0.97070   0.44577   0.00000  Uiso   1.00
C528   C     0.28936   0.93379   0.47578   0.00000  Uiso   1.00
C529   C     0.34716   0.94460   0.48427   0.00000  Uiso   1.00
H530   H     0.29869   0.08754   0.37721   0.00000  Uiso   1.00
H531   H     0.30638   0.04145   0.26785   0.00000  Uiso   1.00
H532   H     0.21107   0.17078   0.44065   0.00000  Uiso   1.00
H533   H     0.38845   0.06332   0.41734   0.00000  Uiso   1.00
H534   H     0.29934   0.97004   0.15578   0.00000  Uiso   1.00
H535   H     0.09839   0.24273   0.52015   0.00000  Uiso   1.00
H536   H     0.47242   0.01614   0.47099   0.00000  Uiso   1.00
H537   H     0.17888   0.93095   0.44786   0.00000  Uiso   1.00
H538   H     0.18000   0.87626   0.34238   0.00000  Uiso   1.00
H539   H     0.08469   0.00559   0.51518   0.00000  Uiso   1.00
H540   H     0.26206   0.89813   0.49186   0.00000  Uiso   1.00
H541   H     0.19676   0.83597   0.21627   0.00000  Uiso   1.00
H542   H     0.99581   0.10866   0.58064   0.00000  Uiso   1.00
H543   H     0.36984   0.88206   0.53148   0.00000  Uiso   1.00
O544   O     0.25093   0.86987   0.11536   0.00000  Uiso   1.00
O545   O     0.98730   0.22763   0.59341   0.00000  Uiso   1.00
O546   O     0.47801   0.93034   0.52891   0.00000  Uiso   1.00
N547   N     0.27506   0.94599   0.18449   0.00000  Uiso   1.00
N548   N     0.08718   0.20094   0.52515   0.00000  Uiso   1.00
N549   N     0.43685   0.98910   0.47920   0.00000  Uiso   1.00
N550   N     0.21986   0.87384   0.21704   0.00000  Uiso   1.00
N551   N     0.03198   0.12879   0.55770   0.00000  Uiso   1.00
N552   N     0.38165   0.91695   0.51175   0.00000  Uiso   1.00
