data_job_01266
_audit_creation_date              2018-12-19
_audit_creation_method            'Materials Studio'
_symmetry_space_group_name_H-M    'P1'
_symmetry_Int_Tables_number       1
_symmetry_cell_setting            triclinic
loop_
_symmetry_equiv_pos_as_xyz
  x,y,z
_cell_length_a                    11.8826
_cell_length_b                    12.2503
_cell_length_c                    12.3684
_cell_angle_alpha                 79.1516
_cell_angle_beta                  103.9907
_cell_angle_gamma                 74.0064
loop_
_atom_site_label
_atom_site_type_symbol
_atom_site_fract_x
_atom_site_fract_y
_atom_site_fract_z
_atom_site_U_iso_or_equiv
_atom_site_adp_type
_atom_site_occupancy
C1     C     0.81761   0.76510   0.74263   0.00000  Uiso   1.00
C2     C     0.95730   0.71439   0.79627   0.00000  Uiso   1.00
C3     C     0.02227   0.70156   0.91006   0.00000  Uiso   1.00
C4     C     0.14971   0.65330   0.94234   0.00000  Uiso   1.00
C5     C     0.35746   0.57980   0.03760   0.00000  Uiso   1.00
C6     C     0.79193   0.86734   0.63797   0.00000  Uiso   1.00
C7     C     0.71784   0.98311   0.61865   0.00000  Uiso   1.00
C8     C     0.70606   0.06359   0.51766   0.00000  Uiso   1.00
C9     C     0.65700   0.22753   0.36711   0.00000  Uiso   1.00
C10    C     0.77954   0.67049   0.69426   0.00000  Uiso   1.00
C11    C     0.69500   0.62076   0.72225   0.00000  Uiso   1.00
C12    C     0.67276   0.53552   0.66864   0.00000  Uiso   1.00
C13    C     0.60446   0.39382   0.60549   0.00000  Uiso   1.00
C14    C     0.92842   0.70219   0.59761   0.00000  Uiso   1.00
C15    C     0.01748   0.68022   0.71750   0.00000  Uiso   1.00
C16    C     0.14486   0.63196   0.74962   0.00000  Uiso   1.00
C17    C     0.21000   0.61906   0.86343   0.00000  Uiso   1.00
C18    C     0.85211   0.83317   0.55920   0.00000  Uiso   1.00
C19    C     0.84043   0.91350   0.45821   0.00000  Uiso   1.00
C20    C     0.76635   0.02936   0.43875   0.00000  Uiso   1.00
C21    C     0.83972   0.63631   0.61550   0.00000  Uiso   1.00
C22    C     0.81760   0.55114   0.56182   0.00000  Uiso   1.00
C23    C     0.73305   0.50129   0.58972   0.00000  Uiso   1.00
H24    H     0.77075   0.79172   0.80395   0.00000  Uiso   1.00
H25    H     0.97566   0.72803   0.97099   0.00000  Uiso   1.00
H26    H     0.67127   0.00952   0.67962   0.00000  Uiso   1.00
H27    H     0.64845   0.64722   0.78321   0.00000  Uiso   1.00
H28    H     0.22938   0.64239   0.12144   0.00000  Uiso   1.00
H29    H     0.58753   0.23592   0.50705   0.00000  Uiso   1.00
H30    H     0.53939   0.47195   0.72549   0.00000  Uiso   1.00
H31    H     0.97527   0.67559   0.53628   0.00000  Uiso   1.00
H32    H     0.19141   0.60552   0.68864   0.00000  Uiso   1.00
H33    H     0.88702   0.88702   0.39727   0.00000  Uiso   1.00
H34    H     0.86419   0.52472   0.50087   0.00000  Uiso   1.00
H35    H     0.40449   0.54296   0.89227   0.00000  Uiso   1.00
H36    H     0.76263   0.13650   0.27788   0.00000  Uiso   1.00
H37    H     0.71449   0.37252   0.49633   0.00000  Uiso   1.00
O38    O     0.45542   0.54872   0.11190   0.00000  Uiso   1.00
O39    O     0.61332   0.32740   0.30584   0.00000  Uiso   1.00
O40    O     0.55017   0.32509   0.59244   0.00000  Uiso   1.00
N41    N     0.24093   0.62858   0.04660   0.00000  Uiso   1.00
N42    N     0.64085   0.18351   0.47219   0.00000  Uiso   1.00
N43    N     0.59582   0.46928   0.67640   0.00000  Uiso   1.00
N44    N     0.33515   0.57508   0.92329   0.00000  Uiso   1.00
N45    N     0.73507   0.13001   0.34888   0.00000  Uiso   1.00
N46    N     0.69004   0.41578   0.55308   0.00000  Uiso   1.00
C47    C     0.18239   0.23490   0.25737   0.00000  Uiso   1.00
C48    C     0.04270   0.28561   0.20373   0.00000  Uiso   1.00
C49    C     0.97773   0.29844   0.08994   0.00000  Uiso   1.00
C50    C     0.85029   0.34670   0.05766   0.00000  Uiso   1.00
C51    C     0.64254   0.42020   0.96240   0.00000  Uiso   1.00
C52    C     0.20807   0.13266   0.36203   0.00000  Uiso   1.00
C53    C     0.28216   0.01689   0.38135   0.00000  Uiso   1.00
C54    C     0.29394   0.93641   0.48234   0.00000  Uiso   1.00
C55    C     0.34300   0.77247   0.63289   0.00000  Uiso   1.00
C56    C     0.22046   0.32951   0.30574   0.00000  Uiso   1.00
C57    C     0.30500   0.37924   0.27775   0.00000  Uiso   1.00
C58    C     0.32724   0.46448   0.33136   0.00000  Uiso   1.00
C59    C     0.39554   0.60618   0.39451   0.00000  Uiso   1.00
C60    C     0.07158   0.29781   0.40239   0.00000  Uiso   1.00
C61    C     0.98252   0.31978   0.28250   0.00000  Uiso   1.00
C62    C     0.85514   0.36804   0.25038   0.00000  Uiso   1.00
C63    C     0.79000   0.38094   0.13657   0.00000  Uiso   1.00
C64    C     0.14789   0.16683   0.44080   0.00000  Uiso   1.00
C65    C     0.15957   0.08650   0.54179   0.00000  Uiso   1.00
C66    C     0.23365   0.97064   0.56125   0.00000  Uiso   1.00
C67    C     0.16028   0.36369   0.38450   0.00000  Uiso   1.00
C68    C     0.18240   0.44886   0.43818   0.00000  Uiso   1.00
C69    C     0.26695   0.49871   0.41028   0.00000  Uiso   1.00
H70    H     0.22925   0.20828   0.19605   0.00000  Uiso   1.00
H71    H     0.02434   0.27197   0.02901   0.00000  Uiso   1.00
H72    H     0.32873   0.99048   0.32038   0.00000  Uiso   1.00
H73    H     0.35155   0.35278   0.21679   0.00000  Uiso   1.00
H74    H     0.77062   0.35761   0.87856   0.00000  Uiso   1.00
H75    H     0.41247   0.76408   0.49295   0.00000  Uiso   1.00
H76    H     0.46061   0.52805   0.27451   0.00000  Uiso   1.00
H77    H     0.02473   0.32441   0.46372   0.00000  Uiso   1.00
H78    H     0.80859   0.39448   0.31136   0.00000  Uiso   1.00
H79    H     0.11298   0.11298   0.60273   0.00000  Uiso   1.00
H80    H     0.13581   0.47528   0.49913   0.00000  Uiso   1.00
H81    H     0.59551   0.45704   0.10773   0.00000  Uiso   1.00
H82    H     0.23737   0.86350   0.72212   0.00000  Uiso   1.00
H83    H     0.28551   0.62748   0.50367   0.00000  Uiso   1.00
O84    O     0.54458   0.45128   0.88810   0.00000  Uiso   1.00
O85    O     0.38668   0.67260   0.69416   0.00000  Uiso   1.00
O86    O     0.44983   0.67491   0.40756   0.00000  Uiso   1.00
N87    N     0.75907   0.37142   0.95340   0.00000  Uiso   1.00
N88    N     0.35915   0.81649   0.52781   0.00000  Uiso   1.00
N89    N     0.40418   0.53072   0.32360   0.00000  Uiso   1.00
N90    N     0.66485   0.42492   0.07671   0.00000  Uiso   1.00
N91    N     0.26493   0.86999   0.65112   0.00000  Uiso   1.00
N92    N     0.30996   0.58422   0.44692   0.00000  Uiso   1.00
