data_job_04220
_audit_creation_date              2018-12-19
_audit_creation_method            'Materials Studio'
_symmetry_space_group_name_H-M    'P1'
_symmetry_Int_Tables_number       1
_symmetry_cell_setting            triclinic
loop_
_symmetry_equiv_pos_as_xyz
  x,y,z
_cell_length_a                    16.9598
_cell_length_b                    16.9598
_cell_length_c                    9.1411
_cell_angle_alpha                 90.0000
_cell_angle_beta                  90.0000
_cell_angle_gamma                 90.0000
loop_
_atom_site_label
_atom_site_type_symbol
_atom_site_fract_x
_atom_site_fract_y
_atom_site_fract_z
_atom_site_U_iso_or_equiv
_atom_site_adp_type
_atom_site_occupancy
C1     C     0.46600   0.94601   0.32037   0.00000  Uiso   1.00
C2     C     0.52375   0.90409   0.21888   0.00000  Uiso   1.00
C3     C     0.60338   0.92130   0.20463   0.00000  Uiso   1.00
C4     C     0.64617   0.87619   0.10584   0.00000  Uiso   1.00
C5     C     0.74125   0.82027   0.96061   0.00000  Uiso   1.00
C6     C     0.39946   0.97608   0.22301   0.00000  Uiso   1.00
C7     C     0.37458   0.05383   0.21226   0.00000  Uiso   1.00
C8     C     0.31274   0.06931   0.11697   0.00000  Uiso   1.00
C9     C     0.21483   0.12515   0.97824   0.00000  Uiso   1.00
C10    C     0.42983   0.88198   0.41633   0.00000  Uiso   1.00
C11    C     0.43046   0.88061   0.56813   0.00000  Uiso   1.00
C12    C     0.39416   0.81687   0.63560   0.00000  Uiso   1.00
C13    C     0.34340   0.72660   0.79703   0.00000  Uiso   1.00
C14    C     0.40040   0.83527   0.17027   0.00000  Uiso   1.00
C15    C     0.48811   0.84394   0.13735   0.00000  Uiso   1.00
C16    C     0.53080   0.79878   0.03856   0.00000  Uiso   1.00
C17    C     0.61047   0.81593   0.02417   0.00000  Uiso   1.00
C18    C     0.36383   0.91594   0.14149   0.00000  Uiso   1.00
C19    C     0.30200   0.93131   0.04620   0.00000  Uiso   1.00
C20    C     0.27704   0.00905   0.03530   0.00000  Uiso   1.00
C21    C     0.39420   0.82183   0.33481   0.00000  Uiso   1.00
C22    C     0.35788   0.75809   0.40206   0.00000  Uiso   1.00
C23    C     0.35847   0.75661   0.55393   0.00000  Uiso   1.00
H24    H     0.49373   0.99284   0.38383   0.00000  Uiso   1.00
H25    H     0.63093   0.96786   0.26773   0.00000  Uiso   1.00
H26    H     0.40216   0.10036   0.27538   0.00000  Uiso   1.00
H27    H     0.45804   0.92716   0.63118   0.00000  Uiso   1.00
H28    H     0.76731   0.91366   0.10302   0.00000  Uiso   1.00
H29    H     0.28494   0.19303   0.11917   0.00000  Uiso   1.00
H30    H     0.40275   0.82782   0.86947   0.00000  Uiso   1.00
H31    H     0.37265   0.78844   0.10680   0.00000  Uiso   1.00
H32    H     0.50321   0.75224   0.97549   0.00000  Uiso   1.00
H33    H     0.27444   0.88474   0.98313   0.00000  Uiso   1.00
H34    H     0.33032   0.71155   0.33894   0.00000  Uiso   1.00
H35    H     0.66365   0.73866   0.86582   0.00000  Uiso   1.00
H36    H     0.18127   0.01803   0.88198   0.00000  Uiso   1.00
H37    H     0.29909   0.65282   0.63227   0.00000  Uiso   1.00
O38    O     0.80354   0.80605   0.90300   0.00000  Uiso   1.00
O39    O     0.17067   0.17258   0.92423   0.00000  Uiso   1.00
O40    O     0.32525   0.69343   0.90858   0.00000  Uiso   1.00
N41    N     0.72500   0.87743   0.06523   0.00000  Uiso   1.00
N42    N     0.27402   0.13863   0.08032   0.00000  Uiso   1.00
N43    N     0.38415   0.79720   0.78178   0.00000  Uiso   1.00
N44    N     0.66922   0.78326   0.93760   0.00000  Uiso   1.00
N45    N     0.21824   0.04446   0.95269   0.00000  Uiso   1.00
N46    N     0.32837   0.70303   0.65415   0.00000  Uiso   1.00
C47    C     0.53400   0.05399   0.82037   0.00000  Uiso   1.00
C48    C     0.47625   0.09591   0.71888   0.00000  Uiso   1.00
C49    C     0.39662   0.07870   0.70463   0.00000  Uiso   1.00
C50    C     0.35383   0.12381   0.60584   0.00000  Uiso   1.00
C51    C     0.25875   0.17973   0.46061   0.00000  Uiso   1.00
C52    C     0.60054   0.02392   0.72301   0.00000  Uiso   1.00
C53    C     0.62542   0.94617   0.71226   0.00000  Uiso   1.00
C54    C     0.68726   0.93069   0.61697   0.00000  Uiso   1.00
C55    C     0.78517   0.87485   0.47824   0.00000  Uiso   1.00
C56    C     0.57017   0.11802   0.91633   0.00000  Uiso   1.00
C57    C     0.56954   0.11939   0.06813   0.00000  Uiso   1.00
C58    C     0.60584   0.18313   0.13560   0.00000  Uiso   1.00
C59    C     0.65660   0.27340   0.29703   0.00000  Uiso   1.00
C60    C     0.59960   0.16473   0.67027   0.00000  Uiso   1.00
C61    C     0.51189   0.15606   0.63735   0.00000  Uiso   1.00
C62    C     0.46920   0.20122   0.53856   0.00000  Uiso   1.00
C63    C     0.38953   0.18407   0.52417   0.00000  Uiso   1.00
C64    C     0.63617   0.08406   0.64149   0.00000  Uiso   1.00
C65    C     0.69800   0.06869   0.54620   0.00000  Uiso   1.00
C66    C     0.72296   0.99095   0.53530   0.00000  Uiso   1.00
C67    C     0.60580   0.17817   0.83481   0.00000  Uiso   1.00
C68    C     0.64212   0.24191   0.90206   0.00000  Uiso   1.00
C69    C     0.64153   0.24339   0.05393   0.00000  Uiso   1.00
H70    H     0.50627   0.00716   0.88383   0.00000  Uiso   1.00
H71    H     0.36907   0.03214   0.76773   0.00000  Uiso   1.00
H72    H     0.59784   0.89964   0.77538   0.00000  Uiso   1.00
H73    H     0.54196   0.07284   0.13118   0.00000  Uiso   1.00
H74    H     0.23269   0.08634   0.60302   0.00000  Uiso   1.00
H75    H     0.71506   0.80697   0.61917   0.00000  Uiso   1.00
H76    H     0.59725   0.17218   0.36947   0.00000  Uiso   1.00
H77    H     0.62735   0.21156   0.60680   0.00000  Uiso   1.00
H78    H     0.49679   0.24776   0.47549   0.00000  Uiso   1.00
H79    H     0.72556   0.11526   0.48313   0.00000  Uiso   1.00
H80    H     0.66968   0.28845   0.83894   0.00000  Uiso   1.00
H81    H     0.33635   0.26134   0.36582   0.00000  Uiso   1.00
H82    H     0.81873   0.98197   0.38198   0.00000  Uiso   1.00
H83    H     0.70091   0.34718   0.13227   0.00000  Uiso   1.00
O84    O     0.19646   0.19395   0.40300   0.00000  Uiso   1.00
O85    O     0.82933   0.82742   0.42423   0.00000  Uiso   1.00
O86    O     0.67475   0.30657   0.40858   0.00000  Uiso   1.00
N87    N     0.27500   0.12257   0.56523   0.00000  Uiso   1.00
N88    N     0.72598   0.86137   0.58032   0.00000  Uiso   1.00
N89    N     0.61585   0.20280   0.28178   0.00000  Uiso   1.00
N90    N     0.33078   0.21674   0.43760   0.00000  Uiso   1.00
N91    N     0.78176   0.95554   0.45269   0.00000  Uiso   1.00
N92    N     0.67163   0.29697   0.15415   0.00000  Uiso   1.00
C93    C     0.05399   0.46600   0.57037   0.00000  Uiso   1.00
C94    C     0.09591   0.52375   0.46888   0.00000  Uiso   1.00
C95    C     0.07870   0.60338   0.45463   0.00000  Uiso   1.00
C96    C     0.12381   0.64617   0.35584   0.00000  Uiso   1.00
C97    C     0.17973   0.74125   0.21061   0.00000  Uiso   1.00
C98    C     0.02392   0.39946   0.47301   0.00000  Uiso   1.00
C99    C     0.94617   0.37458   0.46226   0.00000  Uiso   1.00
C100   C     0.93069   0.31274   0.36697   0.00000  Uiso   1.00
C101   C     0.87485   0.21483   0.22824   0.00000  Uiso   1.00
C102   C     0.11802   0.42983   0.66633   0.00000  Uiso   1.00
C103   C     0.11939   0.43046   0.81813   0.00000  Uiso   1.00
C104   C     0.18313   0.39416   0.88560   0.00000  Uiso   1.00
C105   C     0.27340   0.34340   0.04703   0.00000  Uiso   1.00
C106   C     0.16473   0.40040   0.42027   0.00000  Uiso   1.00
C107   C     0.15606   0.48811   0.38735   0.00000  Uiso   1.00
C108   C     0.20122   0.53080   0.28856   0.00000  Uiso   1.00
C109   C     0.18407   0.61047   0.27417   0.00000  Uiso   1.00
C110   C     0.08406   0.36383   0.39149   0.00000  Uiso   1.00
C111   C     0.06869   0.30200   0.29620   0.00000  Uiso   1.00
C112   C     0.99095   0.27704   0.28530   0.00000  Uiso   1.00
C113   C     0.17817   0.39420   0.58481   0.00000  Uiso   1.00
C114   C     0.24191   0.35788   0.65206   0.00000  Uiso   1.00
C115   C     0.24339   0.35847   0.80393   0.00000  Uiso   1.00
H116   H     0.00716   0.49373   0.63383   0.00000  Uiso   1.00
H117   H     0.03214   0.63093   0.51773   0.00000  Uiso   1.00
H118   H     0.89964   0.40216   0.52538   0.00000  Uiso   1.00
H119   H     0.07284   0.45804   0.88118   0.00000  Uiso   1.00
H120   H     0.08634   0.76731   0.35302   0.00000  Uiso   1.00
H121   H     0.80697   0.28494   0.36917   0.00000  Uiso   1.00
H122   H     0.17218   0.40275   0.11947   0.00000  Uiso   1.00
H123   H     0.21156   0.37265   0.35680   0.00000  Uiso   1.00
H124   H     0.24776   0.50321   0.22549   0.00000  Uiso   1.00
H125   H     0.11526   0.27444   0.23313   0.00000  Uiso   1.00
H126   H     0.28845   0.33032   0.58894   0.00000  Uiso   1.00
H127   H     0.26134   0.66365   0.11582   0.00000  Uiso   1.00
H128   H     0.98197   0.18127   0.13198   0.00000  Uiso   1.00
H129   H     0.34718   0.29909   0.88227   0.00000  Uiso   1.00
O130   O     0.19395   0.80354   0.15300   0.00000  Uiso   1.00
O131   O     0.82742   0.17067   0.17423   0.00000  Uiso   1.00
O132   O     0.30657   0.32525   0.15858   0.00000  Uiso   1.00
N133   N     0.12257   0.72500   0.31523   0.00000  Uiso   1.00
N134   N     0.86137   0.27402   0.33032   0.00000  Uiso   1.00
N135   N     0.20280   0.38415   0.03178   0.00000  Uiso   1.00
N136   N     0.21674   0.66922   0.18760   0.00000  Uiso   1.00
N137   N     0.95554   0.21824   0.20269   0.00000  Uiso   1.00
N138   N     0.29697   0.32837   0.90415   0.00000  Uiso   1.00
C139   C     0.94601   0.53400   0.07037   0.00000  Uiso   1.00
C140   C     0.90409   0.47625   0.96888   0.00000  Uiso   1.00
C141   C     0.92130   0.39662   0.95463   0.00000  Uiso   1.00
C142   C     0.87619   0.35383   0.85584   0.00000  Uiso   1.00
C143   C     0.82027   0.25875   0.71061   0.00000  Uiso   1.00
C144   C     0.97608   0.60054   0.97301   0.00000  Uiso   1.00
C145   C     0.05383   0.62542   0.96226   0.00000  Uiso   1.00
C146   C     0.06931   0.68726   0.86697   0.00000  Uiso   1.00
C147   C     0.12515   0.78517   0.72824   0.00000  Uiso   1.00
C148   C     0.88198   0.57017   0.16633   0.00000  Uiso   1.00
C149   C     0.88061   0.56954   0.31813   0.00000  Uiso   1.00
C150   C     0.81687   0.60584   0.38560   0.00000  Uiso   1.00
C151   C     0.72660   0.65660   0.54703   0.00000  Uiso   1.00
C152   C     0.83527   0.59960   0.92027   0.00000  Uiso   1.00
C153   C     0.84394   0.51189   0.88735   0.00000  Uiso   1.00
C154   C     0.79878   0.46920   0.78856   0.00000  Uiso   1.00
C155   C     0.81593   0.38953   0.77417   0.00000  Uiso   1.00
C156   C     0.91594   0.63617   0.89149   0.00000  Uiso   1.00
C157   C     0.93131   0.69800   0.79620   0.00000  Uiso   1.00
C158   C     0.00905   0.72296   0.78530   0.00000  Uiso   1.00
C159   C     0.82183   0.60580   0.08481   0.00000  Uiso   1.00
C160   C     0.75809   0.64212   0.15206   0.00000  Uiso   1.00
C161   C     0.75661   0.64153   0.30393   0.00000  Uiso   1.00
H162   H     0.99284   0.50627   0.13383   0.00000  Uiso   1.00
H163   H     0.96786   0.36907   0.01773   0.00000  Uiso   1.00
H164   H     0.10036   0.59784   0.02538   0.00000  Uiso   1.00
H165   H     0.92716   0.54196   0.38118   0.00000  Uiso   1.00
H166   H     0.91366   0.23269   0.85302   0.00000  Uiso   1.00
H167   H     0.19303   0.71506   0.86917   0.00000  Uiso   1.00
H168   H     0.82782   0.59725   0.61947   0.00000  Uiso   1.00
H169   H     0.78844   0.62735   0.85680   0.00000  Uiso   1.00
H170   H     0.75224   0.49679   0.72549   0.00000  Uiso   1.00
H171   H     0.88474   0.72556   0.73313   0.00000  Uiso   1.00
H172   H     0.71155   0.66968   0.08894   0.00000  Uiso   1.00
H173   H     0.73866   0.33635   0.61582   0.00000  Uiso   1.00
H174   H     0.01803   0.81873   0.63198   0.00000  Uiso   1.00
H175   H     0.65282   0.70091   0.38227   0.00000  Uiso   1.00
O176   O     0.80605   0.19646   0.65300   0.00000  Uiso   1.00
O177   O     0.17258   0.82933   0.67423   0.00000  Uiso   1.00
O178   O     0.69343   0.67475   0.65858   0.00000  Uiso   1.00
N179   N     0.87743   0.27500   0.81523   0.00000  Uiso   1.00
N180   N     0.13863   0.72598   0.83032   0.00000  Uiso   1.00
N181   N     0.79720   0.61585   0.53178   0.00000  Uiso   1.00
N182   N     0.78326   0.33078   0.68760   0.00000  Uiso   1.00
N183   N     0.04446   0.78176   0.70269   0.00000  Uiso   1.00
N184   N     0.70303   0.67163   0.40415   0.00000  Uiso   1.00
