data_job_05020
_audit_creation_date              2018-12-19
_audit_creation_method            'Materials Studio'
_symmetry_space_group_name_H-M    'P1'
_symmetry_Int_Tables_number       1
_symmetry_cell_setting            triclinic
loop_
_symmetry_equiv_pos_as_xyz
  x,y,z
_cell_length_a                    12.8623
_cell_length_b                    11.0216
_cell_length_c                    30.0614
_cell_angle_alpha                 90.0000
_cell_angle_beta                  90.0000
_cell_angle_gamma                 90.0000
loop_
_atom_site_label
_atom_site_type_symbol
_atom_site_fract_x
_atom_site_fract_y
_atom_site_fract_z
_atom_site_U_iso_or_equiv
_atom_site_adp_type
_atom_site_occupancy
C1     C     0.30311   0.20274   0.92149   0.00000  Uiso   1.00
C2     C     0.22735   0.21314   0.88266   0.00000  Uiso   1.00
C3     C     0.13787   0.28348   0.88192   0.00000  Uiso   1.00
C4     C     0.07891   0.28068   0.84325   0.00000  Uiso   1.00
C5     C     0.95675   0.30753   0.78853   0.00000  Uiso   1.00
C6     C     0.30985   0.06792   0.93253   0.00000  Uiso   1.00
C7     C     0.28977   0.01618   0.97373   0.00000  Uiso   1.00
C8     C     0.30028   0.89113   0.97704   0.00000  Uiso   1.00
C9     C     0.30629   0.69254   0.99975   0.00000  Uiso   1.00
C10    C     0.40939   0.23800   0.90311   0.00000  Uiso   1.00
C11    C     0.47302   0.32924   0.91958   0.00000  Uiso   1.00
C12    C     0.56734   0.34736   0.89813   0.00000  Uiso   1.00
C13    C     0.72790   0.41285   0.87516   0.00000  Uiso   1.00
C14    C     0.35750   0.07267   0.85410   0.00000  Uiso   1.00
C15    C     0.25689   0.14249   0.84606   0.00000  Uiso   1.00
C16    C     0.19805   0.13958   0.80737   0.00000  Uiso   1.00
C17    C     0.10851   0.20991   0.80659   0.00000  Uiso   1.00
C18    C     0.33940   0.99728   0.89593   0.00000  Uiso   1.00
C19    C     0.34995   0.87228   0.89918   0.00000  Uiso   1.00
C20    C     0.32988   0.82035   0.94037   0.00000  Uiso   1.00
C21    C     0.43894   0.16736   0.86651   0.00000  Uiso   1.00
C22    C     0.53319   0.18534   0.84503   0.00000  Uiso   1.00
C23    C     0.59694   0.27659   0.86146   0.00000  Uiso   1.00
H24    H     0.28011   0.25773   0.94998   0.00000  Uiso   1.00
H25    H     0.11503   0.33813   0.91026   0.00000  Uiso   1.00
H26    H     0.26692   0.07087   0.00204   0.00000  Uiso   1.00
H27    H     0.45013   0.38389   0.94790   0.00000  Uiso   1.00
H28    H     0.94502   0.39609   0.85008   0.00000  Uiso   1.00
H29    H     0.26531   0.83255   0.04362   0.00000  Uiso   1.00
H30    H     0.65165   0.49261   0.92946   0.00000  Uiso   1.00
H31    H     0.38050   0.01767   0.82561   0.00000  Uiso   1.00
H32    H     0.22094   0.08490   0.77906   0.00000  Uiso   1.00
H33    H     0.37282   0.81764   0.87085   0.00000  Uiso   1.00
H34    H     0.55603   0.13065   0.81670   0.00000  Uiso   1.00
H35    H     0.03098   0.19055   0.74359   0.00000  Uiso   1.00
H36    H     0.35127   0.62701   0.93714   0.00000  Uiso   1.00
H37    H     0.73761   0.28707   0.82297   0.00000  Uiso   1.00
O38    O     0.88120   0.34184   0.76846   0.00000  Uiso   1.00
O39    O     0.30143   0.60252   0.02239   0.00000  Uiso   1.00
O40    O     0.80829   0.46850   0.87260   0.00000  Uiso   1.00
N41    N     0.98716   0.33850   0.83140   0.00000  Uiso   1.00
N42    N     0.28660   0.81163   0.01235   0.00000  Uiso   1.00
N43    N     0.64780   0.42871   0.90562   0.00000  Uiso   1.00
N44    N     0.03341   0.22791   0.77410   0.00000  Uiso   1.00
N45    N     0.33285   0.70104   0.95505   0.00000  Uiso   1.00
N46    N     0.69406   0.31811   0.84832   0.00000  Uiso   1.00
C47    C     0.55556   0.19715   0.08265   0.00000  Uiso   1.00
C48    C     0.63176   0.20537   0.12139   0.00000  Uiso   1.00
C49    C     0.72140   0.27538   0.12242   0.00000  Uiso   1.00
C50    C     0.78077   0.27045   0.16095   0.00000  Uiso   1.00
C51    C     0.90357   0.29417   0.21560   0.00000  Uiso   1.00
C52    C     0.54838   0.06294   0.07071   0.00000  Uiso   1.00
C53    C     0.56790   0.01321   0.02913   0.00000  Uiso   1.00
C54    C     0.55707   0.88838   0.02500   0.00000  Uiso   1.00
C55    C     0.55036   0.69099   0.00096   0.00000  Uiso   1.00
C56    C     0.44955   0.23181   0.10147   0.00000  Uiso   1.00
C57    C     0.38597   0.32405   0.08575   0.00000  Uiso   1.00
C58    C     0.29191   0.34138   0.10751   0.00000  Uiso   1.00
C59    C     0.13176   0.40619   0.13123   0.00000  Uiso   1.00
C60    C     0.50158   0.06388   0.14925   0.00000  Uiso   1.00
C61    C     0.60244   0.13297   0.15757   0.00000  Uiso   1.00
C62    C     0.66168   0.12794   0.19611   0.00000  Uiso   1.00
C63    C     0.75139   0.19794   0.19719   0.00000  Uiso   1.00
C64    C     0.51906   0.99055   0.10689   0.00000  Uiso   1.00
C65    C     0.50819   0.86577   0.10281   0.00000  Uiso   1.00
C66    C     0.52770   0.81586   0.06124   0.00000  Uiso   1.00
C67    C     0.42023   0.15943   0.13765   0.00000  Uiso   1.00
C68    C     0.32625   0.17661   0.15943   0.00000  Uiso   1.00
C69    C     0.26254   0.26886   0.14374   0.00000  Uiso   1.00
H70    H     0.57838   0.25350   0.05448   0.00000  Uiso   1.00
H71    H     0.74407   0.33138   0.09442   0.00000  Uiso   1.00
H72    H     0.59058   0.06925   0.00114   0.00000  Uiso   1.00
H73    H     0.40868   0.38005   0.05775   0.00000  Uiso   1.00
H74    H     0.91485   0.38577   0.15464   0.00000  Uiso   1.00
H75    H     0.59119   0.83307   0.95796   0.00000  Uiso   1.00
H76    H     0.20760   0.48844   0.07733   0.00000  Uiso   1.00
H77    H     0.47876   0.00752   0.17741   0.00000  Uiso   1.00
H78    H     0.63897   0.07191   0.22409   0.00000  Uiso   1.00
H79    H     0.48549   0.80978   0.13081   0.00000  Uiso   1.00
H80    H     0.30359   0.12057   0.18742   0.00000  Uiso   1.00
H81    H     0.82956   0.17517   0.25989   0.00000  Uiso   1.00
H82    H     0.50589   0.62246   0.06320   0.00000  Uiso   1.00
H83    H     0.12231   0.27784   0.18258   0.00000  Uiso   1.00
O84    O     0.97941   0.32724   0.23575   0.00000  Uiso   1.00
O85    O     0.55477   0.60211   0.97770   0.00000  Uiso   1.00
O86    O     0.05152   0.46195   0.13432   0.00000  Uiso   1.00
N87    N     0.87277   0.32739   0.17301   0.00000  Uiso   1.00
N88    N     0.57019   0.81064   0.98912   0.00000  Uiso   1.00
N89    N     0.21156   0.42334   0.10072   0.00000  Uiso   1.00
N90    N     0.82688   0.21407   0.22964   0.00000  Uiso   1.00
N91    N     0.52429   0.69732   0.04575   0.00000  Uiso   1.00
N92    N     0.16566   0.31002   0.15735   0.00000  Uiso   1.00
C93    C     0.69689   0.79726   0.42149   0.00000  Uiso   1.00
C94    C     0.77265   0.78686   0.38266   0.00000  Uiso   1.00
C95    C     0.86213   0.71652   0.38192   0.00000  Uiso   1.00
C96    C     0.92109   0.71932   0.34325   0.00000  Uiso   1.00
C97    C     0.04325   0.69247   0.28853   0.00000  Uiso   1.00
C98    C     0.69015   0.93208   0.43253   0.00000  Uiso   1.00
C99    C     0.71023   0.98382   0.47373   0.00000  Uiso   1.00
C100   C     0.69972   0.10887   0.47704   0.00000  Uiso   1.00
C101   C     0.69371   0.30746   0.49975   0.00000  Uiso   1.00
C102   C     0.59061   0.76200   0.40311   0.00000  Uiso   1.00
C103   C     0.52698   0.67076   0.41958   0.00000  Uiso   1.00
C104   C     0.43266   0.65264   0.39813   0.00000  Uiso   1.00
C105   C     0.27210   0.58715   0.37516   0.00000  Uiso   1.00
C106   C     0.64250   0.92733   0.35410   0.00000  Uiso   1.00
C107   C     0.74311   0.85751   0.34606   0.00000  Uiso   1.00
C108   C     0.80195   0.86042   0.30737   0.00000  Uiso   1.00
C109   C     0.89149   0.79009   0.30659   0.00000  Uiso   1.00
C110   C     0.66060   0.00272   0.39593   0.00000  Uiso   1.00
C111   C     0.65005   0.12772   0.39918   0.00000  Uiso   1.00
C112   C     0.67012   0.17965   0.44037   0.00000  Uiso   1.00
C113   C     0.56106   0.83264   0.36651   0.00000  Uiso   1.00
C114   C     0.46681   0.81466   0.34503   0.00000  Uiso   1.00
C115   C     0.40306   0.72341   0.36146   0.00000  Uiso   1.00
H116   H     0.71989   0.74227   0.44998   0.00000  Uiso   1.00
H117   H     0.88497   0.66187   0.41026   0.00000  Uiso   1.00
H118   H     0.73308   0.92913   0.50204   0.00000  Uiso   1.00
H119   H     0.54987   0.61611   0.44790   0.00000  Uiso   1.00
H120   H     0.05498   0.60391   0.35008   0.00000  Uiso   1.00
H121   H     0.73469   0.16745   0.54362   0.00000  Uiso   1.00
H122   H     0.34835   0.50739   0.42946   0.00000  Uiso   1.00
H123   H     0.61950   0.98233   0.32561   0.00000  Uiso   1.00
H124   H     0.77906   0.91510   0.27906   0.00000  Uiso   1.00
H125   H     0.62718   0.18236   0.37085   0.00000  Uiso   1.00
H126   H     0.44397   0.86935   0.31670   0.00000  Uiso   1.00
H127   H     0.96902   0.80945   0.24359   0.00000  Uiso   1.00
H128   H     0.64873   0.37299   0.43714   0.00000  Uiso   1.00
H129   H     0.26239   0.71293   0.32297   0.00000  Uiso   1.00
O130   O     0.11880   0.65816   0.26846   0.00000  Uiso   1.00
O131   O     0.69857   0.39748   0.52239   0.00000  Uiso   1.00
O132   O     0.19171   0.53150   0.37260   0.00000  Uiso   1.00
N133   N     0.01284   0.66150   0.33140   0.00000  Uiso   1.00
N134   N     0.71340   0.18837   0.51235   0.00000  Uiso   1.00
N135   N     0.35220   0.57129   0.40562   0.00000  Uiso   1.00
N136   N     0.96659   0.77209   0.27410   0.00000  Uiso   1.00
N137   N     0.66715   0.29896   0.45505   0.00000  Uiso   1.00
N138   N     0.30594   0.68189   0.34832   0.00000  Uiso   1.00
C139   C     0.44444   0.80285   0.58265   0.00000  Uiso   1.00
C140   C     0.36824   0.79463   0.62139   0.00000  Uiso   1.00
C141   C     0.27860   0.72462   0.62242   0.00000  Uiso   1.00
C142   C     0.21923   0.72955   0.66095   0.00000  Uiso   1.00
C143   C     0.09643   0.70583   0.71560   0.00000  Uiso   1.00
C144   C     0.45162   0.93706   0.57071   0.00000  Uiso   1.00
C145   C     0.43210   0.98679   0.52913   0.00000  Uiso   1.00
C146   C     0.44293   0.11162   0.52500   0.00000  Uiso   1.00
C147   C     0.44964   0.30901   0.50096   0.00000  Uiso   1.00
C148   C     0.55045   0.76819   0.60147   0.00000  Uiso   1.00
C149   C     0.61403   0.67595   0.58575   0.00000  Uiso   1.00
C150   C     0.70809   0.65862   0.60751   0.00000  Uiso   1.00
C151   C     0.86824   0.59381   0.63123   0.00000  Uiso   1.00
C152   C     0.49842   0.93612   0.64925   0.00000  Uiso   1.00
C153   C     0.39756   0.86703   0.65757   0.00000  Uiso   1.00
C154   C     0.33832   0.87206   0.69611   0.00000  Uiso   1.00
C155   C     0.24861   0.80206   0.69719   0.00000  Uiso   1.00
C156   C     0.48094   0.00945   0.60689   0.00000  Uiso   1.00
C157   C     0.49181   0.13423   0.60281   0.00000  Uiso   1.00
C158   C     0.47230   0.18414   0.56124   0.00000  Uiso   1.00
C159   C     0.57977   0.84057   0.63765   0.00000  Uiso   1.00
C160   C     0.67375   0.82339   0.65943   0.00000  Uiso   1.00
C161   C     0.73746   0.73114   0.64374   0.00000  Uiso   1.00
H162   H     0.42162   0.74650   0.55448   0.00000  Uiso   1.00
H163   H     0.25593   0.66862   0.59442   0.00000  Uiso   1.00
H164   H     0.40942   0.93075   0.50114   0.00000  Uiso   1.00
H165   H     0.59132   0.61995   0.55775   0.00000  Uiso   1.00
H166   H     0.08515   0.61423   0.65464   0.00000  Uiso   1.00
H167   H     0.40881   0.16693   0.45796   0.00000  Uiso   1.00
H168   H     0.79240   0.51156   0.57733   0.00000  Uiso   1.00
H169   H     0.52124   0.99248   0.67741   0.00000  Uiso   1.00
H170   H     0.36103   0.92809   0.72409   0.00000  Uiso   1.00
H171   H     0.51451   0.19022   0.63081   0.00000  Uiso   1.00
H172   H     0.69641   0.87943   0.68742   0.00000  Uiso   1.00
H173   H     0.17044   0.82483   0.75989   0.00000  Uiso   1.00
H174   H     0.49411   0.37754   0.56320   0.00000  Uiso   1.00
H175   H     0.87769   0.72216   0.68258   0.00000  Uiso   1.00
O176   O     0.02059   0.67276   0.73575   0.00000  Uiso   1.00
O177   O     0.44523   0.39789   0.47770   0.00000  Uiso   1.00
O178   O     0.94848   0.53805   0.63432   0.00000  Uiso   1.00
N179   N     0.12723   0.67261   0.67301   0.00000  Uiso   1.00
N180   N     0.42981   0.18936   0.48912   0.00000  Uiso   1.00
N181   N     0.78844   0.57666   0.60072   0.00000  Uiso   1.00
N182   N     0.17312   0.78593   0.72964   0.00000  Uiso   1.00
N183   N     0.47571   0.30268   0.54575   0.00000  Uiso   1.00
N184   N     0.83434   0.68998   0.65735   0.00000  Uiso   1.00
C185   C     0.80311   0.79726   0.92149   0.00000  Uiso   1.00
C186   C     0.72735   0.78686   0.88266   0.00000  Uiso   1.00
C187   C     0.63787   0.71652   0.88192   0.00000  Uiso   1.00
C188   C     0.57891   0.71932   0.84325   0.00000  Uiso   1.00
C189   C     0.45675   0.69247   0.78853   0.00000  Uiso   1.00
C190   C     0.80985   0.93208   0.93253   0.00000  Uiso   1.00
C191   C     0.78977   0.98382   0.97373   0.00000  Uiso   1.00
C192   C     0.80028   0.10887   0.97704   0.00000  Uiso   1.00
C193   C     0.80629   0.30746   0.99975   0.00000  Uiso   1.00
C194   C     0.90939   0.76200   0.90311   0.00000  Uiso   1.00
C195   C     0.97302   0.67076   0.91958   0.00000  Uiso   1.00
C196   C     0.06734   0.65264   0.89813   0.00000  Uiso   1.00
C197   C     0.22790   0.58715   0.87516   0.00000  Uiso   1.00
C198   C     0.85750   0.92733   0.85410   0.00000  Uiso   1.00
C199   C     0.75689   0.85751   0.84606   0.00000  Uiso   1.00
C200   C     0.69805   0.86042   0.80737   0.00000  Uiso   1.00
C201   C     0.60851   0.79009   0.80659   0.00000  Uiso   1.00
C202   C     0.83940   0.00272   0.89593   0.00000  Uiso   1.00
C203   C     0.84995   0.12772   0.89918   0.00000  Uiso   1.00
C204   C     0.82988   0.17965   0.94037   0.00000  Uiso   1.00
C205   C     0.93894   0.83264   0.86651   0.00000  Uiso   1.00
C206   C     0.03319   0.81466   0.84503   0.00000  Uiso   1.00
C207   C     0.09694   0.72341   0.86146   0.00000  Uiso   1.00
H208   H     0.78011   0.74227   0.94998   0.00000  Uiso   1.00
H209   H     0.61503   0.66187   0.91026   0.00000  Uiso   1.00
H210   H     0.76692   0.92913   0.00204   0.00000  Uiso   1.00
H211   H     0.95013   0.61611   0.94790   0.00000  Uiso   1.00
H212   H     0.44502   0.60391   0.85008   0.00000  Uiso   1.00
H213   H     0.76531   0.16745   0.04362   0.00000  Uiso   1.00
H214   H     0.15165   0.50739   0.92946   0.00000  Uiso   1.00
H215   H     0.88050   0.98233   0.82561   0.00000  Uiso   1.00
H216   H     0.72094   0.91510   0.77906   0.00000  Uiso   1.00
H217   H     0.87282   0.18236   0.87085   0.00000  Uiso   1.00
H218   H     0.05603   0.86935   0.81670   0.00000  Uiso   1.00
H219   H     0.53098   0.80945   0.74359   0.00000  Uiso   1.00
H220   H     0.85127   0.37299   0.93714   0.00000  Uiso   1.00
H221   H     0.23761   0.71293   0.82297   0.00000  Uiso   1.00
O222   O     0.38120   0.65816   0.76846   0.00000  Uiso   1.00
O223   O     0.80143   0.39748   0.02239   0.00000  Uiso   1.00
O224   O     0.30829   0.53150   0.87260   0.00000  Uiso   1.00
N225   N     0.48716   0.66150   0.83140   0.00000  Uiso   1.00
N226   N     0.78660   0.18837   0.01235   0.00000  Uiso   1.00
N227   N     0.14780   0.57129   0.90562   0.00000  Uiso   1.00
N228   N     0.53341   0.77209   0.77410   0.00000  Uiso   1.00
N229   N     0.83285   0.29896   0.95505   0.00000  Uiso   1.00
N230   N     0.19406   0.68189   0.84832   0.00000  Uiso   1.00
C231   C     0.05556   0.80285   0.08265   0.00000  Uiso   1.00
C232   C     0.13176   0.79463   0.12139   0.00000  Uiso   1.00
C233   C     0.22140   0.72462   0.12242   0.00000  Uiso   1.00
C234   C     0.28077   0.72955   0.16095   0.00000  Uiso   1.00
C235   C     0.40357   0.70583   0.21560   0.00000  Uiso   1.00
C236   C     0.04838   0.93706   0.07071   0.00000  Uiso   1.00
C237   C     0.06790   0.98679   0.02913   0.00000  Uiso   1.00
C238   C     0.05707   0.11162   0.02500   0.00000  Uiso   1.00
C239   C     0.05036   0.30901   0.00096   0.00000  Uiso   1.00
C240   C     0.94955   0.76819   0.10147   0.00000  Uiso   1.00
C241   C     0.88597   0.67595   0.08575   0.00000  Uiso   1.00
C242   C     0.79191   0.65862   0.10751   0.00000  Uiso   1.00
C243   C     0.63176   0.59381   0.13123   0.00000  Uiso   1.00
C244   C     0.00158   0.93612   0.14925   0.00000  Uiso   1.00
C245   C     0.10244   0.86703   0.15757   0.00000  Uiso   1.00
C246   C     0.16168   0.87206   0.19611   0.00000  Uiso   1.00
C247   C     0.25139   0.80206   0.19719   0.00000  Uiso   1.00
C248   C     0.01906   0.00945   0.10689   0.00000  Uiso   1.00
C249   C     0.00819   0.13423   0.10281   0.00000  Uiso   1.00
C250   C     0.02770   0.18414   0.06124   0.00000  Uiso   1.00
C251   C     0.92023   0.84057   0.13765   0.00000  Uiso   1.00
C252   C     0.82625   0.82339   0.15943   0.00000  Uiso   1.00
C253   C     0.76254   0.73114   0.14374   0.00000  Uiso   1.00
H254   H     0.07838   0.74650   0.05448   0.00000  Uiso   1.00
H255   H     0.24407   0.66862   0.09442   0.00000  Uiso   1.00
H256   H     0.09058   0.93075   0.00114   0.00000  Uiso   1.00
H257   H     0.90868   0.61995   0.05775   0.00000  Uiso   1.00
H258   H     0.41485   0.61423   0.15464   0.00000  Uiso   1.00
H259   H     0.09119   0.16693   0.95796   0.00000  Uiso   1.00
H260   H     0.70760   0.51156   0.07733   0.00000  Uiso   1.00
H261   H     0.97876   0.99248   0.17741   0.00000  Uiso   1.00
H262   H     0.13897   0.92809   0.22409   0.00000  Uiso   1.00
H263   H     0.98549   0.19022   0.13081   0.00000  Uiso   1.00
H264   H     0.80359   0.87943   0.18742   0.00000  Uiso   1.00
H265   H     0.32956   0.82483   0.25989   0.00000  Uiso   1.00
H266   H     0.00589   0.37754   0.06320   0.00000  Uiso   1.00
H267   H     0.62231   0.72216   0.18258   0.00000  Uiso   1.00
O268   O     0.47941   0.67276   0.23575   0.00000  Uiso   1.00
O269   O     0.05477   0.39789   0.97770   0.00000  Uiso   1.00
O270   O     0.55152   0.53805   0.13432   0.00000  Uiso   1.00
N271   N     0.37277   0.67261   0.17301   0.00000  Uiso   1.00
N272   N     0.07019   0.18936   0.98912   0.00000  Uiso   1.00
N273   N     0.71156   0.57666   0.10072   0.00000  Uiso   1.00
N274   N     0.32688   0.78593   0.22964   0.00000  Uiso   1.00
N275   N     0.02429   0.30268   0.04575   0.00000  Uiso   1.00
N276   N     0.66566   0.68998   0.15735   0.00000  Uiso   1.00
C277   C     0.19689   0.20274   0.42149   0.00000  Uiso   1.00
C278   C     0.27265   0.21314   0.38266   0.00000  Uiso   1.00
C279   C     0.36213   0.28348   0.38192   0.00000  Uiso   1.00
C280   C     0.42109   0.28068   0.34325   0.00000  Uiso   1.00
C281   C     0.54325   0.30753   0.28853   0.00000  Uiso   1.00
C282   C     0.19015   0.06792   0.43253   0.00000  Uiso   1.00
C283   C     0.21023   0.01618   0.47373   0.00000  Uiso   1.00
C284   C     0.19972   0.89113   0.47704   0.00000  Uiso   1.00
C285   C     0.19371   0.69254   0.49975   0.00000  Uiso   1.00
C286   C     0.09061   0.23800   0.40311   0.00000  Uiso   1.00
C287   C     0.02698   0.32924   0.41958   0.00000  Uiso   1.00
C288   C     0.93266   0.34736   0.39813   0.00000  Uiso   1.00
C289   C     0.77210   0.41285   0.37516   0.00000  Uiso   1.00
C290   C     0.14250   0.07267   0.35410   0.00000  Uiso   1.00
C291   C     0.24311   0.14249   0.34606   0.00000  Uiso   1.00
C292   C     0.30195   0.13958   0.30737   0.00000  Uiso   1.00
C293   C     0.39149   0.20991   0.30659   0.00000  Uiso   1.00
C294   C     0.16060   0.99728   0.39593   0.00000  Uiso   1.00
C295   C     0.15005   0.87228   0.39918   0.00000  Uiso   1.00
C296   C     0.17012   0.82035   0.44037   0.00000  Uiso   1.00
C297   C     0.06106   0.16736   0.36651   0.00000  Uiso   1.00
C298   C     0.96681   0.18534   0.34503   0.00000  Uiso   1.00
C299   C     0.90306   0.27659   0.36146   0.00000  Uiso   1.00
H300   H     0.21989   0.25773   0.44998   0.00000  Uiso   1.00
H301   H     0.38497   0.33813   0.41026   0.00000  Uiso   1.00
H302   H     0.23308   0.07087   0.50204   0.00000  Uiso   1.00
H303   H     0.04987   0.38389   0.44790   0.00000  Uiso   1.00
H304   H     0.55498   0.39609   0.35008   0.00000  Uiso   1.00
H305   H     0.23469   0.83255   0.54362   0.00000  Uiso   1.00
H306   H     0.84835   0.49261   0.42946   0.00000  Uiso   1.00
H307   H     0.11950   0.01767   0.32561   0.00000  Uiso   1.00
H308   H     0.27906   0.08490   0.27906   0.00000  Uiso   1.00
H309   H     0.12718   0.81764   0.37085   0.00000  Uiso   1.00
H310   H     0.94397   0.13065   0.31670   0.00000  Uiso   1.00
H311   H     0.46902   0.19055   0.24359   0.00000  Uiso   1.00
H312   H     0.14873   0.62701   0.43714   0.00000  Uiso   1.00
H313   H     0.76239   0.28707   0.32297   0.00000  Uiso   1.00
O314   O     0.61880   0.34184   0.26846   0.00000  Uiso   1.00
O315   O     0.19857   0.60252   0.52239   0.00000  Uiso   1.00
O316   O     0.69171   0.46850   0.37260   0.00000  Uiso   1.00
N317   N     0.51284   0.33850   0.33140   0.00000  Uiso   1.00
N318   N     0.21340   0.81163   0.51235   0.00000  Uiso   1.00
N319   N     0.85220   0.42871   0.40562   0.00000  Uiso   1.00
N320   N     0.46659   0.22791   0.27410   0.00000  Uiso   1.00
N321   N     0.16715   0.70104   0.45505   0.00000  Uiso   1.00
N322   N     0.80594   0.31811   0.34832   0.00000  Uiso   1.00
C323   C     0.94444   0.19715   0.58265   0.00000  Uiso   1.00
C324   C     0.86824   0.20537   0.62139   0.00000  Uiso   1.00
C325   C     0.77860   0.27538   0.62242   0.00000  Uiso   1.00
C326   C     0.71923   0.27045   0.66095   0.00000  Uiso   1.00
C327   C     0.59643   0.29417   0.71560   0.00000  Uiso   1.00
C328   C     0.95162   0.06294   0.57071   0.00000  Uiso   1.00
C329   C     0.93210   0.01321   0.52913   0.00000  Uiso   1.00
C330   C     0.94293   0.88838   0.52500   0.00000  Uiso   1.00
C331   C     0.94964   0.69099   0.50096   0.00000  Uiso   1.00
C332   C     0.05045   0.23181   0.60147   0.00000  Uiso   1.00
C333   C     0.11403   0.32405   0.58575   0.00000  Uiso   1.00
C334   C     0.20809   0.34138   0.60751   0.00000  Uiso   1.00
C335   C     0.36824   0.40619   0.63123   0.00000  Uiso   1.00
C336   C     0.99842   0.06388   0.64925   0.00000  Uiso   1.00
C337   C     0.89756   0.13297   0.65757   0.00000  Uiso   1.00
C338   C     0.83832   0.12794   0.69611   0.00000  Uiso   1.00
C339   C     0.74861   0.19794   0.69719   0.00000  Uiso   1.00
C340   C     0.98094   0.99055   0.60689   0.00000  Uiso   1.00
C341   C     0.99181   0.86577   0.60281   0.00000  Uiso   1.00
C342   C     0.97230   0.81586   0.56124   0.00000  Uiso   1.00
C343   C     0.07977   0.15943   0.63765   0.00000  Uiso   1.00
C344   C     0.17375   0.17661   0.65943   0.00000  Uiso   1.00
C345   C     0.23746   0.26886   0.64374   0.00000  Uiso   1.00
H346   H     0.92162   0.25350   0.55448   0.00000  Uiso   1.00
H347   H     0.75593   0.33138   0.59442   0.00000  Uiso   1.00
H348   H     0.90942   0.06925   0.50114   0.00000  Uiso   1.00
H349   H     0.09132   0.38005   0.55775   0.00000  Uiso   1.00
H350   H     0.58515   0.38577   0.65464   0.00000  Uiso   1.00
H351   H     0.90881   0.83307   0.45796   0.00000  Uiso   1.00
H352   H     0.29240   0.48844   0.57733   0.00000  Uiso   1.00
H353   H     0.02124   0.00752   0.67741   0.00000  Uiso   1.00
H354   H     0.86103   0.07191   0.72409   0.00000  Uiso   1.00
H355   H     0.01451   0.80978   0.63081   0.00000  Uiso   1.00
H356   H     0.19641   0.12057   0.68742   0.00000  Uiso   1.00
H357   H     0.67044   0.17517   0.75989   0.00000  Uiso   1.00
H358   H     0.99411   0.62246   0.56320   0.00000  Uiso   1.00
H359   H     0.37769   0.27784   0.68258   0.00000  Uiso   1.00
O360   O     0.52059   0.32724   0.73575   0.00000  Uiso   1.00
O361   O     0.94523   0.60211   0.47770   0.00000  Uiso   1.00
O362   O     0.44848   0.46195   0.63432   0.00000  Uiso   1.00
N363   N     0.62723   0.32739   0.67301   0.00000  Uiso   1.00
N364   N     0.92981   0.81064   0.48912   0.00000  Uiso   1.00
N365   N     0.28844   0.42334   0.60072   0.00000  Uiso   1.00
N366   N     0.67312   0.21407   0.72964   0.00000  Uiso   1.00
N367   N     0.97571   0.69732   0.54575   0.00000  Uiso   1.00
N368   N     0.33434   0.31002   0.65735   0.00000  Uiso   1.00
