data_job_02810
_audit_creation_date              2018-12-19
_audit_creation_method            'Materials Studio'
_symmetry_space_group_name_H-M    'P1'
_symmetry_Int_Tables_number       1
_symmetry_cell_setting            triclinic
loop_
_symmetry_equiv_pos_as_xyz
  x,y,z
_cell_length_a                    18.8569
_cell_length_b                    18.8569
_cell_length_c                    12.4379
_cell_angle_alpha                 90.0000
_cell_angle_beta                  90.0000
_cell_angle_gamma                 120.0000
loop_
_atom_site_label
_atom_site_type_symbol
_atom_site_fract_x
_atom_site_fract_y
_atom_site_fract_z
_atom_site_U_iso_or_equiv
_atom_site_adp_type
_atom_site_occupancy
C1     C     0.13433   0.78829   0.36167   0.00000  Uiso   1.00
C2     C     0.18894   0.77898   0.44420   0.00000  Uiso   1.00
C3     C     0.16281   0.73562   0.53992   0.00000  Uiso   1.00
C4     C     0.22229   0.73446   0.60447   0.00000  Uiso   1.00
C5     C     0.29451   0.71384   0.73723   0.00000  Uiso   1.00
C6     C     0.16936   0.88016   0.34723   0.00000  Uiso   1.00
C7     C     0.12676   0.92186   0.36140   0.00000  Uiso   1.00
C8     C     0.16976   0.00587   0.34430   0.00000  Uiso   1.00
C9     C     0.21158   0.14232   0.32644   0.00000  Uiso   1.00
C10    C     0.14893   0.75717   0.25551   0.00000  Uiso   1.00
C11    C     0.08916   0.69547   0.19255   0.00000  Uiso   1.00
C12    C     0.11496   0.67594   0.09822   0.00000  Uiso   1.00
C13    C     0.12505   0.62143   0.93795   0.00000  Uiso   1.00
C14    C     0.28643   0.86334   0.30610   0.00000  Uiso   1.00
C15    C     0.27155   0.81975   0.41402   0.00000  Uiso   1.00
C16    C     0.33109   0.81865   0.47844   0.00000  Uiso   1.00
C17    C     0.30505   0.77529   0.57423   0.00000  Uiso   1.00
C18    C     0.25197   0.92093   0.31705   0.00000  Uiso   1.00
C19    C     0.29504   0.00489   0.29992   0.00000  Uiso   1.00
C20    C     0.25252   0.04671   0.31406   0.00000  Uiso   1.00
C21    C     0.23155   0.79793   0.22533   0.00000  Uiso   1.00
C22    C     0.25744   0.77850   0.13107   0.00000  Uiso   1.00
C23    C     0.19772   0.71678   0.06798   0.00000  Uiso   1.00
H24    H     0.07002   0.75656   0.38517   0.00000  Uiso   1.00
H25    H     0.09887   0.70409   0.56325   0.00000  Uiso   1.00
H26    H     0.06283   0.89029   0.38475   0.00000  Uiso   1.00
H27    H     0.02524   0.66394   0.21593   0.00000  Uiso   1.00
H28    H     0.16730   0.66391   0.74740   0.00000  Uiso   1.00
H29    H     0.09130   0.05654   0.37098   0.00000  Uiso   1.00
H30    H     0.01202   0.57922   0.01499   0.00000  Uiso   1.00
H31    H     0.35075   0.89508   0.28260   0.00000  Uiso   1.00
H32    H     0.39502   0.85021   0.45506   0.00000  Uiso   1.00
H33    H     0.35897   0.03642   0.27655   0.00000  Uiso   1.00
H34    H     0.32138   0.81006   0.10774   0.00000  Uiso   1.00
H35    H     0.40766   0.78251   0.65959   0.00000  Uiso   1.00
H36    H     0.33166   0.17514   0.28316   0.00000  Uiso   1.00
H37    H     0.25238   0.69783   0.92718   0.00000  Uiso   1.00
O38    O     0.31153   0.69121   0.81881   0.00000  Uiso   1.00
O39    O     0.21182   0.20632   0.32493   0.00000  Uiso   1.00
O40    O     0.10781   0.58009   0.85790   0.00000  Uiso   1.00
N41    N     0.21779   0.69797   0.70305   0.00000  Uiso   1.00
N42    N     0.14674   0.06505   0.35114   0.00000  Uiso   1.00
N43    N     0.07261   0.61882   0.01831   0.00000  Uiso   1.00
N44    N     0.34713   0.76179   0.65580   0.00000  Uiso   1.00
N45    N     0.27607   0.12887   0.30389   0.00000  Uiso   1.00
N46    N     0.20195   0.68264   0.97106   0.00000  Uiso   1.00
C47    C     0.21171   0.34604   0.02834   0.00000  Uiso   1.00
C48    C     0.22102   0.40996   0.11087   0.00000  Uiso   1.00
C49    C     0.26438   0.42719   0.20659   0.00000  Uiso   1.00
C50    C     0.26554   0.48783   0.27114   0.00000  Uiso   1.00
C51    C     0.28616   0.58067   0.40390   0.00000  Uiso   1.00
C52    C     0.11984   0.28920   0.01390   0.00000  Uiso   1.00
C53    C     0.07814   0.20490   0.02807   0.00000  Uiso   1.00
C54    C     0.99413   0.16389   0.01097   0.00000  Uiso   1.00
C55    C     0.85768   0.06926   0.99310   0.00000  Uiso   1.00
C56    C     0.24283   0.39176   0.92218   0.00000  Uiso   1.00
C57    C     0.30453   0.39369   0.85922   0.00000  Uiso   1.00
C58    C     0.32406   0.43901   0.76489   0.00000  Uiso   1.00
C59    C     0.37857   0.50362   0.60462   0.00000  Uiso   1.00
C60    C     0.13666   0.42309   0.97277   0.00000  Uiso   1.00
C61    C     0.18025   0.45180   0.08068   0.00000  Uiso   1.00
C62    C     0.18135   0.51243   0.14510   0.00000  Uiso   1.00
C63    C     0.22471   0.52976   0.24090   0.00000  Uiso   1.00
C64    C     0.07907   0.33105   0.98371   0.00000  Uiso   1.00
C65    C     0.99511   0.29015   0.96658   0.00000  Uiso   1.00
C66    C     0.95329   0.20581   0.98073   0.00000  Uiso   1.00
C67    C     0.20207   0.43362   0.89200   0.00000  Uiso   1.00
C68    C     0.22150   0.47894   0.79774   0.00000  Uiso   1.00
C69    C     0.28322   0.48094   0.73465   0.00000  Uiso   1.00
H70    H     0.24344   0.31346   0.05184   0.00000  Uiso   1.00
H71    H     0.29591   0.39478   0.22992   0.00000  Uiso   1.00
H72    H     0.10971   0.17254   0.05141   0.00000  Uiso   1.00
H73    H     0.33606   0.36130   0.88260   0.00000  Uiso   1.00
H74    H     0.33609   0.50339   0.41407   0.00000  Uiso   1.00
H75    H     0.94346   0.03476   0.03764   0.00000  Uiso   1.00
H76    H     0.42078   0.43279   0.68166   0.00000  Uiso   1.00
H77    H     0.10492   0.45567   0.94927   0.00000  Uiso   1.00
H78    H     0.14979   0.54481   0.12173   0.00000  Uiso   1.00
H79    H     0.96358   0.32255   0.94322   0.00000  Uiso   1.00
H80    H     0.18994   0.51131   0.77441   0.00000  Uiso   1.00
H81    H     0.21749   0.62515   0.32625   0.00000  Uiso   1.00
H82    H     0.82486   0.15652   0.94982   0.00000  Uiso   1.00
H83    H     0.30217   0.55455   0.59384   0.00000  Uiso   1.00
O84    O     0.30879   0.62032   0.48547   0.00000  Uiso   1.00
O85    O     0.79368   0.00550   0.99160   0.00000  Uiso   1.00
O86    O     0.41991   0.52771   0.52456   0.00000  Uiso   1.00
N87    N     0.30203   0.51982   0.36972   0.00000  Uiso   1.00
N88    N     0.93495   0.08168   0.01780   0.00000  Uiso   1.00
N89    N     0.38118   0.45380   0.68497   0.00000  Uiso   1.00
N90    N     0.23821   0.58534   0.32247   0.00000  Uiso   1.00
N91    N     0.87113   0.14720   0.97055   0.00000  Uiso   1.00
N92    N     0.31736   0.51931   0.63772   0.00000  Uiso   1.00
C93    C     0.65396   0.86567   0.69501   0.00000  Uiso   1.00
C94    C     0.59004   0.81106   0.77754   0.00000  Uiso   1.00
C95    C     0.57281   0.83719   0.87325   0.00000  Uiso   1.00
C96    C     0.51217   0.77771   0.93781   0.00000  Uiso   1.00
C97    C     0.41933   0.70549   0.07057   0.00000  Uiso   1.00
C98    C     0.71080   0.83064   0.68056   0.00000  Uiso   1.00
C99    C     0.79510   0.87324   0.69473   0.00000  Uiso   1.00
C100   C     0.83611   0.83024   0.67764   0.00000  Uiso   1.00
C101   C     0.93074   0.78842   0.65977   0.00000  Uiso   1.00
C102   C     0.60824   0.85107   0.58885   0.00000  Uiso   1.00
C103   C     0.60631   0.91084   0.52588   0.00000  Uiso   1.00
C104   C     0.56099   0.88504   0.43155   0.00000  Uiso   1.00
C105   C     0.49638   0.87495   0.27129   0.00000  Uiso   1.00
C106   C     0.57691   0.71357   0.63944   0.00000  Uiso   1.00
C107   C     0.54820   0.72845   0.74735   0.00000  Uiso   1.00
C108   C     0.48757   0.66891   0.81177   0.00000  Uiso   1.00
C109   C     0.47024   0.69495   0.90757   0.00000  Uiso   1.00
C110   C     0.66895   0.74803   0.65038   0.00000  Uiso   1.00
C111   C     0.70985   0.70496   0.63325   0.00000  Uiso   1.00
C112   C     0.79419   0.74748   0.64740   0.00000  Uiso   1.00
C113   C     0.56638   0.76845   0.55866   0.00000  Uiso   1.00
C114   C     0.52106   0.74256   0.46441   0.00000  Uiso   1.00
C115   C     0.51906   0.80228   0.40132   0.00000  Uiso   1.00
H116   H     0.68654   0.92998   0.71850   0.00000  Uiso   1.00
H117   H     0.60522   0.90113   0.89659   0.00000  Uiso   1.00
H118   H     0.82746   0.93717   0.71808   0.00000  Uiso   1.00
H119   H     0.63870   0.97476   0.54927   0.00000  Uiso   1.00
H120   H     0.49661   0.83270   0.08073   0.00000  Uiso   1.00
H121   H     0.96524   0.90870   0.70431   0.00000  Uiso   1.00
H122   H     0.56721   0.98798   0.34832   0.00000  Uiso   1.00
H123   H     0.54433   0.64925   0.61593   0.00000  Uiso   1.00
H124   H     0.45519   0.60498   0.78839   0.00000  Uiso   1.00
H125   H     0.67745   0.64103   0.60989   0.00000  Uiso   1.00
H126   H     0.48869   0.67862   0.44107   0.00000  Uiso   1.00
H127   H     0.37485   0.59234   0.99292   0.00000  Uiso   1.00
H128   H     0.84348   0.66834   0.61649   0.00000  Uiso   1.00
H129   H     0.44545   0.74762   0.26051   0.00000  Uiso   1.00
O130   O     0.37968   0.68847   0.15214   0.00000  Uiso   1.00
O131   O     0.99450   0.78818   0.65827   0.00000  Uiso   1.00
O132   O     0.47229   0.89219   0.19123   0.00000  Uiso   1.00
N133   N     0.48018   0.78221   0.03639   0.00000  Uiso   1.00
N134   N     0.91832   0.85326   0.68447   0.00000  Uiso   1.00
N135   N     0.54620   0.92739   0.35164   0.00000  Uiso   1.00
N136   N     0.41466   0.65287   0.98914   0.00000  Uiso   1.00
N137   N     0.85280   0.72393   0.63722   0.00000  Uiso   1.00
N138   N     0.48069   0.79805   0.30439   0.00000  Uiso   1.00
C139   C     0.78829   0.13433   0.63833   0.00000  Uiso   1.00
C140   C     0.77898   0.18894   0.55580   0.00000  Uiso   1.00
C141   C     0.73562   0.16281   0.46008   0.00000  Uiso   1.00
C142   C     0.73446   0.22229   0.39553   0.00000  Uiso   1.00
C143   C     0.71384   0.29451   0.26277   0.00000  Uiso   1.00
C144   C     0.88016   0.16936   0.65277   0.00000  Uiso   1.00
C145   C     0.92186   0.12676   0.63860   0.00000  Uiso   1.00
C146   C     0.00587   0.16976   0.65570   0.00000  Uiso   1.00
C147   C     0.14232   0.21158   0.67356   0.00000  Uiso   1.00
C148   C     0.75717   0.14893   0.74449   0.00000  Uiso   1.00
C149   C     0.69547   0.08916   0.80745   0.00000  Uiso   1.00
C150   C     0.67594   0.11496   0.90178   0.00000  Uiso   1.00
C151   C     0.62143   0.12505   0.06205   0.00000  Uiso   1.00
C152   C     0.86334   0.28643   0.69390   0.00000  Uiso   1.00
C153   C     0.81975   0.27155   0.58598   0.00000  Uiso   1.00
C154   C     0.81865   0.33109   0.52156   0.00000  Uiso   1.00
C155   C     0.77529   0.30505   0.42577   0.00000  Uiso   1.00
C156   C     0.92093   0.25197   0.68295   0.00000  Uiso   1.00
C157   C     0.00489   0.29504   0.70008   0.00000  Uiso   1.00
C158   C     0.04671   0.25252   0.68594   0.00000  Uiso   1.00
C159   C     0.79793   0.23155   0.77467   0.00000  Uiso   1.00
C160   C     0.77850   0.25744   0.86893   0.00000  Uiso   1.00
C161   C     0.71678   0.19772   0.93202   0.00000  Uiso   1.00
H162   H     0.75656   0.07002   0.61483   0.00000  Uiso   1.00
H163   H     0.70409   0.09887   0.43675   0.00000  Uiso   1.00
H164   H     0.89029   0.06283   0.61525   0.00000  Uiso   1.00
H165   H     0.66394   0.02524   0.78407   0.00000  Uiso   1.00
H166   H     0.66391   0.16730   0.25260   0.00000  Uiso   1.00
H167   H     0.05654   0.09130   0.62902   0.00000  Uiso   1.00
H168   H     0.57922   0.01202   0.98501   0.00000  Uiso   1.00
H169   H     0.89508   0.35075   0.71740   0.00000  Uiso   1.00
H170   H     0.85021   0.39502   0.54494   0.00000  Uiso   1.00
H171   H     0.03642   0.35897   0.72345   0.00000  Uiso   1.00
H172   H     0.81006   0.32138   0.89226   0.00000  Uiso   1.00
H173   H     0.78251   0.40766   0.34041   0.00000  Uiso   1.00
H174   H     0.17514   0.33166   0.71684   0.00000  Uiso   1.00
H175   H     0.69783   0.25238   0.07282   0.00000  Uiso   1.00
O176   O     0.69121   0.31153   0.18119   0.00000  Uiso   1.00
O177   O     0.20632   0.21182   0.67507   0.00000  Uiso   1.00
O178   O     0.58009   0.10781   0.14210   0.00000  Uiso   1.00
N179   N     0.69797   0.21779   0.29695   0.00000  Uiso   1.00
N180   N     0.06505   0.14674   0.64886   0.00000  Uiso   1.00
N181   N     0.61882   0.07261   0.98169   0.00000  Uiso   1.00
N182   N     0.76179   0.34713   0.34420   0.00000  Uiso   1.00
N183   N     0.12887   0.27607   0.69611   0.00000  Uiso   1.00
N184   N     0.68264   0.20195   0.02894   0.00000  Uiso   1.00
C185   C     0.34604   0.21171   0.97166   0.00000  Uiso   1.00
C186   C     0.40996   0.22102   0.88913   0.00000  Uiso   1.00
C187   C     0.42719   0.26438   0.79341   0.00000  Uiso   1.00
C188   C     0.48783   0.26554   0.72886   0.00000  Uiso   1.00
C189   C     0.58067   0.28616   0.59610   0.00000  Uiso   1.00
C190   C     0.28920   0.11984   0.98610   0.00000  Uiso   1.00
C191   C     0.20490   0.07814   0.97193   0.00000  Uiso   1.00
C192   C     0.16389   0.99413   0.98903   0.00000  Uiso   1.00
C193   C     0.06926   0.85768   0.00690   0.00000  Uiso   1.00
C194   C     0.39176   0.24283   0.07782   0.00000  Uiso   1.00
C195   C     0.39369   0.30453   0.14078   0.00000  Uiso   1.00
C196   C     0.43901   0.32406   0.23511   0.00000  Uiso   1.00
C197   C     0.50362   0.37857   0.39538   0.00000  Uiso   1.00
C198   C     0.42309   0.13666   0.02723   0.00000  Uiso   1.00
C199   C     0.45180   0.18025   0.91932   0.00000  Uiso   1.00
C200   C     0.51243   0.18135   0.85490   0.00000  Uiso   1.00
C201   C     0.52976   0.22471   0.75910   0.00000  Uiso   1.00
C202   C     0.33105   0.07907   0.01629   0.00000  Uiso   1.00
C203   C     0.29015   0.99511   0.03342   0.00000  Uiso   1.00
C204   C     0.20581   0.95329   0.01927   0.00000  Uiso   1.00
C205   C     0.43362   0.20207   0.10800   0.00000  Uiso   1.00
C206   C     0.47894   0.22150   0.20226   0.00000  Uiso   1.00
C207   C     0.48094   0.28322   0.26535   0.00000  Uiso   1.00
H208   H     0.31346   0.24344   0.94816   0.00000  Uiso   1.00
H209   H     0.39478   0.29591   0.77008   0.00000  Uiso   1.00
H210   H     0.17254   0.10971   0.94859   0.00000  Uiso   1.00
H211   H     0.36130   0.33606   0.11740   0.00000  Uiso   1.00
H212   H     0.50339   0.33609   0.58593   0.00000  Uiso   1.00
H213   H     0.03476   0.94346   0.96236   0.00000  Uiso   1.00
H214   H     0.43279   0.42078   0.31834   0.00000  Uiso   1.00
H215   H     0.45567   0.10492   0.05073   0.00000  Uiso   1.00
H216   H     0.54481   0.14979   0.87827   0.00000  Uiso   1.00
H217   H     0.32255   0.96358   0.05678   0.00000  Uiso   1.00
H218   H     0.51131   0.18994   0.22559   0.00000  Uiso   1.00
H219   H     0.62515   0.21749   0.67375   0.00000  Uiso   1.00
H220   H     0.15652   0.82486   0.05018   0.00000  Uiso   1.00
H221   H     0.55455   0.30217   0.40616   0.00000  Uiso   1.00
O222   O     0.62032   0.30879   0.51453   0.00000  Uiso   1.00
O223   O     0.00550   0.79368   0.00840   0.00000  Uiso   1.00
O224   O     0.52771   0.41991   0.47544   0.00000  Uiso   1.00
N225   N     0.51982   0.30203   0.63028   0.00000  Uiso   1.00
N226   N     0.08168   0.93495   0.98220   0.00000  Uiso   1.00
N227   N     0.45380   0.38118   0.31503   0.00000  Uiso   1.00
N228   N     0.58534   0.23821   0.67753   0.00000  Uiso   1.00
N229   N     0.14720   0.87113   0.02945   0.00000  Uiso   1.00
N230   N     0.51931   0.31736   0.36228   0.00000  Uiso   1.00
C231   C     0.86567   0.65396   0.30499   0.00000  Uiso   1.00
C232   C     0.81106   0.59004   0.22246   0.00000  Uiso   1.00
C233   C     0.83719   0.57281   0.12675   0.00000  Uiso   1.00
C234   C     0.77771   0.51217   0.06219   0.00000  Uiso   1.00
C235   C     0.70549   0.41933   0.92943   0.00000  Uiso   1.00
C236   C     0.83064   0.71080   0.31944   0.00000  Uiso   1.00
C237   C     0.87324   0.79510   0.30527   0.00000  Uiso   1.00
C238   C     0.83024   0.83611   0.32236   0.00000  Uiso   1.00
C239   C     0.78842   0.93074   0.34023   0.00000  Uiso   1.00
C240   C     0.85107   0.60824   0.41115   0.00000  Uiso   1.00
C241   C     0.91084   0.60631   0.47412   0.00000  Uiso   1.00
C242   C     0.88504   0.56099   0.56845   0.00000  Uiso   1.00
C243   C     0.87495   0.49638   0.72871   0.00000  Uiso   1.00
C244   C     0.71357   0.57691   0.36056   0.00000  Uiso   1.00
C245   C     0.72845   0.54820   0.25265   0.00000  Uiso   1.00
C246   C     0.66891   0.48757   0.18823   0.00000  Uiso   1.00
C247   C     0.69495   0.47024   0.09243   0.00000  Uiso   1.00
C248   C     0.74803   0.66895   0.34962   0.00000  Uiso   1.00
C249   C     0.70496   0.70985   0.36675   0.00000  Uiso   1.00
C250   C     0.74748   0.79419   0.35260   0.00000  Uiso   1.00
C251   C     0.76845   0.56638   0.44134   0.00000  Uiso   1.00
C252   C     0.74256   0.52106   0.53559   0.00000  Uiso   1.00
C253   C     0.80228   0.51906   0.59868   0.00000  Uiso   1.00
H254   H     0.92998   0.68654   0.28150   0.00000  Uiso   1.00
H255   H     0.90113   0.60522   0.10341   0.00000  Uiso   1.00
H256   H     0.93717   0.82746   0.28192   0.00000  Uiso   1.00
H257   H     0.97476   0.63870   0.45073   0.00000  Uiso   1.00
H258   H     0.83270   0.49661   0.91927   0.00000  Uiso   1.00
H259   H     0.90870   0.96524   0.29569   0.00000  Uiso   1.00
H260   H     0.98798   0.56721   0.65168   0.00000  Uiso   1.00
H261   H     0.64925   0.54433   0.38407   0.00000  Uiso   1.00
H262   H     0.60498   0.45519   0.21161   0.00000  Uiso   1.00
H263   H     0.64103   0.67745   0.39011   0.00000  Uiso   1.00
H264   H     0.67862   0.48869   0.55893   0.00000  Uiso   1.00
H265   H     0.59234   0.37485   0.00708   0.00000  Uiso   1.00
H266   H     0.66834   0.84348   0.38351   0.00000  Uiso   1.00
H267   H     0.74762   0.44545   0.73949   0.00000  Uiso   1.00
O268   O     0.68847   0.37968   0.84786   0.00000  Uiso   1.00
O269   O     0.78818   0.99450   0.34173   0.00000  Uiso   1.00
O270   O     0.89219   0.47229   0.80877   0.00000  Uiso   1.00
N271   N     0.78221   0.48018   0.96361   0.00000  Uiso   1.00
N272   N     0.85326   0.91832   0.31553   0.00000  Uiso   1.00
N273   N     0.92739   0.54620   0.64836   0.00000  Uiso   1.00
N274   N     0.65287   0.41466   0.01086   0.00000  Uiso   1.00
N275   N     0.72393   0.85280   0.36278   0.00000  Uiso   1.00
N276   N     0.79805   0.48069   0.69561   0.00000  Uiso   1.00
