data_job_03474
_audit_creation_date              2018-12-19
_audit_creation_method            'Materials Studio'
_symmetry_space_group_name_H-M    'P1'
_symmetry_Int_Tables_number       1
_symmetry_cell_setting            triclinic
loop_
_symmetry_equiv_pos_as_xyz
  x,y,z
_cell_length_a                    9.3814
_cell_length_b                    27.9190
_cell_length_c                    9.9380
_cell_angle_alpha                 90.0000
_cell_angle_beta                  80.1341
_cell_angle_gamma                 90.0000
loop_
_atom_site_label
_atom_site_type_symbol
_atom_site_fract_x
_atom_site_fract_y
_atom_site_fract_z
_atom_site_U_iso_or_equiv
_atom_site_adp_type
_atom_site_occupancy
C1     C     0.72114   0.14425   0.15480   0.00000  Uiso   1.00
C2     C     0.63683   0.11849   0.27872   0.00000  Uiso   1.00
C3     C     0.65740   0.12411   0.41282   0.00000  Uiso   1.00
C4     C     0.56930   0.09731   0.51154   0.00000  Uiso   1.00
C5     C     0.45439   0.06207   0.70917   0.00000  Uiso   1.00
C6     C     0.78569   0.10507   0.05587   0.00000  Uiso   1.00
C7     C     0.93141   0.09941   0.00259   0.00000  Uiso   1.00
C8     C     0.96861   0.06131   0.91370   0.00000  Uiso   1.00
C9     C     0.08480   0.00525   0.76528   0.00000  Uiso   1.00
C10    C     0.60862   0.16970   0.08652   0.00000  Uiso   1.00
C11    C     0.60547   0.21839   0.05897   0.00000  Uiso   1.00
C12    C     0.49361   0.23471   0.99586   0.00000  Uiso   1.00
C13    C     0.33487   0.27900   0.89503   0.00000  Uiso   1.00
C14    C     0.52810   0.08666   0.09166   0.00000  Uiso   1.00
C15    C     0.53199   0.08721   0.24442   0.00000  Uiso   1.00
C16    C     0.44383   0.06040   0.34297   0.00000  Uiso   1.00
C17    C     0.46426   0.06598   0.47719   0.00000  Uiso   1.00
C18    C     0.68085   0.07379   0.02158   0.00000  Uiso   1.00
C19    C     0.71784   0.03570   0.93274   0.00000  Uiso   1.00
C20    C     0.86358   0.02998   0.87935   0.00000  Uiso   1.00
C21    C     0.50377   0.13842   0.05223   0.00000  Uiso   1.00
C22    C     0.39190   0.15467   0.98913   0.00000  Uiso   1.00
C23    C     0.38857   0.20337   0.96150   0.00000  Uiso   1.00
H24    H     0.80277   0.16860   0.18149   0.00000  Uiso   1.00
H25    H     0.73856   0.14832   0.43931   0.00000  Uiso   1.00
H26    H     0.01252   0.12363   0.02914   0.00000  Uiso   1.00
H27    H     0.68663   0.24258   0.08552   0.00000  Uiso   1.00
H28    H     0.62117   0.11204   0.71003   0.00000  Uiso   1.00
H29    H     0.19882   0.05997   0.84512   0.00000  Uiso   1.00
H30    H     0.51162   0.31082   0.96401   0.00000  Uiso   1.00
H31    H     0.44647   0.06230   0.06496   0.00000  Uiso   1.00
H32    H     0.36270   0.03619   0.31640   0.00000  Uiso   1.00
H33    H     0.63667   0.01150   0.90622   0.00000  Uiso   1.00
H34    H     0.31078   0.13045   0.96261   0.00000  Uiso   1.00
H35    H     0.31611   0.02103   0.61027   0.00000  Uiso   1.00
H36    H     0.89378   0.96896   0.74535   0.00000  Uiso   1.00
H37    H     0.20656   0.21981   0.86426   0.00000  Uiso   1.00
O38    O     0.41999   0.05126   0.82766   0.00000  Uiso   1.00
O39    O     0.17786   0.98297   0.69291   0.00000  Uiso   1.00
O40    O     0.27626   0.31207   0.84890   0.00000  Uiso   1.00
N41    N     0.56085   0.09421   0.65205   0.00000  Uiso   1.00
N42    N     0.10093   0.04553   0.84343   0.00000  Uiso   1.00
N43    N     0.45847   0.28004   0.95455   0.00000  Uiso   1.00
N44    N     0.39670   0.04524   0.59837   0.00000  Uiso   1.00
N45    N     0.93678   0.99656   0.78975   0.00000  Uiso   1.00
N46    N     0.29432   0.23107   0.90087   0.00000  Uiso   1.00
C47    C     0.27886   0.64425   0.34520   0.00000  Uiso   1.00
C48    C     0.36317   0.61849   0.22128   0.00000  Uiso   1.00
C49    C     0.34260   0.62411   0.08718   0.00000  Uiso   1.00
C50    C     0.43070   0.59731   0.98846   0.00000  Uiso   1.00
C51    C     0.54561   0.56207   0.79083   0.00000  Uiso   1.00
C52    C     0.21431   0.60507   0.44413   0.00000  Uiso   1.00
C53    C     0.06859   0.59941   0.49741   0.00000  Uiso   1.00
C54    C     0.03139   0.56131   0.58630   0.00000  Uiso   1.00
C55    C     0.91520   0.50525   0.73472   0.00000  Uiso   1.00
C56    C     0.39138   0.66970   0.41348   0.00000  Uiso   1.00
C57    C     0.39453   0.71839   0.44103   0.00000  Uiso   1.00
C58    C     0.50639   0.73471   0.50414   0.00000  Uiso   1.00
C59    C     0.66513   0.77900   0.60497   0.00000  Uiso   1.00
C60    C     0.47190   0.58666   0.40834   0.00000  Uiso   1.00
C61    C     0.46801   0.58721   0.25558   0.00000  Uiso   1.00
C62    C     0.55617   0.56040   0.15703   0.00000  Uiso   1.00
C63    C     0.53574   0.56598   0.02281   0.00000  Uiso   1.00
C64    C     0.31915   0.57379   0.47842   0.00000  Uiso   1.00
C65    C     0.28216   0.53570   0.56726   0.00000  Uiso   1.00
C66    C     0.13642   0.52998   0.62065   0.00000  Uiso   1.00
C67    C     0.49623   0.63842   0.44777   0.00000  Uiso   1.00
C68    C     0.60810   0.65467   0.51087   0.00000  Uiso   1.00
C69    C     0.61143   0.70337   0.53850   0.00000  Uiso   1.00
H70    H     0.19723   0.66860   0.31851   0.00000  Uiso   1.00
H71    H     0.26144   0.64832   0.06069   0.00000  Uiso   1.00
H72    H     0.98748   0.62363   0.47086   0.00000  Uiso   1.00
H73    H     0.31337   0.74258   0.41448   0.00000  Uiso   1.00
H74    H     0.37883   0.61204   0.78997   0.00000  Uiso   1.00
H75    H     0.80118   0.55997   0.65488   0.00000  Uiso   1.00
H76    H     0.48838   0.81082   0.53599   0.00000  Uiso   1.00
H77    H     0.55353   0.56230   0.43504   0.00000  Uiso   1.00
H78    H     0.63730   0.53619   0.18360   0.00000  Uiso   1.00
H79    H     0.36333   0.51150   0.59378   0.00000  Uiso   1.00
H80    H     0.68922   0.63045   0.53739   0.00000  Uiso   1.00
H81    H     0.68389   0.52103   0.88973   0.00000  Uiso   1.00
H82    H     0.10622   0.46896   0.75465   0.00000  Uiso   1.00
H83    H     0.79344   0.71981   0.63574   0.00000  Uiso   1.00
O84    O     0.58001   0.55126   0.67234   0.00000  Uiso   1.00
O85    O     0.82214   0.48297   0.80709   0.00000  Uiso   1.00
O86    O     0.72374   0.81207   0.65110   0.00000  Uiso   1.00
N87    N     0.43915   0.59421   0.84795   0.00000  Uiso   1.00
N88    N     0.89907   0.54553   0.65657   0.00000  Uiso   1.00
N89    N     0.54153   0.78004   0.54545   0.00000  Uiso   1.00
N90    N     0.60330   0.54524   0.90163   0.00000  Uiso   1.00
N91    N     0.06322   0.49656   0.71025   0.00000  Uiso   1.00
N92    N     0.70568   0.73107   0.59913   0.00000  Uiso   1.00
C93    C     0.27886   0.85575   0.84520   0.00000  Uiso   1.00
C94    C     0.36317   0.88151   0.72128   0.00000  Uiso   1.00
C95    C     0.34260   0.87589   0.58718   0.00000  Uiso   1.00
C96    C     0.43070   0.90269   0.48846   0.00000  Uiso   1.00
C97    C     0.54561   0.93793   0.29083   0.00000  Uiso   1.00
C98    C     0.21431   0.89493   0.94413   0.00000  Uiso   1.00
C99    C     0.06859   0.90059   0.99741   0.00000  Uiso   1.00
C100   C     0.03139   0.93869   0.08630   0.00000  Uiso   1.00
C101   C     0.91520   0.99475   0.23472   0.00000  Uiso   1.00
C102   C     0.39138   0.83030   0.91348   0.00000  Uiso   1.00
C103   C     0.39453   0.78161   0.94103   0.00000  Uiso   1.00
C104   C     0.50639   0.76529   0.00414   0.00000  Uiso   1.00
C105   C     0.66513   0.72100   0.10497   0.00000  Uiso   1.00
C106   C     0.47190   0.91334   0.90834   0.00000  Uiso   1.00
C107   C     0.46801   0.91279   0.75558   0.00000  Uiso   1.00
C108   C     0.55617   0.93960   0.65703   0.00000  Uiso   1.00
C109   C     0.53574   0.93402   0.52281   0.00000  Uiso   1.00
C110   C     0.31915   0.92621   0.97842   0.00000  Uiso   1.00
C111   C     0.28216   0.96430   0.06726   0.00000  Uiso   1.00
C112   C     0.13642   0.97002   0.12065   0.00000  Uiso   1.00
C113   C     0.49623   0.86158   0.94777   0.00000  Uiso   1.00
C114   C     0.60810   0.84533   0.01087   0.00000  Uiso   1.00
C115   C     0.61143   0.79663   0.03850   0.00000  Uiso   1.00
H116   H     0.19723   0.83140   0.81851   0.00000  Uiso   1.00
H117   H     0.26144   0.85168   0.56069   0.00000  Uiso   1.00
H118   H     0.98748   0.87637   0.97086   0.00000  Uiso   1.00
H119   H     0.31337   0.75742   0.91448   0.00000  Uiso   1.00
H120   H     0.37883   0.88796   0.28997   0.00000  Uiso   1.00
H121   H     0.80118   0.94003   0.15488   0.00000  Uiso   1.00
H122   H     0.48838   0.68918   0.03599   0.00000  Uiso   1.00
H123   H     0.55353   0.93770   0.93504   0.00000  Uiso   1.00
H124   H     0.63730   0.96381   0.68360   0.00000  Uiso   1.00
H125   H     0.36333   0.98850   0.09378   0.00000  Uiso   1.00
H126   H     0.68922   0.86955   0.03739   0.00000  Uiso   1.00
H127   H     0.68389   0.97897   0.38973   0.00000  Uiso   1.00
H128   H     0.10622   0.03104   0.25465   0.00000  Uiso   1.00
H129   H     0.79344   0.78019   0.13574   0.00000  Uiso   1.00
O130   O     0.58001   0.94874   0.17234   0.00000  Uiso   1.00
O131   O     0.82214   0.01703   0.30709   0.00000  Uiso   1.00
O132   O     0.72374   0.68793   0.15110   0.00000  Uiso   1.00
N133   N     0.43915   0.90579   0.34795   0.00000  Uiso   1.00
N134   N     0.89907   0.95447   0.15657   0.00000  Uiso   1.00
N135   N     0.54153   0.71996   0.04545   0.00000  Uiso   1.00
N136   N     0.60330   0.95476   0.40163   0.00000  Uiso   1.00
N137   N     0.06322   0.00344   0.21025   0.00000  Uiso   1.00
N138   N     0.70568   0.76893   0.09913   0.00000  Uiso   1.00
C139   C     0.72114   0.35575   0.65480   0.00000  Uiso   1.00
C140   C     0.63683   0.38151   0.77872   0.00000  Uiso   1.00
C141   C     0.65740   0.37589   0.91282   0.00000  Uiso   1.00
C142   C     0.56930   0.40269   0.01154   0.00000  Uiso   1.00
C143   C     0.45439   0.43793   0.20917   0.00000  Uiso   1.00
C144   C     0.78569   0.39493   0.55587   0.00000  Uiso   1.00
C145   C     0.93141   0.40059   0.50259   0.00000  Uiso   1.00
C146   C     0.96861   0.43869   0.41370   0.00000  Uiso   1.00
C147   C     0.08480   0.49475   0.26528   0.00000  Uiso   1.00
C148   C     0.60862   0.33030   0.58652   0.00000  Uiso   1.00
C149   C     0.60547   0.28161   0.55897   0.00000  Uiso   1.00
C150   C     0.49361   0.26529   0.49586   0.00000  Uiso   1.00
C151   C     0.33487   0.22100   0.39503   0.00000  Uiso   1.00
C152   C     0.52810   0.41334   0.59166   0.00000  Uiso   1.00
C153   C     0.53199   0.41279   0.74442   0.00000  Uiso   1.00
C154   C     0.44383   0.43960   0.84297   0.00000  Uiso   1.00
C155   C     0.46426   0.43402   0.97719   0.00000  Uiso   1.00
C156   C     0.68085   0.42621   0.52158   0.00000  Uiso   1.00
C157   C     0.71784   0.46430   0.43274   0.00000  Uiso   1.00
C158   C     0.86358   0.47002   0.37935   0.00000  Uiso   1.00
C159   C     0.50377   0.36158   0.55223   0.00000  Uiso   1.00
C160   C     0.39190   0.34533   0.48913   0.00000  Uiso   1.00
C161   C     0.38857   0.29663   0.46150   0.00000  Uiso   1.00
H162   H     0.80277   0.33140   0.68149   0.00000  Uiso   1.00
H163   H     0.73856   0.35168   0.93931   0.00000  Uiso   1.00
H164   H     0.01252   0.37637   0.52914   0.00000  Uiso   1.00
H165   H     0.68663   0.25742   0.58552   0.00000  Uiso   1.00
H166   H     0.62117   0.38796   0.21003   0.00000  Uiso   1.00
H167   H     0.19882   0.44003   0.34512   0.00000  Uiso   1.00
H168   H     0.51162   0.18918   0.46401   0.00000  Uiso   1.00
H169   H     0.44647   0.43770   0.56496   0.00000  Uiso   1.00
H170   H     0.36270   0.46381   0.81640   0.00000  Uiso   1.00
H171   H     0.63667   0.48850   0.40622   0.00000  Uiso   1.00
H172   H     0.31078   0.36955   0.46261   0.00000  Uiso   1.00
H173   H     0.31611   0.47897   0.11027   0.00000  Uiso   1.00
H174   H     0.89378   0.53104   0.24535   0.00000  Uiso   1.00
H175   H     0.20656   0.28019   0.36426   0.00000  Uiso   1.00
O176   O     0.41999   0.44874   0.32766   0.00000  Uiso   1.00
O177   O     0.17786   0.51703   0.19291   0.00000  Uiso   1.00
O178   O     0.27626   0.18793   0.34890   0.00000  Uiso   1.00
N179   N     0.56085   0.40579   0.15205   0.00000  Uiso   1.00
N180   N     0.10093   0.45447   0.34343   0.00000  Uiso   1.00
N181   N     0.45847   0.21996   0.45455   0.00000  Uiso   1.00
N182   N     0.39670   0.45476   0.09837   0.00000  Uiso   1.00
N183   N     0.93678   0.50344   0.28975   0.00000  Uiso   1.00
N184   N     0.29432   0.26893   0.40087   0.00000  Uiso   1.00
