data_job_03747
_audit_creation_date              2018-12-19
_audit_creation_method            'Materials Studio'
_symmetry_space_group_name_H-M    'P1'
_symmetry_Int_Tables_number       1
_symmetry_cell_setting            triclinic
loop_
_symmetry_equiv_pos_as_xyz
  x,y,z
_cell_length_a                    17.5929
_cell_length_b                    10.5475
_cell_length_c                    16.2131
_cell_angle_alpha                 90.0000
_cell_angle_beta                  152.3197
_cell_angle_gamma                 90.0000
loop_
_atom_site_label
_atom_site_type_symbol
_atom_site_fract_x
_atom_site_fract_y
_atom_site_fract_z
_atom_site_U_iso_or_equiv
_atom_site_adp_type
_atom_site_occupancy
C1     C     0.45697   0.85504   0.97006   0.00000  Uiso   1.00
C2     C     0.45931   0.78835   0.05575   0.00000  Uiso   1.00
C3     C     0.59487   0.73224   0.22241   0.00000  Uiso   1.00
C4     C     0.57179   0.67607   0.27680   0.00000  Uiso   1.00
C5     C     0.59870   0.57245   0.42632   0.00000  Uiso   1.00
C6     C     0.32575   0.78838   0.79306   0.00000  Uiso   1.00
C7     C     0.34901   0.73233   0.73887   0.00000  Uiso   1.00
C8     C     0.21348   0.67621   0.57211   0.00000  Uiso   1.00
C9     C     0.03301   0.57273   0.31377   0.00000  Uiso   1.00
C10    C     0.39257   0.98840   0.92445   0.00000  Uiso   1.00
C11    C     0.47199   0.10053   0.98067   0.00000  Uiso   1.00
C12    C     0.39270   0.21281   0.92450   0.00000  Uiso   1.00
C13    C     0.31598   0.41989   0.87014   0.00000  Uiso   1.00
C14    C     0.17492   0.85507   0.77028   0.00000  Uiso   1.00
C15    C     0.30611   0.78836   0.94723   0.00000  Uiso   1.00
C16    C     0.28281   0.73227   0.00138   0.00000  Uiso   1.00
C17    C     0.41831   0.67609   0.16810   0.00000  Uiso   1.00
C18    C     0.17255   0.78840   0.68455   0.00000  Uiso   1.00
C19    C     0.03695   0.73236   0.51783   0.00000  Uiso   1.00
C20    C     0.06000   0.67622   0.46340   0.00000  Uiso   1.00
C21    C     0.23937   0.98842   0.81594   0.00000  Uiso   1.00
C22    C     0.15993   0.10055   0.75965   0.00000  Uiso   1.00
C23    C     0.23922   0.21283   0.81579   0.00000  Uiso   1.00
H24    H     0.57624   0.85503   0.05453   0.00000  Uiso   1.00
H25    H     0.71340   0.73224   0.30634   0.00000  Uiso   1.00
H26    H     0.46757   0.73234   0.82286   0.00000  Uiso   1.00
H27    H     0.59054   0.10048   0.06464   0.00000  Uiso   1.00
H28    H     0.79790   0.59607   0.53764   0.00000  Uiso   1.00
H29    H     0.27955   0.59633   0.51818   0.00000  Uiso   1.00
H30    H     0.53884   0.37262   0.02801   0.00000  Uiso   1.00
H31    H     0.05564   0.85508   0.68579   0.00000  Uiso   1.00
H32    H     0.16424   0.73229   0.91737   0.00000  Uiso   1.00
H33    H     0.91842   0.73239   0.43389   0.00000  Uiso   1.00
H34    H     0.04138   0.10053   0.67568   0.00000  Uiso   1.00
H35    H     0.35218   0.59611   0.22193   0.00000  Uiso   1.00
H36    H     0.83383   0.59637   0.20247   0.00000  Uiso   1.00
H37    H     0.09312   0.37266   0.71231   0.00000  Uiso   1.00
O38    O     0.65586   0.51528   0.53876   0.00000  Uiso   1.00
O39    O     0.97580   0.51564   0.20125   0.00000  Uiso   1.00
O40    O     0.31599   0.53411   0.87016   0.00000  Uiso   1.00
N41    N     0.67810   0.61295   0.43157   0.00000  Uiso   1.00
N42    N     0.19348   0.61317   0.47845   0.00000  Uiso   1.00
N43    N     0.43588   0.33894   0.95506   0.00000  Uiso   1.00
N44    N     0.43827   0.61298   0.26169   0.00000  Uiso   1.00
N45    N     0.95364   0.61320   0.30857   0.00000  Uiso   1.00
N46    N     0.19604   0.33896   0.78519   0.00000  Uiso   1.00
C47    C     0.45697   0.14496   0.47006   0.00000  Uiso   1.00
C48    C     0.45931   0.21165   0.55575   0.00000  Uiso   1.00
C49    C     0.59487   0.26776   0.72241   0.00000  Uiso   1.00
C50    C     0.57179   0.32393   0.77680   0.00000  Uiso   1.00
C51    C     0.59870   0.42755   0.92632   0.00000  Uiso   1.00
C52    C     0.32575   0.21162   0.29306   0.00000  Uiso   1.00
C53    C     0.34901   0.26767   0.23887   0.00000  Uiso   1.00
C54    C     0.21348   0.32379   0.07211   0.00000  Uiso   1.00
C55    C     0.03301   0.42727   0.81377   0.00000  Uiso   1.00
C56    C     0.39257   0.01160   0.42445   0.00000  Uiso   1.00
C57    C     0.47199   0.89947   0.48067   0.00000  Uiso   1.00
C58    C     0.39270   0.78719   0.42450   0.00000  Uiso   1.00
C59    C     0.31598   0.58011   0.37014   0.00000  Uiso   1.00
C60    C     0.17492   0.14493   0.27028   0.00000  Uiso   1.00
C61    C     0.30611   0.21164   0.44723   0.00000  Uiso   1.00
C62    C     0.28281   0.26773   0.50138   0.00000  Uiso   1.00
C63    C     0.41831   0.32391   0.66810   0.00000  Uiso   1.00
C64    C     0.17255   0.21160   0.18455   0.00000  Uiso   1.00
C65    C     0.03695   0.26764   0.01783   0.00000  Uiso   1.00
C66    C     0.06000   0.32378   0.96340   0.00000  Uiso   1.00
C67    C     0.23937   0.01158   0.31594   0.00000  Uiso   1.00
C68    C     0.15993   0.89945   0.25965   0.00000  Uiso   1.00
C69    C     0.23922   0.78717   0.31579   0.00000  Uiso   1.00
H70    H     0.57624   0.14497   0.55453   0.00000  Uiso   1.00
H71    H     0.71340   0.26776   0.80634   0.00000  Uiso   1.00
H72    H     0.46757   0.26766   0.32286   0.00000  Uiso   1.00
H73    H     0.59054   0.89952   0.56464   0.00000  Uiso   1.00
H74    H     0.79790   0.40393   0.03764   0.00000  Uiso   1.00
H75    H     0.27955   0.40367   0.01818   0.00000  Uiso   1.00
H76    H     0.53884   0.62738   0.52801   0.00000  Uiso   1.00
H77    H     0.05564   0.14492   0.18579   0.00000  Uiso   1.00
H78    H     0.16424   0.26771   0.41737   0.00000  Uiso   1.00
H79    H     0.91842   0.26761   0.93389   0.00000  Uiso   1.00
H80    H     0.04138   0.89947   0.17568   0.00000  Uiso   1.00
H81    H     0.35218   0.40389   0.72193   0.00000  Uiso   1.00
H82    H     0.83383   0.40363   0.70247   0.00000  Uiso   1.00
H83    H     0.09312   0.62734   0.21231   0.00000  Uiso   1.00
O84    O     0.65586   0.48472   0.03876   0.00000  Uiso   1.00
O85    O     0.97580   0.48436   0.70125   0.00000  Uiso   1.00
O86    O     0.31599   0.46589   0.37016   0.00000  Uiso   1.00
N87    N     0.67810   0.38705   0.93157   0.00000  Uiso   1.00
N88    N     0.19348   0.38683   0.97845   0.00000  Uiso   1.00
N89    N     0.43588   0.66106   0.45506   0.00000  Uiso   1.00
N90    N     0.43827   0.38702   0.76169   0.00000  Uiso   1.00
N91    N     0.95364   0.38680   0.80857   0.00000  Uiso   1.00
N92    N     0.19604   0.66104   0.28519   0.00000  Uiso   1.00
