data_job_01642
_audit_creation_date              2018-12-19
_audit_creation_method            'Materials Studio'
_symmetry_space_group_name_H-M    'P1'
_symmetry_Int_Tables_number       1
_symmetry_cell_setting            triclinic
loop_
_symmetry_equiv_pos_as_xyz
  x,y,z
_cell_length_a                    38.8954
_cell_length_b                    16.1279
_cell_length_c                    9.5182
_cell_angle_alpha                 90.0000
_cell_angle_beta                  88.5735
_cell_angle_gamma                 90.0000
loop_
_atom_site_label
_atom_site_type_symbol
_atom_site_fract_x
_atom_site_fract_y
_atom_site_fract_z
_atom_site_U_iso_or_equiv
_atom_site_adp_type
_atom_site_occupancy
C1     C     0.83941   0.21998   0.84444   0.00000  Uiso   1.00
C2     C     0.87310   0.17665   0.87756   0.00000  Uiso   1.00
C3     C     0.89844   0.20748   0.96336   0.00000  Uiso   1.00
C4     C     0.92737   0.15841   0.98036   0.00000  Uiso   1.00
C5     C     0.97917   0.10288   0.04184   0.00000  Uiso   1.00
C6     C     0.83861   0.22638   0.68471   0.00000  Uiso   1.00
C7     C     0.83494   0.29903   0.60838   0.00000  Uiso   1.00
C8     C     0.83482   0.29181   0.46303   0.00000  Uiso   1.00
C9     C     0.83304   0.31349   0.22512   0.00000  Uiso   1.00
C10    C     0.81085   0.15960   0.88715   0.00000  Uiso   1.00
C11    C     0.78384   0.17610   0.98101   0.00000  Uiso   1.00
C12    C     0.76035   0.11266   0.00609   0.00000  Uiso   1.00
C13    C     0.71547   0.03064   0.08251   0.00000  Uiso   1.00
C14    C     0.84572   0.07798   0.72204   0.00000  Uiso   1.00
C15    C     0.87653   0.09953   0.81107   0.00000  Uiso   1.00
C16    C     0.90542   0.05038   0.82794   0.00000  Uiso   1.00
C17    C     0.93080   0.08114   0.91376   0.00000  Uiso   1.00
C18    C     0.84203   0.14926   0.61822   0.00000  Uiso   1.00
C19    C     0.84192   0.14193   0.47296   0.00000  Uiso   1.00
C20    C     0.83825   0.21455   0.39642   0.00000  Uiso   1.00
C21    C     0.81428   0.08247   0.82067   0.00000  Uiso   1.00
C22    C     0.79082   0.01900   0.84560   0.00000  Uiso   1.00
C23    C     0.76378   0.03539   0.93948   0.00000  Uiso   1.00
H24    H     0.83674   0.28002   0.89619   0.00000  Uiso   1.00
H25    H     0.89578   0.26718   0.01478   0.00000  Uiso   1.00
H26    H     0.83228   0.35870   0.65985   0.00000  Uiso   1.00
H27    H     0.78119   0.23579   0.03244   0.00000  Uiso   1.00
H28    H     0.96276   0.21894   0.11691   0.00000  Uiso   1.00
H29    H     0.82885   0.41192   0.36852   0.00000  Uiso   1.00
H30    H     0.72112   0.15273   0.15419   0.00000  Uiso   1.00
H31    H     0.84839   0.01794   0.67027   0.00000  Uiso   1.00
H32    H     0.90807   0.99070   0.77648   0.00000  Uiso   1.00
H33    H     0.84457   0.08224   0.42155   0.00000  Uiso   1.00
H34    H     0.79348   0.95932   0.79413   0.00000  Uiso   1.00
H35    H     0.97273   0.99454   0.92349   0.00000  Uiso   1.00
H36    H     0.83882   0.18753   0.17510   0.00000  Uiso   1.00
H37    H     0.73109   0.92834   0.96077   0.00000  Uiso   1.00
O38    O     0.00680   0.09357   0.09410   0.00000  Uiso   1.00
O39    O     0.83112   0.34675   0.11226   0.00000  Uiso   1.00
O40    O     0.68977   0.00670   0.14304   0.00000  Uiso   1.00
N41    N     0.95691   0.16985   0.05683   0.00000  Uiso   1.00
N42    N     0.83172   0.35029   0.35714   0.00000  Uiso   1.00
N43    N     0.73100   0.10797   0.09164   0.00000  Uiso   1.00
N44    N     0.96227   0.04911   0.95276   0.00000  Uiso   1.00
N45    N     0.83709   0.22954   0.25306   0.00000  Uiso   1.00
N46    N     0.73636   0.98723   0.98757   0.00000  Uiso   1.00
C47    C     0.33941   0.71998   0.84444   0.00000  Uiso   1.00
C48    C     0.37310   0.67665   0.87756   0.00000  Uiso   1.00
C49    C     0.39844   0.70748   0.96336   0.00000  Uiso   1.00
C50    C     0.42737   0.65841   0.98036   0.00000  Uiso   1.00
C51    C     0.47917   0.60288   0.04184   0.00000  Uiso   1.00
C52    C     0.33861   0.72638   0.68471   0.00000  Uiso   1.00
C53    C     0.33494   0.79903   0.60838   0.00000  Uiso   1.00
C54    C     0.33482   0.79181   0.46303   0.00000  Uiso   1.00
C55    C     0.33304   0.81349   0.22512   0.00000  Uiso   1.00
C56    C     0.31085   0.65960   0.88715   0.00000  Uiso   1.00
C57    C     0.28384   0.67610   0.98101   0.00000  Uiso   1.00
C58    C     0.26035   0.61266   0.00609   0.00000  Uiso   1.00
C59    C     0.21547   0.53064   0.08251   0.00000  Uiso   1.00
C60    C     0.34572   0.57798   0.72204   0.00000  Uiso   1.00
C61    C     0.37653   0.59953   0.81107   0.00000  Uiso   1.00
C62    C     0.40542   0.55038   0.82794   0.00000  Uiso   1.00
C63    C     0.43080   0.58114   0.91376   0.00000  Uiso   1.00
C64    C     0.34203   0.64926   0.61822   0.00000  Uiso   1.00
C65    C     0.34192   0.64193   0.47296   0.00000  Uiso   1.00
C66    C     0.33825   0.71455   0.39642   0.00000  Uiso   1.00
C67    C     0.31428   0.58247   0.82067   0.00000  Uiso   1.00
C68    C     0.29082   0.51900   0.84560   0.00000  Uiso   1.00
C69    C     0.26378   0.53539   0.93948   0.00000  Uiso   1.00
H70    H     0.33674   0.78002   0.89619   0.00000  Uiso   1.00
H71    H     0.39578   0.76718   0.01478   0.00000  Uiso   1.00
H72    H     0.33228   0.85870   0.65985   0.00000  Uiso   1.00
H73    H     0.28119   0.73579   0.03244   0.00000  Uiso   1.00
H74    H     0.46276   0.71894   0.11691   0.00000  Uiso   1.00
H75    H     0.32885   0.91192   0.36852   0.00000  Uiso   1.00
H76    H     0.22112   0.65273   0.15419   0.00000  Uiso   1.00
H77    H     0.34839   0.51794   0.67027   0.00000  Uiso   1.00
H78    H     0.40807   0.49070   0.77648   0.00000  Uiso   1.00
H79    H     0.34457   0.58224   0.42155   0.00000  Uiso   1.00
H80    H     0.29348   0.45932   0.79413   0.00000  Uiso   1.00
H81    H     0.47273   0.49454   0.92349   0.00000  Uiso   1.00
H82    H     0.33882   0.68753   0.17510   0.00000  Uiso   1.00
H83    H     0.23109   0.42834   0.96077   0.00000  Uiso   1.00
O84    O     0.50680   0.59357   0.09410   0.00000  Uiso   1.00
O85    O     0.33112   0.84675   0.11226   0.00000  Uiso   1.00
O86    O     0.18977   0.50670   0.14304   0.00000  Uiso   1.00
N87    N     0.45691   0.66985   0.05683   0.00000  Uiso   1.00
N88    N     0.33172   0.85029   0.35714   0.00000  Uiso   1.00
N89    N     0.23100   0.60797   0.09164   0.00000  Uiso   1.00
N90    N     0.46227   0.54911   0.95276   0.00000  Uiso   1.00
N91    N     0.33709   0.72954   0.25306   0.00000  Uiso   1.00
N92    N     0.23636   0.48723   0.98757   0.00000  Uiso   1.00
C93    C     0.16059   0.21998   0.65556   0.00000  Uiso   1.00
C94    C     0.12690   0.17665   0.62244   0.00000  Uiso   1.00
C95    C     0.10156   0.20748   0.53664   0.00000  Uiso   1.00
C96    C     0.07263   0.15841   0.51964   0.00000  Uiso   1.00
C97    C     0.02083   0.10288   0.45816   0.00000  Uiso   1.00
C98    C     0.16139   0.22638   0.81529   0.00000  Uiso   1.00
C99    C     0.16506   0.29903   0.89162   0.00000  Uiso   1.00
C100   C     0.16518   0.29181   0.03697   0.00000  Uiso   1.00
C101   C     0.16696   0.31349   0.27488   0.00000  Uiso   1.00
C102   C     0.18915   0.15960   0.61285   0.00000  Uiso   1.00
C103   C     0.21616   0.17610   0.51899   0.00000  Uiso   1.00
C104   C     0.23965   0.11266   0.49391   0.00000  Uiso   1.00
C105   C     0.28453   0.03064   0.41749   0.00000  Uiso   1.00
C106   C     0.15428   0.07798   0.77796   0.00000  Uiso   1.00
C107   C     0.12347   0.09953   0.68893   0.00000  Uiso   1.00
C108   C     0.09458   0.05038   0.67206   0.00000  Uiso   1.00
C109   C     0.06920   0.08114   0.58624   0.00000  Uiso   1.00
C110   C     0.15797   0.14926   0.88178   0.00000  Uiso   1.00
C111   C     0.15808   0.14193   0.02704   0.00000  Uiso   1.00
C112   C     0.16175   0.21455   0.10358   0.00000  Uiso   1.00
C113   C     0.18572   0.08247   0.67933   0.00000  Uiso   1.00
C114   C     0.20918   0.01900   0.65440   0.00000  Uiso   1.00
C115   C     0.23622   0.03539   0.56052   0.00000  Uiso   1.00
H116   H     0.16326   0.28002   0.60381   0.00000  Uiso   1.00
H117   H     0.10422   0.26718   0.48522   0.00000  Uiso   1.00
H118   H     0.16772   0.35870   0.84015   0.00000  Uiso   1.00
H119   H     0.21881   0.23579   0.46756   0.00000  Uiso   1.00
H120   H     0.03724   0.21894   0.38309   0.00000  Uiso   1.00
H121   H     0.17115   0.41192   0.13148   0.00000  Uiso   1.00
H122   H     0.27888   0.15273   0.34581   0.00000  Uiso   1.00
H123   H     0.15161   0.01794   0.82973   0.00000  Uiso   1.00
H124   H     0.09193   0.99070   0.72352   0.00000  Uiso   1.00
H125   H     0.15543   0.08224   0.07845   0.00000  Uiso   1.00
H126   H     0.20652   0.95932   0.70587   0.00000  Uiso   1.00
H127   H     0.02727   0.99454   0.57651   0.00000  Uiso   1.00
H128   H     0.16118   0.18753   0.32490   0.00000  Uiso   1.00
H129   H     0.26891   0.92834   0.53923   0.00000  Uiso   1.00
O130   O     0.99320   0.09357   0.40590   0.00000  Uiso   1.00
O131   O     0.16888   0.34675   0.38774   0.00000  Uiso   1.00
O132   O     0.31023   0.00670   0.35696   0.00000  Uiso   1.00
N133   N     0.04309   0.16985   0.44317   0.00000  Uiso   1.00
N134   N     0.16828   0.35029   0.14286   0.00000  Uiso   1.00
N135   N     0.26900   0.10797   0.40836   0.00000  Uiso   1.00
N136   N     0.03773   0.04911   0.54724   0.00000  Uiso   1.00
N137   N     0.16291   0.22954   0.24694   0.00000  Uiso   1.00
N138   N     0.26364   0.98723   0.51243   0.00000  Uiso   1.00
C139   C     0.66059   0.71998   0.65556   0.00000  Uiso   1.00
C140   C     0.62690   0.67665   0.62244   0.00000  Uiso   1.00
C141   C     0.60156   0.70748   0.53664   0.00000  Uiso   1.00
C142   C     0.57263   0.65841   0.51964   0.00000  Uiso   1.00
C143   C     0.52083   0.60288   0.45816   0.00000  Uiso   1.00
C144   C     0.66139   0.72638   0.81529   0.00000  Uiso   1.00
C145   C     0.66506   0.79903   0.89162   0.00000  Uiso   1.00
C146   C     0.66518   0.79181   0.03697   0.00000  Uiso   1.00
C147   C     0.66696   0.81349   0.27488   0.00000  Uiso   1.00
C148   C     0.68915   0.65960   0.61285   0.00000  Uiso   1.00
C149   C     0.71616   0.67610   0.51899   0.00000  Uiso   1.00
C150   C     0.73965   0.61266   0.49391   0.00000  Uiso   1.00
C151   C     0.78453   0.53064   0.41749   0.00000  Uiso   1.00
C152   C     0.65428   0.57798   0.77796   0.00000  Uiso   1.00
C153   C     0.62347   0.59953   0.68893   0.00000  Uiso   1.00
C154   C     0.59458   0.55038   0.67206   0.00000  Uiso   1.00
C155   C     0.56920   0.58114   0.58624   0.00000  Uiso   1.00
C156   C     0.65797   0.64926   0.88178   0.00000  Uiso   1.00
C157   C     0.65808   0.64193   0.02704   0.00000  Uiso   1.00
C158   C     0.66175   0.71455   0.10358   0.00000  Uiso   1.00
C159   C     0.68572   0.58247   0.67933   0.00000  Uiso   1.00
C160   C     0.70918   0.51900   0.65440   0.00000  Uiso   1.00
C161   C     0.73622   0.53539   0.56052   0.00000  Uiso   1.00
H162   H     0.66326   0.78002   0.60381   0.00000  Uiso   1.00
H163   H     0.60422   0.76718   0.48522   0.00000  Uiso   1.00
H164   H     0.66772   0.85870   0.84015   0.00000  Uiso   1.00
H165   H     0.71881   0.73579   0.46756   0.00000  Uiso   1.00
H166   H     0.53724   0.71894   0.38309   0.00000  Uiso   1.00
H167   H     0.67115   0.91192   0.13148   0.00000  Uiso   1.00
H168   H     0.77888   0.65273   0.34581   0.00000  Uiso   1.00
H169   H     0.65161   0.51794   0.82973   0.00000  Uiso   1.00
H170   H     0.59193   0.49070   0.72352   0.00000  Uiso   1.00
H171   H     0.65543   0.58224   0.07845   0.00000  Uiso   1.00
H172   H     0.70652   0.45932   0.70587   0.00000  Uiso   1.00
H173   H     0.52727   0.49454   0.57651   0.00000  Uiso   1.00
H174   H     0.66118   0.68753   0.32490   0.00000  Uiso   1.00
H175   H     0.76891   0.42834   0.53923   0.00000  Uiso   1.00
O176   O     0.49320   0.59357   0.40590   0.00000  Uiso   1.00
O177   O     0.66888   0.84675   0.38774   0.00000  Uiso   1.00
O178   O     0.81023   0.50670   0.35696   0.00000  Uiso   1.00
N179   N     0.54309   0.66985   0.44317   0.00000  Uiso   1.00
N180   N     0.66828   0.85029   0.14286   0.00000  Uiso   1.00
N181   N     0.76900   0.60797   0.40836   0.00000  Uiso   1.00
N182   N     0.53773   0.54911   0.54724   0.00000  Uiso   1.00
N183   N     0.66291   0.72954   0.24694   0.00000  Uiso   1.00
N184   N     0.76364   0.48723   0.51243   0.00000  Uiso   1.00
C185   C     0.16059   0.78002   0.15556   0.00000  Uiso   1.00
C186   C     0.12690   0.82335   0.12244   0.00000  Uiso   1.00
C187   C     0.10156   0.79252   0.03664   0.00000  Uiso   1.00
C188   C     0.07263   0.84159   0.01964   0.00000  Uiso   1.00
C189   C     0.02083   0.89712   0.95816   0.00000  Uiso   1.00
C190   C     0.16139   0.77362   0.31529   0.00000  Uiso   1.00
C191   C     0.16506   0.70097   0.39162   0.00000  Uiso   1.00
C192   C     0.16518   0.70819   0.53697   0.00000  Uiso   1.00
C193   C     0.16696   0.68651   0.77488   0.00000  Uiso   1.00
C194   C     0.18915   0.84040   0.11285   0.00000  Uiso   1.00
C195   C     0.21616   0.82390   0.01899   0.00000  Uiso   1.00
C196   C     0.23965   0.88734   0.99391   0.00000  Uiso   1.00
C197   C     0.28453   0.96936   0.91749   0.00000  Uiso   1.00
C198   C     0.15428   0.92202   0.27796   0.00000  Uiso   1.00
C199   C     0.12347   0.90047   0.18893   0.00000  Uiso   1.00
C200   C     0.09458   0.94962   0.17206   0.00000  Uiso   1.00
C201   C     0.06920   0.91886   0.08624   0.00000  Uiso   1.00
C202   C     0.15797   0.85074   0.38178   0.00000  Uiso   1.00
C203   C     0.15808   0.85807   0.52704   0.00000  Uiso   1.00
C204   C     0.16175   0.78545   0.60358   0.00000  Uiso   1.00
C205   C     0.18572   0.91753   0.17933   0.00000  Uiso   1.00
C206   C     0.20918   0.98100   0.15440   0.00000  Uiso   1.00
C207   C     0.23622   0.96461   0.06052   0.00000  Uiso   1.00
H208   H     0.16326   0.71998   0.10381   0.00000  Uiso   1.00
H209   H     0.10422   0.73282   0.98522   0.00000  Uiso   1.00
H210   H     0.16772   0.64130   0.34015   0.00000  Uiso   1.00
H211   H     0.21881   0.76421   0.96756   0.00000  Uiso   1.00
H212   H     0.03724   0.78106   0.88309   0.00000  Uiso   1.00
H213   H     0.17115   0.58808   0.63148   0.00000  Uiso   1.00
H214   H     0.27888   0.84727   0.84581   0.00000  Uiso   1.00
H215   H     0.15161   0.98206   0.32973   0.00000  Uiso   1.00
H216   H     0.09193   0.00930   0.22352   0.00000  Uiso   1.00
H217   H     0.15543   0.91776   0.57845   0.00000  Uiso   1.00
H218   H     0.20652   0.04068   0.20587   0.00000  Uiso   1.00
H219   H     0.02727   0.00546   0.07651   0.00000  Uiso   1.00
H220   H     0.16118   0.81247   0.82490   0.00000  Uiso   1.00
H221   H     0.26891   0.07166   0.03923   0.00000  Uiso   1.00
O222   O     0.99320   0.90643   0.90590   0.00000  Uiso   1.00
O223   O     0.16888   0.65325   0.88774   0.00000  Uiso   1.00
O224   O     0.31023   0.99330   0.85696   0.00000  Uiso   1.00
N225   N     0.04309   0.83015   0.94317   0.00000  Uiso   1.00
N226   N     0.16828   0.64971   0.64286   0.00000  Uiso   1.00
N227   N     0.26900   0.89203   0.90836   0.00000  Uiso   1.00
N228   N     0.03773   0.95089   0.04724   0.00000  Uiso   1.00
N229   N     0.16291   0.77046   0.74694   0.00000  Uiso   1.00
N230   N     0.26364   0.01277   0.01243   0.00000  Uiso   1.00
C231   C     0.66059   0.28002   0.15556   0.00000  Uiso   1.00
C232   C     0.62690   0.32335   0.12244   0.00000  Uiso   1.00
C233   C     0.60156   0.29252   0.03664   0.00000  Uiso   1.00
C234   C     0.57263   0.34159   0.01964   0.00000  Uiso   1.00
C235   C     0.52083   0.39712   0.95816   0.00000  Uiso   1.00
C236   C     0.66139   0.27362   0.31529   0.00000  Uiso   1.00
C237   C     0.66506   0.20097   0.39162   0.00000  Uiso   1.00
C238   C     0.66518   0.20819   0.53697   0.00000  Uiso   1.00
C239   C     0.66696   0.18651   0.77488   0.00000  Uiso   1.00
C240   C     0.68915   0.34040   0.11285   0.00000  Uiso   1.00
C241   C     0.71616   0.32390   0.01899   0.00000  Uiso   1.00
C242   C     0.73965   0.38734   0.99391   0.00000  Uiso   1.00
C243   C     0.78453   0.46936   0.91749   0.00000  Uiso   1.00
C244   C     0.65428   0.42202   0.27796   0.00000  Uiso   1.00
C245   C     0.62347   0.40047   0.18893   0.00000  Uiso   1.00
C246   C     0.59458   0.44962   0.17206   0.00000  Uiso   1.00
C247   C     0.56920   0.41886   0.08624   0.00000  Uiso   1.00
C248   C     0.65797   0.35074   0.38178   0.00000  Uiso   1.00
C249   C     0.65808   0.35807   0.52704   0.00000  Uiso   1.00
C250   C     0.66175   0.28545   0.60358   0.00000  Uiso   1.00
C251   C     0.68572   0.41753   0.17933   0.00000  Uiso   1.00
C252   C     0.70918   0.48100   0.15440   0.00000  Uiso   1.00
C253   C     0.73622   0.46461   0.06052   0.00000  Uiso   1.00
H254   H     0.66326   0.21998   0.10381   0.00000  Uiso   1.00
H255   H     0.60422   0.23282   0.98522   0.00000  Uiso   1.00
H256   H     0.66772   0.14130   0.34015   0.00000  Uiso   1.00
H257   H     0.71881   0.26421   0.96756   0.00000  Uiso   1.00
H258   H     0.53724   0.28106   0.88309   0.00000  Uiso   1.00
H259   H     0.67115   0.08808   0.63148   0.00000  Uiso   1.00
H260   H     0.77888   0.34727   0.84581   0.00000  Uiso   1.00
H261   H     0.65161   0.48206   0.32973   0.00000  Uiso   1.00
H262   H     0.59193   0.50930   0.22352   0.00000  Uiso   1.00
H263   H     0.65543   0.41776   0.57845   0.00000  Uiso   1.00
H264   H     0.70652   0.54068   0.20587   0.00000  Uiso   1.00
H265   H     0.52727   0.50546   0.07651   0.00000  Uiso   1.00
H266   H     0.66118   0.31247   0.82490   0.00000  Uiso   1.00
H267   H     0.76891   0.57166   0.03923   0.00000  Uiso   1.00
O268   O     0.49320   0.40643   0.90590   0.00000  Uiso   1.00
O269   O     0.66888   0.15325   0.88774   0.00000  Uiso   1.00
O270   O     0.81023   0.49330   0.85696   0.00000  Uiso   1.00
N271   N     0.54309   0.33015   0.94317   0.00000  Uiso   1.00
N272   N     0.66828   0.14971   0.64286   0.00000  Uiso   1.00
N273   N     0.76900   0.39203   0.90836   0.00000  Uiso   1.00
N274   N     0.53773   0.45089   0.04724   0.00000  Uiso   1.00
N275   N     0.66291   0.27046   0.74694   0.00000  Uiso   1.00
N276   N     0.76364   0.51277   0.01243   0.00000  Uiso   1.00
C277   C     0.83941   0.78002   0.34444   0.00000  Uiso   1.00
C278   C     0.87310   0.82335   0.37756   0.00000  Uiso   1.00
C279   C     0.89844   0.79252   0.46336   0.00000  Uiso   1.00
C280   C     0.92737   0.84159   0.48036   0.00000  Uiso   1.00
C281   C     0.97917   0.89712   0.54184   0.00000  Uiso   1.00
C282   C     0.83861   0.77362   0.18471   0.00000  Uiso   1.00
C283   C     0.83494   0.70097   0.10838   0.00000  Uiso   1.00
C284   C     0.83482   0.70819   0.96303   0.00000  Uiso   1.00
C285   C     0.83304   0.68651   0.72512   0.00000  Uiso   1.00
C286   C     0.81085   0.84040   0.38715   0.00000  Uiso   1.00
C287   C     0.78384   0.82390   0.48101   0.00000  Uiso   1.00
C288   C     0.76035   0.88734   0.50609   0.00000  Uiso   1.00
C289   C     0.71547   0.96936   0.58251   0.00000  Uiso   1.00
C290   C     0.84572   0.92202   0.22204   0.00000  Uiso   1.00
C291   C     0.87653   0.90047   0.31107   0.00000  Uiso   1.00
C292   C     0.90542   0.94962   0.32794   0.00000  Uiso   1.00
C293   C     0.93080   0.91886   0.41376   0.00000  Uiso   1.00
C294   C     0.84203   0.85074   0.11822   0.00000  Uiso   1.00
C295   C     0.84192   0.85807   0.97296   0.00000  Uiso   1.00
C296   C     0.83825   0.78545   0.89642   0.00000  Uiso   1.00
C297   C     0.81428   0.91753   0.32067   0.00000  Uiso   1.00
C298   C     0.79082   0.98100   0.34560   0.00000  Uiso   1.00
C299   C     0.76378   0.96461   0.43948   0.00000  Uiso   1.00
H300   H     0.83674   0.71998   0.39619   0.00000  Uiso   1.00
H301   H     0.89578   0.73282   0.51478   0.00000  Uiso   1.00
H302   H     0.83228   0.64130   0.15985   0.00000  Uiso   1.00
H303   H     0.78119   0.76421   0.53244   0.00000  Uiso   1.00
H304   H     0.96276   0.78106   0.61691   0.00000  Uiso   1.00
H305   H     0.82885   0.58808   0.86852   0.00000  Uiso   1.00
H306   H     0.72112   0.84727   0.65419   0.00000  Uiso   1.00
H307   H     0.84839   0.98206   0.17027   0.00000  Uiso   1.00
H308   H     0.90807   0.00930   0.27648   0.00000  Uiso   1.00
H309   H     0.84457   0.91776   0.92155   0.00000  Uiso   1.00
H310   H     0.79348   0.04068   0.29413   0.00000  Uiso   1.00
H311   H     0.97273   0.00546   0.42349   0.00000  Uiso   1.00
H312   H     0.83882   0.81247   0.67510   0.00000  Uiso   1.00
H313   H     0.73109   0.07166   0.46077   0.00000  Uiso   1.00
O314   O     0.00680   0.90643   0.59410   0.00000  Uiso   1.00
O315   O     0.83112   0.65325   0.61226   0.00000  Uiso   1.00
O316   O     0.68977   0.99330   0.64304   0.00000  Uiso   1.00
N317   N     0.95691   0.83015   0.55683   0.00000  Uiso   1.00
N318   N     0.83172   0.64971   0.85714   0.00000  Uiso   1.00
N319   N     0.73100   0.89203   0.59164   0.00000  Uiso   1.00
N320   N     0.96227   0.95089   0.45276   0.00000  Uiso   1.00
N321   N     0.83709   0.77046   0.75306   0.00000  Uiso   1.00
N322   N     0.73636   0.01277   0.48757   0.00000  Uiso   1.00
C323   C     0.33941   0.28002   0.34444   0.00000  Uiso   1.00
C324   C     0.37310   0.32335   0.37756   0.00000  Uiso   1.00
C325   C     0.39844   0.29252   0.46336   0.00000  Uiso   1.00
C326   C     0.42737   0.34159   0.48036   0.00000  Uiso   1.00
C327   C     0.47917   0.39712   0.54184   0.00000  Uiso   1.00
C328   C     0.33861   0.27362   0.18471   0.00000  Uiso   1.00
C329   C     0.33494   0.20097   0.10838   0.00000  Uiso   1.00
C330   C     0.33482   0.20819   0.96303   0.00000  Uiso   1.00
C331   C     0.33304   0.18651   0.72512   0.00000  Uiso   1.00
C332   C     0.31085   0.34040   0.38715   0.00000  Uiso   1.00
C333   C     0.28384   0.32390   0.48101   0.00000  Uiso   1.00
C334   C     0.26035   0.38734   0.50609   0.00000  Uiso   1.00
C335   C     0.21547   0.46936   0.58251   0.00000  Uiso   1.00
C336   C     0.34572   0.42202   0.22204   0.00000  Uiso   1.00
C337   C     0.37653   0.40047   0.31107   0.00000  Uiso   1.00
C338   C     0.40542   0.44962   0.32794   0.00000  Uiso   1.00
C339   C     0.43080   0.41886   0.41376   0.00000  Uiso   1.00
C340   C     0.34203   0.35074   0.11822   0.00000  Uiso   1.00
C341   C     0.34192   0.35807   0.97296   0.00000  Uiso   1.00
C342   C     0.33825   0.28545   0.89642   0.00000  Uiso   1.00
C343   C     0.31428   0.41753   0.32067   0.00000  Uiso   1.00
C344   C     0.29082   0.48100   0.34560   0.00000  Uiso   1.00
C345   C     0.26378   0.46461   0.43948   0.00000  Uiso   1.00
H346   H     0.33674   0.21998   0.39619   0.00000  Uiso   1.00
H347   H     0.39578   0.23282   0.51478   0.00000  Uiso   1.00
H348   H     0.33228   0.14130   0.15985   0.00000  Uiso   1.00
H349   H     0.28119   0.26421   0.53244   0.00000  Uiso   1.00
H350   H     0.46276   0.28106   0.61691   0.00000  Uiso   1.00
H351   H     0.32885   0.08808   0.86852   0.00000  Uiso   1.00
H352   H     0.22112   0.34727   0.65419   0.00000  Uiso   1.00
H353   H     0.34839   0.48206   0.17027   0.00000  Uiso   1.00
H354   H     0.40807   0.50930   0.27648   0.00000  Uiso   1.00
H355   H     0.34457   0.41776   0.92155   0.00000  Uiso   1.00
H356   H     0.29348   0.54068   0.29413   0.00000  Uiso   1.00
H357   H     0.47273   0.50546   0.42349   0.00000  Uiso   1.00
H358   H     0.33882   0.31247   0.67510   0.00000  Uiso   1.00
H359   H     0.23109   0.57166   0.46077   0.00000  Uiso   1.00
O360   O     0.50680   0.40643   0.59410   0.00000  Uiso   1.00
O361   O     0.33112   0.15325   0.61226   0.00000  Uiso   1.00
O362   O     0.18977   0.49330   0.64304   0.00000  Uiso   1.00
N363   N     0.45691   0.33015   0.55683   0.00000  Uiso   1.00
N364   N     0.33172   0.14971   0.85714   0.00000  Uiso   1.00
N365   N     0.23100   0.39203   0.59164   0.00000  Uiso   1.00
N366   N     0.46227   0.45089   0.45276   0.00000  Uiso   1.00
N367   N     0.33709   0.27046   0.75306   0.00000  Uiso   1.00
N368   N     0.23636   0.51277   0.48757   0.00000  Uiso   1.00
