data_job_02454
_audit_creation_date              2018-12-19
_audit_creation_method            'Materials Studio'
_symmetry_space_group_name_H-M    'P1'
_symmetry_Int_Tables_number       1
_symmetry_cell_setting            triclinic
loop_
_symmetry_equiv_pos_as_xyz
  x,y,z
_cell_length_a                    18.1365
_cell_length_b                    10.7002
_cell_length_c                    31.0567
_cell_angle_alpha                 90.0000
_cell_angle_beta                  90.0000
_cell_angle_gamma                 90.0000
loop_
_atom_site_label
_atom_site_type_symbol
_atom_site_fract_x
_atom_site_fract_y
_atom_site_fract_z
_atom_site_U_iso_or_equiv
_atom_site_adp_type
_atom_site_occupancy
C1     C     0.02223   0.84602   0.64415   0.00000  Uiso   1.00
C2     C     0.98582   0.85977   0.60014   0.00000  Uiso   1.00
C3     C     0.95846   0.96998   0.58283   0.00000  Uiso   1.00
C4     C     0.92719   0.96306   0.54209   0.00000  Uiso   1.00
C5     C     0.87120   0.00161   0.47721   0.00000  Uiso   1.00
C6     C     0.97815   0.74639   0.66802   0.00000  Uiso   1.00
C7     C     0.94435   0.76126   0.70778   0.00000  Uiso   1.00
C8     C     0.90663   0.65888   0.72419   0.00000  Uiso   1.00
C9     C     0.83877   0.52137   0.76470   0.00000  Uiso   1.00
C10    C     0.09799   0.78918   0.63580   0.00000  Uiso   1.00
C11    C     0.16496   0.84002   0.64848   0.00000  Uiso   1.00
C12    C     0.22814   0.77365   0.63777   0.00000  Uiso   1.00
C13    C     0.34635   0.70258   0.62826   0.00000  Uiso   1.00
C14    C     0.01535   0.63776   0.60259   0.00000  Uiso   1.00
C15    C     0.98209   0.74665   0.57757   0.00000  Uiso   1.00
C16    C     0.95085   0.73956   0.53685   0.00000  Uiso   1.00
C17    C     0.92345   0.84974   0.51948   0.00000  Uiso   1.00
C18    C     0.97441   0.63327   0.64545   0.00000  Uiso   1.00
C19    C     0.93674   0.53084   0.66180   0.00000  Uiso   1.00
C20    C     0.90288   0.54556   0.70158   0.00000  Uiso   1.00
C21    C     0.09426   0.67606   0.61323   0.00000  Uiso   1.00
C22    C     0.15735   0.60959   0.60250   0.00000  Uiso   1.00
C23    C     0.22440   0.66032   0.61516   0.00000  Uiso   1.00
H24    H     0.02514   0.93409   0.66172   0.00000  Uiso   1.00
H25    H     0.96136   0.05750   0.60031   0.00000  Uiso   1.00
H26    H     0.94726   0.84881   0.72524   0.00000  Uiso   1.00
H27    H     0.16783   0.92756   0.66595   0.00000  Uiso   1.00
H28    H     0.88898   0.14444   0.52227   0.00000  Uiso   1.00
H29    H     0.85926   0.70439   0.78571   0.00000  Uiso   1.00
H30    H     0.32438   0.87043   0.66069   0.00000  Uiso   1.00
H31    H     0.01244   0.54968   0.58501   0.00000  Uiso   1.00
H32    H     0.94797   0.65200   0.51939   0.00000  Uiso   1.00
H33    H     0.93386   0.44331   0.64432   0.00000  Uiso   1.00
H34    H     0.15444   0.52206   0.58503   0.00000  Uiso   1.00
H35    H     0.87811   0.81531   0.45659   0.00000  Uiso   1.00
H36    H     0.84839   0.37526   0.72004   0.00000  Uiso   1.00
H37    H     0.31351   0.54131   0.59501   0.00000  Uiso   1.00
O38    O     0.84134   0.05411   0.44765   0.00000  Uiso   1.00
O39    O     0.80236   0.47678   0.79328   0.00000  Uiso   1.00
O40    O     0.41259   0.69464   0.62925   0.00000  Uiso   1.00
N41    N     0.89528   0.05294   0.51582   0.00000  Uiso   1.00
N42    N     0.86748   0.64152   0.76212   0.00000  Uiso   1.00
N43    N     0.30234   0.79675   0.64524   0.00000  Uiso   1.00
N44    N     0.88943   0.87584   0.48048   0.00000  Uiso   1.00
N45    N     0.86164   0.46443   0.72677   0.00000  Uiso   1.00
N46    N     0.29649   0.61965   0.60990   0.00000  Uiso   1.00
C47    C     0.47777   0.65398   0.14415   0.00000  Uiso   1.00
C48    C     0.51418   0.64023   0.10014   0.00000  Uiso   1.00
C49    C     0.54154   0.53002   0.08283   0.00000  Uiso   1.00
C50    C     0.57281   0.53694   0.04209   0.00000  Uiso   1.00
C51    C     0.62880   0.49839   0.97721   0.00000  Uiso   1.00
C52    C     0.52185   0.75361   0.16802   0.00000  Uiso   1.00
C53    C     0.55565   0.73874   0.20778   0.00000  Uiso   1.00
C54    C     0.59337   0.84112   0.22419   0.00000  Uiso   1.00
C55    C     0.66123   0.97863   0.26470   0.00000  Uiso   1.00
C56    C     0.40201   0.71082   0.13580   0.00000  Uiso   1.00
C57    C     0.33504   0.65998   0.14848   0.00000  Uiso   1.00
C58    C     0.27186   0.72635   0.13777   0.00000  Uiso   1.00
C59    C     0.15365   0.79742   0.12826   0.00000  Uiso   1.00
C60    C     0.48465   0.86224   0.10259   0.00000  Uiso   1.00
C61    C     0.51791   0.75335   0.07757   0.00000  Uiso   1.00
C62    C     0.54915   0.76044   0.03685   0.00000  Uiso   1.00
C63    C     0.57655   0.65026   0.01948   0.00000  Uiso   1.00
C64    C     0.52559   0.86673   0.14545   0.00000  Uiso   1.00
C65    C     0.56326   0.96916   0.16180   0.00000  Uiso   1.00
C66    C     0.59712   0.95444   0.20158   0.00000  Uiso   1.00
C67    C     0.40574   0.82394   0.11323   0.00000  Uiso   1.00
C68    C     0.34265   0.89041   0.10250   0.00000  Uiso   1.00
C69    C     0.27560   0.83968   0.11516   0.00000  Uiso   1.00
H70    H     0.47486   0.56591   0.16172   0.00000  Uiso   1.00
H71    H     0.53864   0.44250   0.10031   0.00000  Uiso   1.00
H72    H     0.55274   0.65119   0.22524   0.00000  Uiso   1.00
H73    H     0.33217   0.57244   0.16595   0.00000  Uiso   1.00
H74    H     0.61102   0.35556   0.02227   0.00000  Uiso   1.00
H75    H     0.64074   0.79561   0.28571   0.00000  Uiso   1.00
H76    H     0.17562   0.62957   0.16069   0.00000  Uiso   1.00
H77    H     0.48756   0.95032   0.08501   0.00000  Uiso   1.00
H78    H     0.55203   0.84800   0.01939   0.00000  Uiso   1.00
H79    H     0.56614   0.05669   0.14432   0.00000  Uiso   1.00
H80    H     0.34556   0.97794   0.08503   0.00000  Uiso   1.00
H81    H     0.62189   0.68469   0.95659   0.00000  Uiso   1.00
H82    H     0.65161   0.12474   0.22004   0.00000  Uiso   1.00
H83    H     0.18649   0.95869   0.09501   0.00000  Uiso   1.00
O84    O     0.65866   0.44589   0.94765   0.00000  Uiso   1.00
O85    O     0.69764   0.02322   0.29328   0.00000  Uiso   1.00
O86    O     0.08741   0.80536   0.12925   0.00000  Uiso   1.00
N87    N     0.60472   0.44706   0.01582   0.00000  Uiso   1.00
N88    N     0.63252   0.85848   0.26212   0.00000  Uiso   1.00
N89    N     0.19766   0.70325   0.14524   0.00000  Uiso   1.00
N90    N     0.61057   0.62416   0.98048   0.00000  Uiso   1.00
N91    N     0.63836   0.03557   0.22677   0.00000  Uiso   1.00
N92    N     0.20351   0.88035   0.10990   0.00000  Uiso   1.00
C93    C     0.97777   0.84602   0.85585   0.00000  Uiso   1.00
C94    C     0.01418   0.85977   0.89986   0.00000  Uiso   1.00
C95    C     0.04154   0.96998   0.91717   0.00000  Uiso   1.00
C96    C     0.07281   0.96306   0.95791   0.00000  Uiso   1.00
C97    C     0.12880   0.00161   0.02279   0.00000  Uiso   1.00
C98    C     0.02185   0.74639   0.83198   0.00000  Uiso   1.00
C99    C     0.05565   0.76126   0.79222   0.00000  Uiso   1.00
C100   C     0.09337   0.65888   0.77581   0.00000  Uiso   1.00
C101   C     0.16123   0.52137   0.73530   0.00000  Uiso   1.00
C102   C     0.90201   0.78918   0.86420   0.00000  Uiso   1.00
C103   C     0.83504   0.84002   0.85152   0.00000  Uiso   1.00
C104   C     0.77186   0.77365   0.86223   0.00000  Uiso   1.00
C105   C     0.65365   0.70258   0.87174   0.00000  Uiso   1.00
C106   C     0.98465   0.63776   0.89741   0.00000  Uiso   1.00
C107   C     0.01791   0.74665   0.92243   0.00000  Uiso   1.00
C108   C     0.04915   0.73956   0.96315   0.00000  Uiso   1.00
C109   C     0.07655   0.84974   0.98052   0.00000  Uiso   1.00
C110   C     0.02559   0.63327   0.85455   0.00000  Uiso   1.00
C111   C     0.06326   0.53084   0.83820   0.00000  Uiso   1.00
C112   C     0.09712   0.54556   0.79842   0.00000  Uiso   1.00
C113   C     0.90574   0.67606   0.88677   0.00000  Uiso   1.00
C114   C     0.84265   0.60959   0.89750   0.00000  Uiso   1.00
C115   C     0.77560   0.66032   0.88484   0.00000  Uiso   1.00
H116   H     0.97486   0.93409   0.83828   0.00000  Uiso   1.00
H117   H     0.03864   0.05750   0.89969   0.00000  Uiso   1.00
H118   H     0.05274   0.84881   0.77476   0.00000  Uiso   1.00
H119   H     0.83217   0.92756   0.83405   0.00000  Uiso   1.00
H120   H     0.11102   0.14444   0.97773   0.00000  Uiso   1.00
H121   H     0.14074   0.70439   0.71429   0.00000  Uiso   1.00
H122   H     0.67562   0.87043   0.83931   0.00000  Uiso   1.00
H123   H     0.98756   0.54968   0.91499   0.00000  Uiso   1.00
H124   H     0.05203   0.65200   0.98061   0.00000  Uiso   1.00
H125   H     0.06614   0.44331   0.85568   0.00000  Uiso   1.00
H126   H     0.84556   0.52206   0.91497   0.00000  Uiso   1.00
H127   H     0.12189   0.81531   0.04341   0.00000  Uiso   1.00
H128   H     0.15161   0.37526   0.77996   0.00000  Uiso   1.00
H129   H     0.68649   0.54131   0.90499   0.00000  Uiso   1.00
O130   O     0.15866   0.05411   0.05235   0.00000  Uiso   1.00
O131   O     0.19764   0.47678   0.70672   0.00000  Uiso   1.00
O132   O     0.58741   0.69464   0.87075   0.00000  Uiso   1.00
N133   N     0.10472   0.05294   0.98418   0.00000  Uiso   1.00
N134   N     0.13252   0.64152   0.73788   0.00000  Uiso   1.00
N135   N     0.69766   0.79675   0.85476   0.00000  Uiso   1.00
N136   N     0.11057   0.87584   0.01952   0.00000  Uiso   1.00
N137   N     0.13836   0.46443   0.77323   0.00000  Uiso   1.00
N138   N     0.70351   0.61965   0.89010   0.00000  Uiso   1.00
C139   C     0.52223   0.65398   0.35585   0.00000  Uiso   1.00
C140   C     0.48582   0.64023   0.39986   0.00000  Uiso   1.00
C141   C     0.45846   0.53002   0.41717   0.00000  Uiso   1.00
C142   C     0.42719   0.53694   0.45791   0.00000  Uiso   1.00
C143   C     0.37120   0.49839   0.52279   0.00000  Uiso   1.00
C144   C     0.47815   0.75361   0.33198   0.00000  Uiso   1.00
C145   C     0.44435   0.73874   0.29222   0.00000  Uiso   1.00
C146   C     0.40663   0.84112   0.27581   0.00000  Uiso   1.00
C147   C     0.33877   0.97863   0.23530   0.00000  Uiso   1.00
C148   C     0.59799   0.71082   0.36420   0.00000  Uiso   1.00
C149   C     0.66496   0.65998   0.35152   0.00000  Uiso   1.00
C150   C     0.72814   0.72635   0.36223   0.00000  Uiso   1.00
C151   C     0.84635   0.79742   0.37174   0.00000  Uiso   1.00
C152   C     0.51535   0.86224   0.39741   0.00000  Uiso   1.00
C153   C     0.48209   0.75335   0.42243   0.00000  Uiso   1.00
C154   C     0.45085   0.76044   0.46315   0.00000  Uiso   1.00
C155   C     0.42345   0.65026   0.48052   0.00000  Uiso   1.00
C156   C     0.47441   0.86673   0.35455   0.00000  Uiso   1.00
C157   C     0.43674   0.96916   0.33820   0.00000  Uiso   1.00
C158   C     0.40288   0.95444   0.29842   0.00000  Uiso   1.00
C159   C     0.59426   0.82394   0.38677   0.00000  Uiso   1.00
C160   C     0.65735   0.89041   0.39750   0.00000  Uiso   1.00
C161   C     0.72440   0.83968   0.38484   0.00000  Uiso   1.00
H162   H     0.52514   0.56591   0.33828   0.00000  Uiso   1.00
H163   H     0.46136   0.44250   0.39969   0.00000  Uiso   1.00
H164   H     0.44726   0.65119   0.27476   0.00000  Uiso   1.00
H165   H     0.66783   0.57244   0.33405   0.00000  Uiso   1.00
H166   H     0.38898   0.35556   0.47773   0.00000  Uiso   1.00
H167   H     0.35926   0.79561   0.21429   0.00000  Uiso   1.00
H168   H     0.82438   0.62957   0.33931   0.00000  Uiso   1.00
H169   H     0.51244   0.95032   0.41499   0.00000  Uiso   1.00
H170   H     0.44797   0.84800   0.48061   0.00000  Uiso   1.00
H171   H     0.43386   0.05669   0.35568   0.00000  Uiso   1.00
H172   H     0.65444   0.97794   0.41497   0.00000  Uiso   1.00
H173   H     0.37811   0.68469   0.54341   0.00000  Uiso   1.00
H174   H     0.34839   0.12474   0.27996   0.00000  Uiso   1.00
H175   H     0.81351   0.95869   0.40499   0.00000  Uiso   1.00
O176   O     0.34134   0.44589   0.55235   0.00000  Uiso   1.00
O177   O     0.30236   0.02322   0.20672   0.00000  Uiso   1.00
O178   O     0.91259   0.80536   0.37075   0.00000  Uiso   1.00
N179   N     0.39528   0.44706   0.48418   0.00000  Uiso   1.00
N180   N     0.36748   0.85848   0.23788   0.00000  Uiso   1.00
N181   N     0.80234   0.70325   0.35476   0.00000  Uiso   1.00
N182   N     0.38943   0.62416   0.51952   0.00000  Uiso   1.00
N183   N     0.36164   0.03557   0.27323   0.00000  Uiso   1.00
N184   N     0.79649   0.88035   0.39010   0.00000  Uiso   1.00
C185   C     0.97777   0.15398   0.35585   0.00000  Uiso   1.00
C186   C     0.01418   0.14023   0.39986   0.00000  Uiso   1.00
C187   C     0.04154   0.03002   0.41717   0.00000  Uiso   1.00
C188   C     0.07281   0.03694   0.45791   0.00000  Uiso   1.00
C189   C     0.12880   0.99839   0.52279   0.00000  Uiso   1.00
C190   C     0.02185   0.25361   0.33198   0.00000  Uiso   1.00
C191   C     0.05565   0.23874   0.29222   0.00000  Uiso   1.00
C192   C     0.09337   0.34112   0.27581   0.00000  Uiso   1.00
C193   C     0.16123   0.47863   0.23530   0.00000  Uiso   1.00
C194   C     0.90201   0.21082   0.36420   0.00000  Uiso   1.00
C195   C     0.83504   0.15998   0.35152   0.00000  Uiso   1.00
C196   C     0.77186   0.22635   0.36223   0.00000  Uiso   1.00
C197   C     0.65365   0.29742   0.37174   0.00000  Uiso   1.00
C198   C     0.98465   0.36224   0.39741   0.00000  Uiso   1.00
C199   C     0.01791   0.25335   0.42243   0.00000  Uiso   1.00
C200   C     0.04915   0.26044   0.46315   0.00000  Uiso   1.00
C201   C     0.07655   0.15026   0.48052   0.00000  Uiso   1.00
C202   C     0.02559   0.36673   0.35455   0.00000  Uiso   1.00
C203   C     0.06326   0.46916   0.33820   0.00000  Uiso   1.00
C204   C     0.09712   0.45444   0.29842   0.00000  Uiso   1.00
C205   C     0.90574   0.32394   0.38677   0.00000  Uiso   1.00
C206   C     0.84265   0.39041   0.39750   0.00000  Uiso   1.00
C207   C     0.77560   0.33968   0.38484   0.00000  Uiso   1.00
H208   H     0.97486   0.06591   0.33828   0.00000  Uiso   1.00
H209   H     0.03864   0.94250   0.39969   0.00000  Uiso   1.00
H210   H     0.05274   0.15119   0.27476   0.00000  Uiso   1.00
H211   H     0.83217   0.07244   0.33405   0.00000  Uiso   1.00
H212   H     0.11102   0.85556   0.47773   0.00000  Uiso   1.00
H213   H     0.14074   0.29561   0.21429   0.00000  Uiso   1.00
H214   H     0.67562   0.12957   0.33931   0.00000  Uiso   1.00
H215   H     0.98756   0.45032   0.41499   0.00000  Uiso   1.00
H216   H     0.05203   0.34800   0.48061   0.00000  Uiso   1.00
H217   H     0.06614   0.55669   0.35568   0.00000  Uiso   1.00
H218   H     0.84556   0.47794   0.41497   0.00000  Uiso   1.00
H219   H     0.12189   0.18469   0.54341   0.00000  Uiso   1.00
H220   H     0.15161   0.62474   0.27996   0.00000  Uiso   1.00
H221   H     0.68649   0.45869   0.40499   0.00000  Uiso   1.00
O222   O     0.15866   0.94589   0.55235   0.00000  Uiso   1.00
O223   O     0.19764   0.52322   0.20672   0.00000  Uiso   1.00
O224   O     0.58741   0.30536   0.37075   0.00000  Uiso   1.00
N225   N     0.10472   0.94706   0.48418   0.00000  Uiso   1.00
N226   N     0.13252   0.35848   0.23788   0.00000  Uiso   1.00
N227   N     0.69766   0.20325   0.35476   0.00000  Uiso   1.00
N228   N     0.11057   0.12416   0.51952   0.00000  Uiso   1.00
N229   N     0.13836   0.53557   0.27323   0.00000  Uiso   1.00
N230   N     0.70351   0.38035   0.39010   0.00000  Uiso   1.00
C231   C     0.52223   0.34602   0.85585   0.00000  Uiso   1.00
C232   C     0.48582   0.35977   0.89986   0.00000  Uiso   1.00
C233   C     0.45846   0.46998   0.91717   0.00000  Uiso   1.00
C234   C     0.42719   0.46306   0.95791   0.00000  Uiso   1.00
C235   C     0.37120   0.50161   0.02279   0.00000  Uiso   1.00
C236   C     0.47815   0.24639   0.83198   0.00000  Uiso   1.00
C237   C     0.44435   0.26126   0.79222   0.00000  Uiso   1.00
C238   C     0.40663   0.15888   0.77581   0.00000  Uiso   1.00
C239   C     0.33877   0.02137   0.73530   0.00000  Uiso   1.00
C240   C     0.59799   0.28918   0.86420   0.00000  Uiso   1.00
C241   C     0.66496   0.34002   0.85152   0.00000  Uiso   1.00
C242   C     0.72814   0.27365   0.86223   0.00000  Uiso   1.00
C243   C     0.84635   0.20258   0.87174   0.00000  Uiso   1.00
C244   C     0.51535   0.13776   0.89741   0.00000  Uiso   1.00
C245   C     0.48209   0.24665   0.92243   0.00000  Uiso   1.00
C246   C     0.45085   0.23956   0.96315   0.00000  Uiso   1.00
C247   C     0.42345   0.34974   0.98052   0.00000  Uiso   1.00
C248   C     0.47441   0.13327   0.85455   0.00000  Uiso   1.00
C249   C     0.43674   0.03084   0.83820   0.00000  Uiso   1.00
C250   C     0.40288   0.04556   0.79842   0.00000  Uiso   1.00
C251   C     0.59426   0.17606   0.88677   0.00000  Uiso   1.00
C252   C     0.65735   0.10959   0.89750   0.00000  Uiso   1.00
C253   C     0.72440   0.16032   0.88484   0.00000  Uiso   1.00
H254   H     0.52514   0.43409   0.83828   0.00000  Uiso   1.00
H255   H     0.46136   0.55750   0.89969   0.00000  Uiso   1.00
H256   H     0.44726   0.34881   0.77476   0.00000  Uiso   1.00
H257   H     0.66783   0.42756   0.83405   0.00000  Uiso   1.00
H258   H     0.38898   0.64444   0.97773   0.00000  Uiso   1.00
H259   H     0.35926   0.20439   0.71429   0.00000  Uiso   1.00
H260   H     0.82438   0.37043   0.83931   0.00000  Uiso   1.00
H261   H     0.51244   0.04968   0.91499   0.00000  Uiso   1.00
H262   H     0.44797   0.15200   0.98061   0.00000  Uiso   1.00
H263   H     0.43386   0.94331   0.85568   0.00000  Uiso   1.00
H264   H     0.65444   0.02206   0.91497   0.00000  Uiso   1.00
H265   H     0.37811   0.31531   0.04341   0.00000  Uiso   1.00
H266   H     0.34839   0.87526   0.77996   0.00000  Uiso   1.00
H267   H     0.81351   0.04131   0.90499   0.00000  Uiso   1.00
O268   O     0.34134   0.55411   0.05235   0.00000  Uiso   1.00
O269   O     0.30236   0.97678   0.70672   0.00000  Uiso   1.00
O270   O     0.91259   0.19464   0.87075   0.00000  Uiso   1.00
N271   N     0.39528   0.55294   0.98418   0.00000  Uiso   1.00
N272   N     0.36748   0.14152   0.73788   0.00000  Uiso   1.00
N273   N     0.80234   0.29675   0.85476   0.00000  Uiso   1.00
N274   N     0.38943   0.37584   0.01952   0.00000  Uiso   1.00
N275   N     0.36164   0.96443   0.77323   0.00000  Uiso   1.00
N276   N     0.79649   0.11965   0.89010   0.00000  Uiso   1.00
C277   C     0.02223   0.15398   0.14415   0.00000  Uiso   1.00
C278   C     0.98582   0.14023   0.10014   0.00000  Uiso   1.00
C279   C     0.95846   0.03002   0.08283   0.00000  Uiso   1.00
C280   C     0.92719   0.03694   0.04209   0.00000  Uiso   1.00
C281   C     0.87120   0.99839   0.97721   0.00000  Uiso   1.00
C282   C     0.97815   0.25361   0.16802   0.00000  Uiso   1.00
C283   C     0.94435   0.23874   0.20778   0.00000  Uiso   1.00
C284   C     0.90663   0.34112   0.22419   0.00000  Uiso   1.00
C285   C     0.83877   0.47863   0.26470   0.00000  Uiso   1.00
C286   C     0.09799   0.21082   0.13580   0.00000  Uiso   1.00
C287   C     0.16496   0.15998   0.14848   0.00000  Uiso   1.00
C288   C     0.22814   0.22635   0.13777   0.00000  Uiso   1.00
C289   C     0.34635   0.29742   0.12826   0.00000  Uiso   1.00
C290   C     0.01535   0.36224   0.10259   0.00000  Uiso   1.00
C291   C     0.98209   0.25335   0.07757   0.00000  Uiso   1.00
C292   C     0.95085   0.26044   0.03685   0.00000  Uiso   1.00
C293   C     0.92345   0.15026   0.01948   0.00000  Uiso   1.00
C294   C     0.97441   0.36673   0.14545   0.00000  Uiso   1.00
C295   C     0.93674   0.46916   0.16180   0.00000  Uiso   1.00
C296   C     0.90288   0.45444   0.20158   0.00000  Uiso   1.00
C297   C     0.09426   0.32394   0.11323   0.00000  Uiso   1.00
C298   C     0.15735   0.39041   0.10250   0.00000  Uiso   1.00
C299   C     0.22440   0.33968   0.11516   0.00000  Uiso   1.00
H300   H     0.02514   0.06591   0.16172   0.00000  Uiso   1.00
H301   H     0.96136   0.94250   0.10031   0.00000  Uiso   1.00
H302   H     0.94726   0.15119   0.22524   0.00000  Uiso   1.00
H303   H     0.16783   0.07244   0.16595   0.00000  Uiso   1.00
H304   H     0.88898   0.85556   0.02227   0.00000  Uiso   1.00
H305   H     0.85926   0.29561   0.28571   0.00000  Uiso   1.00
H306   H     0.32438   0.12957   0.16069   0.00000  Uiso   1.00
H307   H     0.01244   0.45032   0.08501   0.00000  Uiso   1.00
H308   H     0.94797   0.34800   0.01939   0.00000  Uiso   1.00
H309   H     0.93386   0.55669   0.14432   0.00000  Uiso   1.00
H310   H     0.15444   0.47794   0.08503   0.00000  Uiso   1.00
H311   H     0.87811   0.18469   0.95659   0.00000  Uiso   1.00
H312   H     0.84839   0.62474   0.22004   0.00000  Uiso   1.00
H313   H     0.31351   0.45869   0.09501   0.00000  Uiso   1.00
O314   O     0.84134   0.94589   0.94765   0.00000  Uiso   1.00
O315   O     0.80236   0.52322   0.29328   0.00000  Uiso   1.00
O316   O     0.41259   0.30536   0.12925   0.00000  Uiso   1.00
N317   N     0.89528   0.94706   0.01582   0.00000  Uiso   1.00
N318   N     0.86748   0.35848   0.26212   0.00000  Uiso   1.00
N319   N     0.30234   0.20325   0.14524   0.00000  Uiso   1.00
N320   N     0.88943   0.12416   0.98048   0.00000  Uiso   1.00
N321   N     0.86164   0.53557   0.22677   0.00000  Uiso   1.00
N322   N     0.29649   0.38035   0.10990   0.00000  Uiso   1.00
C323   C     0.47777   0.34602   0.64415   0.00000  Uiso   1.00
C324   C     0.51418   0.35977   0.60014   0.00000  Uiso   1.00
C325   C     0.54154   0.46998   0.58283   0.00000  Uiso   1.00
C326   C     0.57281   0.46306   0.54209   0.00000  Uiso   1.00
C327   C     0.62880   0.50161   0.47721   0.00000  Uiso   1.00
C328   C     0.52185   0.24639   0.66802   0.00000  Uiso   1.00
C329   C     0.55565   0.26126   0.70778   0.00000  Uiso   1.00
C330   C     0.59337   0.15888   0.72419   0.00000  Uiso   1.00
C331   C     0.66123   0.02137   0.76470   0.00000  Uiso   1.00
C332   C     0.40201   0.28918   0.63580   0.00000  Uiso   1.00
C333   C     0.33504   0.34002   0.64848   0.00000  Uiso   1.00
C334   C     0.27186   0.27365   0.63777   0.00000  Uiso   1.00
C335   C     0.15365   0.20258   0.62826   0.00000  Uiso   1.00
C336   C     0.48465   0.13776   0.60259   0.00000  Uiso   1.00
C337   C     0.51791   0.24665   0.57757   0.00000  Uiso   1.00
C338   C     0.54915   0.23956   0.53685   0.00000  Uiso   1.00
C339   C     0.57655   0.34974   0.51948   0.00000  Uiso   1.00
C340   C     0.52559   0.13327   0.64545   0.00000  Uiso   1.00
C341   C     0.56326   0.03084   0.66180   0.00000  Uiso   1.00
C342   C     0.59712   0.04556   0.70158   0.00000  Uiso   1.00
C343   C     0.40574   0.17606   0.61323   0.00000  Uiso   1.00
C344   C     0.34265   0.10959   0.60250   0.00000  Uiso   1.00
C345   C     0.27560   0.16032   0.61516   0.00000  Uiso   1.00
H346   H     0.47486   0.43409   0.66172   0.00000  Uiso   1.00
H347   H     0.53864   0.55750   0.60031   0.00000  Uiso   1.00
H348   H     0.55274   0.34881   0.72524   0.00000  Uiso   1.00
H349   H     0.33217   0.42756   0.66595   0.00000  Uiso   1.00
H350   H     0.61102   0.64444   0.52227   0.00000  Uiso   1.00
H351   H     0.64074   0.20439   0.78571   0.00000  Uiso   1.00
H352   H     0.17562   0.37043   0.66069   0.00000  Uiso   1.00
H353   H     0.48756   0.04968   0.58501   0.00000  Uiso   1.00
H354   H     0.55203   0.15200   0.51939   0.00000  Uiso   1.00
H355   H     0.56614   0.94331   0.64432   0.00000  Uiso   1.00
H356   H     0.34556   0.02206   0.58503   0.00000  Uiso   1.00
H357   H     0.62189   0.31531   0.45659   0.00000  Uiso   1.00
H358   H     0.65161   0.87526   0.72004   0.00000  Uiso   1.00
H359   H     0.18649   0.04131   0.59501   0.00000  Uiso   1.00
O360   O     0.65866   0.55411   0.44765   0.00000  Uiso   1.00
O361   O     0.69764   0.97678   0.79328   0.00000  Uiso   1.00
O362   O     0.08741   0.19464   0.62925   0.00000  Uiso   1.00
N363   N     0.60472   0.55294   0.51582   0.00000  Uiso   1.00
N364   N     0.63252   0.14152   0.76212   0.00000  Uiso   1.00
N365   N     0.19766   0.29675   0.64524   0.00000  Uiso   1.00
N366   N     0.61057   0.37584   0.48048   0.00000  Uiso   1.00
N367   N     0.63836   0.96443   0.72677   0.00000  Uiso   1.00
N368   N     0.20351   0.11965   0.60990   0.00000  Uiso   1.00
