data_job_03880
_audit_creation_date              2018-12-19
_audit_creation_method            'Materials Studio'
_symmetry_space_group_name_H-M    'P1'
_symmetry_Int_Tables_number       1
_symmetry_cell_setting            triclinic
loop_
_symmetry_equiv_pos_as_xyz
  x,y,z
_cell_length_a                    32.1661
_cell_length_b                    12.5970
_cell_length_c                    23.2240
_cell_angle_alpha                 90.0000
_cell_angle_beta                  103.8480
_cell_angle_gamma                 90.0000
loop_
_atom_site_label
_atom_site_type_symbol
_atom_site_fract_x
_atom_site_fract_y
_atom_site_fract_z
_atom_site_U_iso_or_equiv
_atom_site_adp_type
_atom_site_occupancy
C1     C     0.60168   0.80252   0.02442   0.00000  Uiso   1.00
C2     C     0.63690   0.72222   0.02297   0.00000  Uiso   1.00
C3     C     0.63200   0.62966   0.98962   0.00000  Uiso   1.00
C4     C     0.66811   0.56675   0.99443   0.00000  Uiso   1.00
C5     C     0.71677   0.43767   0.98660   0.00000  Uiso   1.00
C6     C     0.60017   0.81252   0.08932   0.00000  Uiso   1.00
C7     C     0.56440   0.79590   0.11176   0.00000  Uiso   1.00
C8     C     0.56960   0.80902   0.17243   0.00000  Uiso   1.00
C9     C     0.56123   0.82023   0.26760   0.00000  Uiso   1.00
C10    C     0.61789   0.90903   0.00746   0.00000  Uiso   1.00
C11    C     0.59701   0.97357   0.96108   0.00000  Uiso   1.00
C12    C     0.61711   0.06795   0.95284   0.00000  Uiso   1.00
C13    C     0.63625   0.22899   0.92092   0.00000  Uiso   1.00
C14    C     0.67451   0.85539   0.09227   0.00000  Uiso   1.00
C15    C     0.67645   0.75094   0.05982   0.00000  Uiso   1.00
C16    C     0.71258   0.68816   0.06469   0.00000  Uiso   1.00
C17    C     0.70775   0.59552   0.03135   0.00000  Uiso   1.00
C18    C     0.63973   0.84124   0.12618   0.00000  Uiso   1.00
C19    C     0.64498   0.85440   0.18683   0.00000  Uiso   1.00
C20    C     0.60923   0.83779   0.20935   0.00000  Uiso   1.00
C21    C     0.65745   0.93775   0.04432   0.00000  Uiso   1.00
C22    C     0.67759   0.03206   0.03615   0.00000  Uiso   1.00
C23    C     0.65674   0.09672   0.98976   0.00000  Uiso   1.00
H24    H     0.57088   0.78016   0.99573   0.00000  Uiso   1.00
H25    H     0.60138   0.60746   0.96111   0.00000  Uiso   1.00
H26    H     0.53379   0.77369   0.08323   0.00000  Uiso   1.00
H27    H     0.56639   0.95132   0.93257   0.00000  Uiso   1.00
H28    H     0.65264   0.42863   0.93899   0.00000  Uiso   1.00
H29    H     0.51012   0.77917   0.19648   0.00000  Uiso   1.00
H30    H     0.57886   0.15374   0.87880   0.00000  Uiso   1.00
H31    H     0.70531   0.87775   0.12096   0.00000  Uiso   1.00
H32    H     0.74319   0.71040   0.09321   0.00000  Uiso   1.00
H33    H     0.67560   0.87663   0.21533   0.00000  Uiso   1.00
H34    H     0.70820   0.05426   0.06468   0.00000  Uiso   1.00
H35    H     0.76774   0.51218   0.04621   0.00000  Uiso   1.00
H36    H     0.62521   0.86273   0.30371   0.00000  Uiso   1.00
H37    H     0.69396   0.23729   0.98602   0.00000  Uiso   1.00
O38    O     0.73268   0.35854   0.97210   0.00000  Uiso   1.00
O39    O     0.54569   0.81846   0.30992   0.00000  Uiso   1.00
O40    O     0.63588   0.30988   0.89313   0.00000  Uiso   1.00
N41    N     0.67453   0.47127   0.96802   0.00000  Uiso   1.00
N42    N     0.54128   0.79899   0.20877   0.00000  Uiso   1.00
N43    N     0.60555   0.14920   0.91177   0.00000  Uiso   1.00
N44    N     0.73646   0.51623   0.02572   0.00000  Uiso   1.00
N45    N     0.60322   0.84395   0.26646   0.00000  Uiso   1.00
N46    N     0.66748   0.19415   0.96947   0.00000  Uiso   1.00
C47    C     0.10168   0.30252   0.02442   0.00000  Uiso   1.00
C48    C     0.13690   0.22222   0.02297   0.00000  Uiso   1.00
C49    C     0.13200   0.12966   0.98962   0.00000  Uiso   1.00
C50    C     0.16811   0.06675   0.99443   0.00000  Uiso   1.00
C51    C     0.21677   0.93767   0.98660   0.00000  Uiso   1.00
C52    C     0.10017   0.31252   0.08932   0.00000  Uiso   1.00
C53    C     0.06440   0.29590   0.11176   0.00000  Uiso   1.00
C54    C     0.06960   0.30902   0.17243   0.00000  Uiso   1.00
C55    C     0.06123   0.32023   0.26760   0.00000  Uiso   1.00
C56    C     0.11789   0.40903   0.00746   0.00000  Uiso   1.00
C57    C     0.09701   0.47357   0.96108   0.00000  Uiso   1.00
C58    C     0.11711   0.56795   0.95284   0.00000  Uiso   1.00
C59    C     0.13625   0.72899   0.92092   0.00000  Uiso   1.00
C60    C     0.17451   0.35539   0.09227   0.00000  Uiso   1.00
C61    C     0.17645   0.25094   0.05982   0.00000  Uiso   1.00
C62    C     0.21258   0.18816   0.06469   0.00000  Uiso   1.00
C63    C     0.20775   0.09552   0.03135   0.00000  Uiso   1.00
C64    C     0.13973   0.34124   0.12618   0.00000  Uiso   1.00
C65    C     0.14498   0.35440   0.18683   0.00000  Uiso   1.00
C66    C     0.10923   0.33779   0.20935   0.00000  Uiso   1.00
C67    C     0.15745   0.43775   0.04432   0.00000  Uiso   1.00
C68    C     0.17759   0.53206   0.03615   0.00000  Uiso   1.00
C69    C     0.15674   0.59672   0.98976   0.00000  Uiso   1.00
H70    H     0.07088   0.28016   0.99573   0.00000  Uiso   1.00
H71    H     0.10138   0.10746   0.96111   0.00000  Uiso   1.00
H72    H     0.03379   0.27369   0.08323   0.00000  Uiso   1.00
H73    H     0.06639   0.45132   0.93257   0.00000  Uiso   1.00
H74    H     0.15264   0.92863   0.93899   0.00000  Uiso   1.00
H75    H     0.01012   0.27917   0.19648   0.00000  Uiso   1.00
H76    H     0.07886   0.65374   0.87880   0.00000  Uiso   1.00
H77    H     0.20531   0.37775   0.12096   0.00000  Uiso   1.00
H78    H     0.24319   0.21040   0.09321   0.00000  Uiso   1.00
H79    H     0.17560   0.37663   0.21533   0.00000  Uiso   1.00
H80    H     0.20820   0.55426   0.06468   0.00000  Uiso   1.00
H81    H     0.26774   0.01218   0.04621   0.00000  Uiso   1.00
H82    H     0.12521   0.36273   0.30371   0.00000  Uiso   1.00
H83    H     0.19396   0.73729   0.98602   0.00000  Uiso   1.00
O84    O     0.23268   0.85854   0.97210   0.00000  Uiso   1.00
O85    O     0.04569   0.31846   0.30992   0.00000  Uiso   1.00
O86    O     0.13588   0.80988   0.89313   0.00000  Uiso   1.00
N87    N     0.17453   0.97127   0.96802   0.00000  Uiso   1.00
N88    N     0.04128   0.29899   0.20877   0.00000  Uiso   1.00
N89    N     0.10555   0.64920   0.91177   0.00000  Uiso   1.00
N90    N     0.23646   0.01623   0.02572   0.00000  Uiso   1.00
N91    N     0.10322   0.34395   0.26646   0.00000  Uiso   1.00
N92    N     0.16748   0.69415   0.96947   0.00000  Uiso   1.00
C93    C     0.39832   0.80252   0.47558   0.00000  Uiso   1.00
C94    C     0.36310   0.72222   0.47703   0.00000  Uiso   1.00
C95    C     0.36800   0.62966   0.51038   0.00000  Uiso   1.00
C96    C     0.33189   0.56675   0.50557   0.00000  Uiso   1.00
C97    C     0.28323   0.43767   0.51340   0.00000  Uiso   1.00
C98    C     0.39983   0.81252   0.41068   0.00000  Uiso   1.00
C99    C     0.43560   0.79590   0.38824   0.00000  Uiso   1.00
C100   C     0.43040   0.80902   0.32757   0.00000  Uiso   1.00
C101   C     0.43877   0.82023   0.23240   0.00000  Uiso   1.00
C102   C     0.38211   0.90903   0.49254   0.00000  Uiso   1.00
C103   C     0.40299   0.97357   0.53892   0.00000  Uiso   1.00
C104   C     0.38289   0.06795   0.54716   0.00000  Uiso   1.00
C105   C     0.36375   0.22899   0.57908   0.00000  Uiso   1.00
C106   C     0.32549   0.85539   0.40773   0.00000  Uiso   1.00
C107   C     0.32355   0.75094   0.44018   0.00000  Uiso   1.00
C108   C     0.28742   0.68816   0.43531   0.00000  Uiso   1.00
C109   C     0.29225   0.59552   0.46865   0.00000  Uiso   1.00
C110   C     0.36027   0.84124   0.37382   0.00000  Uiso   1.00
C111   C     0.35502   0.85440   0.31317   0.00000  Uiso   1.00
C112   C     0.39077   0.83779   0.29065   0.00000  Uiso   1.00
C113   C     0.34255   0.93775   0.45568   0.00000  Uiso   1.00
C114   C     0.32241   0.03206   0.46385   0.00000  Uiso   1.00
C115   C     0.34326   0.09672   0.51024   0.00000  Uiso   1.00
H116   H     0.42912   0.78016   0.50427   0.00000  Uiso   1.00
H117   H     0.39862   0.60746   0.53889   0.00000  Uiso   1.00
H118   H     0.46621   0.77369   0.41677   0.00000  Uiso   1.00
H119   H     0.43361   0.95132   0.56743   0.00000  Uiso   1.00
H120   H     0.34736   0.42863   0.56101   0.00000  Uiso   1.00
H121   H     0.48988   0.77917   0.30352   0.00000  Uiso   1.00
H122   H     0.42114   0.15374   0.62120   0.00000  Uiso   1.00
H123   H     0.29469   0.87775   0.37904   0.00000  Uiso   1.00
H124   H     0.25681   0.71040   0.40679   0.00000  Uiso   1.00
H125   H     0.32440   0.87663   0.28467   0.00000  Uiso   1.00
H126   H     0.29180   0.05426   0.43532   0.00000  Uiso   1.00
H127   H     0.23226   0.51218   0.45379   0.00000  Uiso   1.00
H128   H     0.37479   0.86273   0.19629   0.00000  Uiso   1.00
H129   H     0.30604   0.23729   0.51398   0.00000  Uiso   1.00
O130   O     0.26732   0.35854   0.52790   0.00000  Uiso   1.00
O131   O     0.45431   0.81846   0.19008   0.00000  Uiso   1.00
O132   O     0.36412   0.30988   0.60687   0.00000  Uiso   1.00
N133   N     0.32547   0.47127   0.53198   0.00000  Uiso   1.00
N134   N     0.45872   0.79899   0.29123   0.00000  Uiso   1.00
N135   N     0.39445   0.14920   0.58823   0.00000  Uiso   1.00
N136   N     0.26354   0.51623   0.47428   0.00000  Uiso   1.00
N137   N     0.39678   0.84395   0.23354   0.00000  Uiso   1.00
N138   N     0.33252   0.19415   0.53053   0.00000  Uiso   1.00
C139   C     0.89832   0.30252   0.47558   0.00000  Uiso   1.00
C140   C     0.86310   0.22222   0.47703   0.00000  Uiso   1.00
C141   C     0.86800   0.12966   0.51038   0.00000  Uiso   1.00
C142   C     0.83189   0.06675   0.50557   0.00000  Uiso   1.00
C143   C     0.78323   0.93767   0.51340   0.00000  Uiso   1.00
C144   C     0.89983   0.31252   0.41068   0.00000  Uiso   1.00
C145   C     0.93560   0.29590   0.38824   0.00000  Uiso   1.00
C146   C     0.93040   0.30902   0.32757   0.00000  Uiso   1.00
C147   C     0.93877   0.32023   0.23240   0.00000  Uiso   1.00
C148   C     0.88211   0.40903   0.49254   0.00000  Uiso   1.00
C149   C     0.90299   0.47357   0.53892   0.00000  Uiso   1.00
C150   C     0.88289   0.56795   0.54716   0.00000  Uiso   1.00
C151   C     0.86375   0.72899   0.57908   0.00000  Uiso   1.00
C152   C     0.82549   0.35539   0.40773   0.00000  Uiso   1.00
C153   C     0.82355   0.25094   0.44018   0.00000  Uiso   1.00
C154   C     0.78742   0.18816   0.43531   0.00000  Uiso   1.00
C155   C     0.79225   0.09552   0.46865   0.00000  Uiso   1.00
C156   C     0.86027   0.34124   0.37382   0.00000  Uiso   1.00
C157   C     0.85502   0.35440   0.31317   0.00000  Uiso   1.00
C158   C     0.89077   0.33779   0.29065   0.00000  Uiso   1.00
C159   C     0.84255   0.43775   0.45568   0.00000  Uiso   1.00
C160   C     0.82241   0.53206   0.46385   0.00000  Uiso   1.00
C161   C     0.84326   0.59672   0.51024   0.00000  Uiso   1.00
H162   H     0.92912   0.28016   0.50427   0.00000  Uiso   1.00
H163   H     0.89862   0.10746   0.53889   0.00000  Uiso   1.00
H164   H     0.96621   0.27369   0.41677   0.00000  Uiso   1.00
H165   H     0.93361   0.45132   0.56743   0.00000  Uiso   1.00
H166   H     0.84736   0.92863   0.56101   0.00000  Uiso   1.00
H167   H     0.98988   0.27917   0.30352   0.00000  Uiso   1.00
H168   H     0.92114   0.65374   0.62120   0.00000  Uiso   1.00
H169   H     0.79469   0.37775   0.37904   0.00000  Uiso   1.00
H170   H     0.75681   0.21040   0.40679   0.00000  Uiso   1.00
H171   H     0.82440   0.37663   0.28467   0.00000  Uiso   1.00
H172   H     0.79180   0.55426   0.43532   0.00000  Uiso   1.00
H173   H     0.73226   0.01218   0.45379   0.00000  Uiso   1.00
H174   H     0.87479   0.36273   0.19629   0.00000  Uiso   1.00
H175   H     0.80604   0.73729   0.51398   0.00000  Uiso   1.00
O176   O     0.76732   0.85854   0.52790   0.00000  Uiso   1.00
O177   O     0.95431   0.31846   0.19008   0.00000  Uiso   1.00
O178   O     0.86412   0.80988   0.60687   0.00000  Uiso   1.00
N179   N     0.82547   0.97127   0.53198   0.00000  Uiso   1.00
N180   N     0.95872   0.29899   0.29123   0.00000  Uiso   1.00
N181   N     0.89445   0.64920   0.58823   0.00000  Uiso   1.00
N182   N     0.76354   0.01623   0.47428   0.00000  Uiso   1.00
N183   N     0.89678   0.34395   0.23354   0.00000  Uiso   1.00
N184   N     0.83252   0.69415   0.53053   0.00000  Uiso   1.00
C185   C     0.39832   0.19748   0.97558   0.00000  Uiso   1.00
C186   C     0.36310   0.27778   0.97703   0.00000  Uiso   1.00
C187   C     0.36800   0.37034   0.01038   0.00000  Uiso   1.00
C188   C     0.33189   0.43325   0.00557   0.00000  Uiso   1.00
C189   C     0.28323   0.56233   0.01340   0.00000  Uiso   1.00
C190   C     0.39983   0.18748   0.91068   0.00000  Uiso   1.00
C191   C     0.43560   0.20410   0.88824   0.00000  Uiso   1.00
C192   C     0.43040   0.19098   0.82757   0.00000  Uiso   1.00
C193   C     0.43877   0.17977   0.73240   0.00000  Uiso   1.00
C194   C     0.38211   0.09097   0.99254   0.00000  Uiso   1.00
C195   C     0.40299   0.02643   0.03892   0.00000  Uiso   1.00
C196   C     0.38289   0.93205   0.04716   0.00000  Uiso   1.00
C197   C     0.36375   0.77101   0.07908   0.00000  Uiso   1.00
C198   C     0.32549   0.14461   0.90773   0.00000  Uiso   1.00
C199   C     0.32355   0.24906   0.94018   0.00000  Uiso   1.00
C200   C     0.28742   0.31184   0.93531   0.00000  Uiso   1.00
C201   C     0.29225   0.40448   0.96865   0.00000  Uiso   1.00
C202   C     0.36027   0.15876   0.87382   0.00000  Uiso   1.00
C203   C     0.35502   0.14560   0.81317   0.00000  Uiso   1.00
C204   C     0.39077   0.16221   0.79065   0.00000  Uiso   1.00
C205   C     0.34255   0.06225   0.95568   0.00000  Uiso   1.00
C206   C     0.32241   0.96794   0.96385   0.00000  Uiso   1.00
C207   C     0.34326   0.90328   0.01024   0.00000  Uiso   1.00
H208   H     0.42912   0.21984   0.00427   0.00000  Uiso   1.00
H209   H     0.39862   0.39254   0.03889   0.00000  Uiso   1.00
H210   H     0.46621   0.22631   0.91677   0.00000  Uiso   1.00
H211   H     0.43361   0.04868   0.06743   0.00000  Uiso   1.00
H212   H     0.34736   0.57137   0.06101   0.00000  Uiso   1.00
H213   H     0.48988   0.22083   0.80352   0.00000  Uiso   1.00
H214   H     0.42114   0.84626   0.12120   0.00000  Uiso   1.00
H215   H     0.29469   0.12225   0.87904   0.00000  Uiso   1.00
H216   H     0.25681   0.28960   0.90679   0.00000  Uiso   1.00
H217   H     0.32440   0.12337   0.78467   0.00000  Uiso   1.00
H218   H     0.29180   0.94574   0.93532   0.00000  Uiso   1.00
H219   H     0.23226   0.48782   0.95379   0.00000  Uiso   1.00
H220   H     0.37479   0.13727   0.69629   0.00000  Uiso   1.00
H221   H     0.30604   0.76271   0.01398   0.00000  Uiso   1.00
O222   O     0.26732   0.64146   0.02790   0.00000  Uiso   1.00
O223   O     0.45431   0.18154   0.69008   0.00000  Uiso   1.00
O224   O     0.36412   0.69012   0.10687   0.00000  Uiso   1.00
N225   N     0.32547   0.52873   0.03198   0.00000  Uiso   1.00
N226   N     0.45872   0.20101   0.79123   0.00000  Uiso   1.00
N227   N     0.39445   0.85080   0.08823   0.00000  Uiso   1.00
N228   N     0.26354   0.48377   0.97428   0.00000  Uiso   1.00
N229   N     0.39678   0.15605   0.73354   0.00000  Uiso   1.00
N230   N     0.33252   0.80585   0.03053   0.00000  Uiso   1.00
C231   C     0.89832   0.69748   0.97558   0.00000  Uiso   1.00
C232   C     0.86310   0.77778   0.97703   0.00000  Uiso   1.00
C233   C     0.86800   0.87034   0.01038   0.00000  Uiso   1.00
C234   C     0.83189   0.93325   0.00557   0.00000  Uiso   1.00
C235   C     0.78323   0.06233   0.01340   0.00000  Uiso   1.00
C236   C     0.89983   0.68748   0.91068   0.00000  Uiso   1.00
C237   C     0.93560   0.70410   0.88824   0.00000  Uiso   1.00
C238   C     0.93040   0.69098   0.82757   0.00000  Uiso   1.00
C239   C     0.93877   0.67977   0.73240   0.00000  Uiso   1.00
C240   C     0.88211   0.59097   0.99254   0.00000  Uiso   1.00
C241   C     0.90299   0.52643   0.03892   0.00000  Uiso   1.00
C242   C     0.88289   0.43205   0.04716   0.00000  Uiso   1.00
C243   C     0.86375   0.27101   0.07908   0.00000  Uiso   1.00
C244   C     0.82549   0.64461   0.90773   0.00000  Uiso   1.00
C245   C     0.82355   0.74906   0.94018   0.00000  Uiso   1.00
C246   C     0.78742   0.81184   0.93531   0.00000  Uiso   1.00
C247   C     0.79225   0.90448   0.96865   0.00000  Uiso   1.00
C248   C     0.86027   0.65876   0.87382   0.00000  Uiso   1.00
C249   C     0.85502   0.64560   0.81317   0.00000  Uiso   1.00
C250   C     0.89077   0.66221   0.79065   0.00000  Uiso   1.00
C251   C     0.84255   0.56225   0.95568   0.00000  Uiso   1.00
C252   C     0.82241   0.46794   0.96385   0.00000  Uiso   1.00
C253   C     0.84326   0.40328   0.01024   0.00000  Uiso   1.00
H254   H     0.92912   0.71984   0.00427   0.00000  Uiso   1.00
H255   H     0.89862   0.89254   0.03889   0.00000  Uiso   1.00
H256   H     0.96621   0.72631   0.91677   0.00000  Uiso   1.00
H257   H     0.93361   0.54868   0.06743   0.00000  Uiso   1.00
H258   H     0.84736   0.07137   0.06101   0.00000  Uiso   1.00
H259   H     0.98988   0.72083   0.80352   0.00000  Uiso   1.00
H260   H     0.92114   0.34626   0.12120   0.00000  Uiso   1.00
H261   H     0.79469   0.62225   0.87904   0.00000  Uiso   1.00
H262   H     0.75681   0.78960   0.90679   0.00000  Uiso   1.00
H263   H     0.82440   0.62337   0.78467   0.00000  Uiso   1.00
H264   H     0.79180   0.44574   0.93532   0.00000  Uiso   1.00
H265   H     0.73226   0.98782   0.95379   0.00000  Uiso   1.00
H266   H     0.87479   0.63727   0.69629   0.00000  Uiso   1.00
H267   H     0.80604   0.26271   0.01398   0.00000  Uiso   1.00
O268   O     0.76732   0.14146   0.02790   0.00000  Uiso   1.00
O269   O     0.95431   0.68154   0.69008   0.00000  Uiso   1.00
O270   O     0.86412   0.19012   0.10687   0.00000  Uiso   1.00
N271   N     0.82547   0.02873   0.03198   0.00000  Uiso   1.00
N272   N     0.95872   0.70101   0.79123   0.00000  Uiso   1.00
N273   N     0.89445   0.35080   0.08823   0.00000  Uiso   1.00
N274   N     0.76354   0.98377   0.97428   0.00000  Uiso   1.00
N275   N     0.89678   0.65605   0.73354   0.00000  Uiso   1.00
N276   N     0.83252   0.30585   0.03053   0.00000  Uiso   1.00
C277   C     0.60168   0.19748   0.52442   0.00000  Uiso   1.00
C278   C     0.63690   0.27778   0.52297   0.00000  Uiso   1.00
C279   C     0.63200   0.37034   0.48962   0.00000  Uiso   1.00
C280   C     0.66811   0.43325   0.49443   0.00000  Uiso   1.00
C281   C     0.71677   0.56233   0.48660   0.00000  Uiso   1.00
C282   C     0.60017   0.18748   0.58932   0.00000  Uiso   1.00
C283   C     0.56440   0.20410   0.61176   0.00000  Uiso   1.00
C284   C     0.56960   0.19098   0.67243   0.00000  Uiso   1.00
C285   C     0.56123   0.17977   0.76760   0.00000  Uiso   1.00
C286   C     0.61789   0.09097   0.50746   0.00000  Uiso   1.00
C287   C     0.59701   0.02643   0.46108   0.00000  Uiso   1.00
C288   C     0.61711   0.93205   0.45284   0.00000  Uiso   1.00
C289   C     0.63625   0.77101   0.42092   0.00000  Uiso   1.00
C290   C     0.67451   0.14461   0.59227   0.00000  Uiso   1.00
C291   C     0.67645   0.24906   0.55982   0.00000  Uiso   1.00
C292   C     0.71258   0.31184   0.56469   0.00000  Uiso   1.00
C293   C     0.70775   0.40448   0.53135   0.00000  Uiso   1.00
C294   C     0.63973   0.15876   0.62618   0.00000  Uiso   1.00
C295   C     0.64498   0.14560   0.68683   0.00000  Uiso   1.00
C296   C     0.60923   0.16221   0.70935   0.00000  Uiso   1.00
C297   C     0.65745   0.06225   0.54432   0.00000  Uiso   1.00
C298   C     0.67759   0.96794   0.53615   0.00000  Uiso   1.00
C299   C     0.65674   0.90328   0.48976   0.00000  Uiso   1.00
H300   H     0.57088   0.21984   0.49573   0.00000  Uiso   1.00
H301   H     0.60138   0.39254   0.46111   0.00000  Uiso   1.00
H302   H     0.53379   0.22631   0.58323   0.00000  Uiso   1.00
H303   H     0.56639   0.04868   0.43257   0.00000  Uiso   1.00
H304   H     0.65264   0.57137   0.43899   0.00000  Uiso   1.00
H305   H     0.51012   0.22083   0.69648   0.00000  Uiso   1.00
H306   H     0.57886   0.84626   0.37880   0.00000  Uiso   1.00
H307   H     0.70531   0.12225   0.62096   0.00000  Uiso   1.00
H308   H     0.74319   0.28960   0.59321   0.00000  Uiso   1.00
H309   H     0.67560   0.12337   0.71533   0.00000  Uiso   1.00
H310   H     0.70820   0.94574   0.56468   0.00000  Uiso   1.00
H311   H     0.76774   0.48782   0.54621   0.00000  Uiso   1.00
H312   H     0.62521   0.13727   0.80371   0.00000  Uiso   1.00
H313   H     0.69396   0.76271   0.48602   0.00000  Uiso   1.00
O314   O     0.73268   0.64146   0.47210   0.00000  Uiso   1.00
O315   O     0.54569   0.18154   0.80992   0.00000  Uiso   1.00
O316   O     0.63588   0.69012   0.39313   0.00000  Uiso   1.00
N317   N     0.67453   0.52873   0.46802   0.00000  Uiso   1.00
N318   N     0.54128   0.20101   0.70877   0.00000  Uiso   1.00
N319   N     0.60555   0.85080   0.41177   0.00000  Uiso   1.00
N320   N     0.73646   0.48377   0.52572   0.00000  Uiso   1.00
N321   N     0.60322   0.15605   0.76646   0.00000  Uiso   1.00
N322   N     0.66748   0.80585   0.46947   0.00000  Uiso   1.00
C323   C     0.10168   0.69748   0.52442   0.00000  Uiso   1.00
C324   C     0.13690   0.77778   0.52297   0.00000  Uiso   1.00
C325   C     0.13200   0.87034   0.48962   0.00000  Uiso   1.00
C326   C     0.16811   0.93325   0.49443   0.00000  Uiso   1.00
C327   C     0.21677   0.06233   0.48660   0.00000  Uiso   1.00
C328   C     0.10017   0.68748   0.58932   0.00000  Uiso   1.00
C329   C     0.06440   0.70410   0.61176   0.00000  Uiso   1.00
C330   C     0.06960   0.69098   0.67243   0.00000  Uiso   1.00
C331   C     0.06123   0.67977   0.76760   0.00000  Uiso   1.00
C332   C     0.11789   0.59097   0.50746   0.00000  Uiso   1.00
C333   C     0.09701   0.52643   0.46108   0.00000  Uiso   1.00
C334   C     0.11711   0.43205   0.45284   0.00000  Uiso   1.00
C335   C     0.13625   0.27101   0.42092   0.00000  Uiso   1.00
C336   C     0.17451   0.64461   0.59227   0.00000  Uiso   1.00
C337   C     0.17645   0.74906   0.55982   0.00000  Uiso   1.00
C338   C     0.21258   0.81184   0.56469   0.00000  Uiso   1.00
C339   C     0.20775   0.90448   0.53135   0.00000  Uiso   1.00
C340   C     0.13973   0.65876   0.62618   0.00000  Uiso   1.00
C341   C     0.14498   0.64560   0.68683   0.00000  Uiso   1.00
C342   C     0.10923   0.66221   0.70935   0.00000  Uiso   1.00
C343   C     0.15745   0.56225   0.54432   0.00000  Uiso   1.00
C344   C     0.17759   0.46794   0.53615   0.00000  Uiso   1.00
C345   C     0.15674   0.40328   0.48976   0.00000  Uiso   1.00
H346   H     0.07088   0.71984   0.49573   0.00000  Uiso   1.00
H347   H     0.10138   0.89254   0.46111   0.00000  Uiso   1.00
H348   H     0.03379   0.72631   0.58323   0.00000  Uiso   1.00
H349   H     0.06639   0.54868   0.43257   0.00000  Uiso   1.00
H350   H     0.15264   0.07137   0.43899   0.00000  Uiso   1.00
H351   H     0.01012   0.72083   0.69648   0.00000  Uiso   1.00
H352   H     0.07886   0.34626   0.37880   0.00000  Uiso   1.00
H353   H     0.20531   0.62225   0.62096   0.00000  Uiso   1.00
H354   H     0.24319   0.78960   0.59321   0.00000  Uiso   1.00
H355   H     0.17560   0.62337   0.71533   0.00000  Uiso   1.00
H356   H     0.20820   0.44574   0.56468   0.00000  Uiso   1.00
H357   H     0.26774   0.98782   0.54621   0.00000  Uiso   1.00
H358   H     0.12521   0.63727   0.80371   0.00000  Uiso   1.00
H359   H     0.19396   0.26271   0.48602   0.00000  Uiso   1.00
O360   O     0.23268   0.14146   0.47210   0.00000  Uiso   1.00
O361   O     0.04569   0.68154   0.80992   0.00000  Uiso   1.00
O362   O     0.13588   0.19012   0.39313   0.00000  Uiso   1.00
N363   N     0.17453   0.02873   0.46802   0.00000  Uiso   1.00
N364   N     0.04128   0.70101   0.70877   0.00000  Uiso   1.00
N365   N     0.10555   0.35080   0.41177   0.00000  Uiso   1.00
N366   N     0.23646   0.98377   0.52572   0.00000  Uiso   1.00
N367   N     0.10322   0.65605   0.76646   0.00000  Uiso   1.00
N368   N     0.16748   0.30585   0.46947   0.00000  Uiso   1.00
