data_job_01195
_audit_creation_date              2018-12-19
_audit_creation_method            'Materials Studio'
_symmetry_space_group_name_H-M    'P1'
_symmetry_Int_Tables_number       1
_symmetry_cell_setting            triclinic
loop_
_symmetry_equiv_pos_as_xyz
  x,y,z
_cell_length_a                    13.1372
_cell_length_b                    14.9139
_cell_length_c                    12.5250
_cell_angle_alpha                 90.0000
_cell_angle_beta                  75.5231
_cell_angle_gamma                 90.0000
loop_
_atom_site_label
_atom_site_type_symbol
_atom_site_fract_x
_atom_site_fract_y
_atom_site_fract_z
_atom_site_U_iso_or_equiv
_atom_site_adp_type
_atom_site_occupancy
C1     C     0.73747   0.66742   0.41407   0.00000  Uiso   1.00
C2     C     0.79106   0.73354   0.32477   0.00000  Uiso   1.00
C3     C     0.87852   0.71567   0.23911   0.00000  Uiso   1.00
C4     C     0.91570   0.78511   0.16592   0.00000  Uiso   1.00
C5     C     0.00634   0.87497   0.02545   0.00000  Uiso   1.00
C6     C     0.73721   0.71189   0.52377   0.00000  Uiso   1.00
C7     C     0.77939   0.67581   0.60543   0.00000  Uiso   1.00
C8     C     0.77123   0.72703   0.69977   0.00000  Uiso   1.00
C9     C     0.77821   0.78326   0.86827   0.00000  Uiso   1.00
C10    C     0.62280   0.66312   0.40899   0.00000  Uiso   1.00
C11    C     0.56876   0.58603   0.39418   0.00000  Uiso   1.00
C12    C     0.46427   0.59619   0.39191   0.00000  Uiso   1.00
C13    C     0.29360   0.57669   0.38221   0.00000  Uiso   1.00
C14    C     0.64797   0.82253   0.43641   0.00000  Uiso   1.00
C15    C     0.74244   0.81779   0.33691   0.00000  Uiso   1.00
C16    C     0.77950   0.88728   0.26383   0.00000  Uiso   1.00
C17    C     0.86700   0.86951   0.17807   0.00000  Uiso   1.00
C18    C     0.68860   0.79614   0.53590   0.00000  Uiso   1.00
C19    C     0.68037   0.84742   0.63014   0.00000  Uiso   1.00
C20    C     0.72253   0.81143   0.71192   0.00000  Uiso   1.00
C21    C     0.57419   0.74737   0.42112   0.00000  Uiso   1.00
C22    C     0.46975   0.75765   0.41889   0.00000  Uiso   1.00
C23    C     0.41557   0.68059   0.40407   0.00000  Uiso   1.00
H24    H     0.77531   0.60183   0.40463   0.00000  Uiso   1.00
H25    H     0.91612   0.65046   0.22976   0.00000  Uiso   1.00
H26    H     0.81700   0.61061   0.59602   0.00000  Uiso   1.00
H27    H     0.60641   0.52085   0.38479   0.00000  Uiso   1.00
H28    H     0.05082   0.74154   0.04125   0.00000  Uiso   1.00
H29    H     0.84178   0.65750   0.81355   0.00000  Uiso   1.00
H30    H     0.39771   0.46822   0.36815   0.00000  Uiso   1.00
H31    H     0.61012   0.88812   0.44586   0.00000  Uiso   1.00
H32    H     0.74186   0.95247   0.27324   0.00000  Uiso   1.00
H33    H     0.64274   0.91261   0.63951   0.00000  Uiso   1.00
H34    H     0.43215   0.82285   0.42828   0.00000  Uiso   1.00
H35    H     0.90939   0.98666   0.07654   0.00000  Uiso   1.00
H36    H     0.70034   0.90262   0.84885   0.00000  Uiso   1.00
H37    H     0.25628   0.71334   0.40344   0.00000  Uiso   1.00
O38    O     0.06978   0.90127   0.94462   0.00000  Uiso   1.00
O39    O     0.79550   0.79100   0.95786   0.00000  Uiso   1.00
O40    O     0.21290   0.54267   0.37349   0.00000  Uiso   1.00
N41    N     0.99944   0.79039   0.07323   0.00000  Uiso   1.00
N42    N     0.80401   0.71182   0.79529   0.00000  Uiso   1.00
N43    N     0.38884   0.53486   0.37889   0.00000  Uiso   1.00
N44    N     0.92334   0.92229   0.09222   0.00000  Uiso   1.00
N45    N     0.72791   0.84372   0.81428   0.00000  Uiso   1.00
N46    N     0.31274   0.66676   0.39788   0.00000  Uiso   1.00
C47    C     0.26253   0.66742   0.08593   0.00000  Uiso   1.00
C48    C     0.20894   0.73354   0.17523   0.00000  Uiso   1.00
C49    C     0.12148   0.71567   0.26089   0.00000  Uiso   1.00
C50    C     0.08430   0.78511   0.33408   0.00000  Uiso   1.00
C51    C     0.99366   0.87497   0.47455   0.00000  Uiso   1.00
C52    C     0.26279   0.71189   0.97623   0.00000  Uiso   1.00
C53    C     0.22061   0.67581   0.89457   0.00000  Uiso   1.00
C54    C     0.22877   0.72703   0.80023   0.00000  Uiso   1.00
C55    C     0.22179   0.78326   0.63173   0.00000  Uiso   1.00
C56    C     0.37720   0.66312   0.09101   0.00000  Uiso   1.00
C57    C     0.43124   0.58603   0.10582   0.00000  Uiso   1.00
C58    C     0.53573   0.59619   0.10809   0.00000  Uiso   1.00
C59    C     0.70640   0.57669   0.11779   0.00000  Uiso   1.00
C60    C     0.35203   0.82253   0.06359   0.00000  Uiso   1.00
C61    C     0.25756   0.81779   0.16309   0.00000  Uiso   1.00
C62    C     0.22050   0.88728   0.23617   0.00000  Uiso   1.00
C63    C     0.13300   0.86951   0.32193   0.00000  Uiso   1.00
C64    C     0.31140   0.79614   0.96410   0.00000  Uiso   1.00
C65    C     0.31963   0.84742   0.86986   0.00000  Uiso   1.00
C66    C     0.27747   0.81143   0.78808   0.00000  Uiso   1.00
C67    C     0.42581   0.74737   0.07888   0.00000  Uiso   1.00
C68    C     0.53025   0.75765   0.08111   0.00000  Uiso   1.00
C69    C     0.58443   0.68059   0.09593   0.00000  Uiso   1.00
H70    H     0.22469   0.60183   0.09537   0.00000  Uiso   1.00
H71    H     0.08388   0.65046   0.27024   0.00000  Uiso   1.00
H72    H     0.18300   0.61061   0.90398   0.00000  Uiso   1.00
H73    H     0.39359   0.52085   0.11521   0.00000  Uiso   1.00
H74    H     0.94918   0.74154   0.45875   0.00000  Uiso   1.00
H75    H     0.15822   0.65750   0.68645   0.00000  Uiso   1.00
H76    H     0.60229   0.46822   0.13185   0.00000  Uiso   1.00
H77    H     0.38988   0.88812   0.05414   0.00000  Uiso   1.00
H78    H     0.25814   0.95247   0.22676   0.00000  Uiso   1.00
H79    H     0.35726   0.91261   0.86049   0.00000  Uiso   1.00
H80    H     0.56785   0.82285   0.07172   0.00000  Uiso   1.00
H81    H     0.09061   0.98666   0.42346   0.00000  Uiso   1.00
H82    H     0.29966   0.90262   0.65115   0.00000  Uiso   1.00
H83    H     0.74372   0.71334   0.09656   0.00000  Uiso   1.00
O84    O     0.93022   0.90127   0.55538   0.00000  Uiso   1.00
O85    O     0.20450   0.79100   0.54214   0.00000  Uiso   1.00
O86    O     0.78710   0.54267   0.12651   0.00000  Uiso   1.00
N87    N     0.00056   0.79039   0.42677   0.00000  Uiso   1.00
N88    N     0.19599   0.71182   0.70471   0.00000  Uiso   1.00
N89    N     0.61116   0.53486   0.12111   0.00000  Uiso   1.00
N90    N     0.07666   0.92229   0.40778   0.00000  Uiso   1.00
N91    N     0.27209   0.84372   0.68572   0.00000  Uiso   1.00
N92    N     0.68726   0.66676   0.10212   0.00000  Uiso   1.00
C93    C     0.26253   0.33258   0.58593   0.00000  Uiso   1.00
C94    C     0.20894   0.26646   0.67523   0.00000  Uiso   1.00
C95    C     0.12148   0.28433   0.76089   0.00000  Uiso   1.00
C96    C     0.08430   0.21489   0.83408   0.00000  Uiso   1.00
C97    C     0.99366   0.12503   0.97455   0.00000  Uiso   1.00
C98    C     0.26279   0.28811   0.47623   0.00000  Uiso   1.00
C99    C     0.22061   0.32419   0.39457   0.00000  Uiso   1.00
C100   C     0.22877   0.27297   0.30023   0.00000  Uiso   1.00
C101   C     0.22179   0.21674   0.13173   0.00000  Uiso   1.00
C102   C     0.37720   0.33688   0.59101   0.00000  Uiso   1.00
C103   C     0.43124   0.41397   0.60582   0.00000  Uiso   1.00
C104   C     0.53573   0.40381   0.60809   0.00000  Uiso   1.00
C105   C     0.70640   0.42331   0.61779   0.00000  Uiso   1.00
C106   C     0.35203   0.17747   0.56359   0.00000  Uiso   1.00
C107   C     0.25756   0.18221   0.66309   0.00000  Uiso   1.00
C108   C     0.22050   0.11272   0.73617   0.00000  Uiso   1.00
C109   C     0.13300   0.13049   0.82193   0.00000  Uiso   1.00
C110   C     0.31140   0.20386   0.46410   0.00000  Uiso   1.00
C111   C     0.31963   0.15258   0.36986   0.00000  Uiso   1.00
C112   C     0.27747   0.18857   0.28808   0.00000  Uiso   1.00
C113   C     0.42581   0.25263   0.57888   0.00000  Uiso   1.00
C114   C     0.53025   0.24235   0.58111   0.00000  Uiso   1.00
C115   C     0.58443   0.31941   0.59593   0.00000  Uiso   1.00
H116   H     0.22469   0.39817   0.59537   0.00000  Uiso   1.00
H117   H     0.08388   0.34954   0.77024   0.00000  Uiso   1.00
H118   H     0.18300   0.38939   0.40398   0.00000  Uiso   1.00
H119   H     0.39359   0.47915   0.61521   0.00000  Uiso   1.00
H120   H     0.94918   0.25846   0.95875   0.00000  Uiso   1.00
H121   H     0.15822   0.34250   0.18645   0.00000  Uiso   1.00
H122   H     0.60229   0.53178   0.63185   0.00000  Uiso   1.00
H123   H     0.38988   0.11188   0.55414   0.00000  Uiso   1.00
H124   H     0.25814   0.04753   0.72676   0.00000  Uiso   1.00
H125   H     0.35726   0.08739   0.36049   0.00000  Uiso   1.00
H126   H     0.56785   0.17715   0.57172   0.00000  Uiso   1.00
H127   H     0.09061   0.01334   0.92346   0.00000  Uiso   1.00
H128   H     0.29966   0.09738   0.15115   0.00000  Uiso   1.00
H129   H     0.74372   0.28666   0.59656   0.00000  Uiso   1.00
O130   O     0.93022   0.09873   0.05538   0.00000  Uiso   1.00
O131   O     0.20450   0.20900   0.04214   0.00000  Uiso   1.00
O132   O     0.78710   0.45733   0.62651   0.00000  Uiso   1.00
N133   N     0.00056   0.20961   0.92677   0.00000  Uiso   1.00
N134   N     0.19599   0.28818   0.20471   0.00000  Uiso   1.00
N135   N     0.61116   0.46514   0.62111   0.00000  Uiso   1.00
N136   N     0.07666   0.07771   0.90778   0.00000  Uiso   1.00
N137   N     0.27209   0.15628   0.18572   0.00000  Uiso   1.00
N138   N     0.68726   0.33324   0.60212   0.00000  Uiso   1.00
C139   C     0.73747   0.33258   0.91407   0.00000  Uiso   1.00
C140   C     0.79106   0.26646   0.82477   0.00000  Uiso   1.00
C141   C     0.87852   0.28433   0.73911   0.00000  Uiso   1.00
C142   C     0.91570   0.21489   0.66592   0.00000  Uiso   1.00
C143   C     0.00634   0.12503   0.52545   0.00000  Uiso   1.00
C144   C     0.73721   0.28811   0.02377   0.00000  Uiso   1.00
C145   C     0.77939   0.32419   0.10543   0.00000  Uiso   1.00
C146   C     0.77123   0.27297   0.19977   0.00000  Uiso   1.00
C147   C     0.77821   0.21674   0.36827   0.00000  Uiso   1.00
C148   C     0.62280   0.33688   0.90899   0.00000  Uiso   1.00
C149   C     0.56876   0.41397   0.89418   0.00000  Uiso   1.00
C150   C     0.46427   0.40381   0.89191   0.00000  Uiso   1.00
C151   C     0.29360   0.42331   0.88221   0.00000  Uiso   1.00
C152   C     0.64797   0.17747   0.93641   0.00000  Uiso   1.00
C153   C     0.74244   0.18221   0.83691   0.00000  Uiso   1.00
C154   C     0.77950   0.11272   0.76383   0.00000  Uiso   1.00
C155   C     0.86700   0.13049   0.67807   0.00000  Uiso   1.00
C156   C     0.68860   0.20386   0.03590   0.00000  Uiso   1.00
C157   C     0.68037   0.15258   0.13014   0.00000  Uiso   1.00
C158   C     0.72253   0.18857   0.21192   0.00000  Uiso   1.00
C159   C     0.57419   0.25263   0.92112   0.00000  Uiso   1.00
C160   C     0.46975   0.24235   0.91889   0.00000  Uiso   1.00
C161   C     0.41557   0.31941   0.90407   0.00000  Uiso   1.00
H162   H     0.77531   0.39817   0.90463   0.00000  Uiso   1.00
H163   H     0.91612   0.34954   0.72976   0.00000  Uiso   1.00
H164   H     0.81700   0.38939   0.09602   0.00000  Uiso   1.00
H165   H     0.60641   0.47915   0.88479   0.00000  Uiso   1.00
H166   H     0.05082   0.25846   0.54125   0.00000  Uiso   1.00
H167   H     0.84178   0.34250   0.31355   0.00000  Uiso   1.00
H168   H     0.39771   0.53178   0.86815   0.00000  Uiso   1.00
H169   H     0.61012   0.11188   0.94586   0.00000  Uiso   1.00
H170   H     0.74186   0.04753   0.77324   0.00000  Uiso   1.00
H171   H     0.64274   0.08739   0.13951   0.00000  Uiso   1.00
H172   H     0.43215   0.17715   0.92828   0.00000  Uiso   1.00
H173   H     0.90939   0.01334   0.57654   0.00000  Uiso   1.00
H174   H     0.70034   0.09738   0.34885   0.00000  Uiso   1.00
H175   H     0.25628   0.28666   0.90344   0.00000  Uiso   1.00
O176   O     0.06978   0.09873   0.44462   0.00000  Uiso   1.00
O177   O     0.79550   0.20900   0.45786   0.00000  Uiso   1.00
O178   O     0.21290   0.45733   0.87349   0.00000  Uiso   1.00
N179   N     0.99944   0.20961   0.57323   0.00000  Uiso   1.00
N180   N     0.80401   0.28818   0.29529   0.00000  Uiso   1.00
N181   N     0.38884   0.46514   0.87889   0.00000  Uiso   1.00
N182   N     0.92334   0.07771   0.59222   0.00000  Uiso   1.00
N183   N     0.72791   0.15628   0.31428   0.00000  Uiso   1.00
N184   N     0.31274   0.33324   0.89788   0.00000  Uiso   1.00
