data_job_01581
_audit_creation_date              2018-12-19
_audit_creation_method            'Materials Studio'
_symmetry_space_group_name_H-M    'P1'
_symmetry_Int_Tables_number       1
_symmetry_cell_setting            triclinic
loop_
_symmetry_equiv_pos_as_xyz
  x,y,z
_cell_length_a                    11.0603
_cell_length_b                    11.1993
_cell_length_c                    12.4874
_cell_angle_alpha                 76.7270
_cell_angle_beta                  85.0240
_cell_angle_gamma                 100.7078
loop_
_atom_site_label
_atom_site_type_symbol
_atom_site_fract_x
_atom_site_fract_y
_atom_site_fract_z
_atom_site_U_iso_or_equiv
_atom_site_adp_type
_atom_site_occupancy
C1     C     0.69834   0.36520   0.70118   0.00000  Uiso   1.00
C2     C     0.73451   0.27608   0.79914   0.00000  Uiso   1.00
C3     C     0.79610   0.31121   0.88290   0.00000  Uiso   1.00
C4     C     0.82074   0.21555   0.96510   0.00000  Uiso   1.00
C5     C     0.88240   0.09637   0.11743   0.00000  Uiso   1.00
C6     C     0.75704   0.33736   0.59702   0.00000  Uiso   1.00
C7     C     0.83756   0.42402   0.51084   0.00000  Uiso   1.00
C8     C     0.88115   0.37994   0.42289   0.00000  Uiso   1.00
C9     C     0.97772   0.35593   0.26138   0.00000  Uiso   1.00
C10    C     0.55839   0.32293   0.70533   0.00000  Uiso   1.00
C11    C     0.47187   0.39746   0.71018   0.00000  Uiso   1.00
C12    C     0.34820   0.34125   0.71339   0.00000  Uiso   1.00
C13    C     0.13633   0.29483   0.72006   0.00000  Uiso   1.00
C14    C     0.63255   0.13285   0.69821   0.00000  Uiso   1.00
C15    C     0.69878   0.14987   0.79752   0.00000  Uiso   1.00
C16    C     0.72332   0.05413   0.87962   0.00000  Uiso   1.00
C17    C     0.78494   0.08911   0.96349   0.00000  Uiso   1.00
C18    C     0.72132   0.21116   0.59540   0.00000  Uiso   1.00
C19    C     0.76478   0.16695   0.50755   0.00000  Uiso   1.00
C20    C     0.84535   0.25351   0.42127   0.00000  Uiso   1.00
C21    C     0.52265   0.19672   0.70372   0.00000  Uiso   1.00
C22    C     0.39909   0.14039   0.70691   0.00000  Uiso   1.00
C23    C     0.31241   0.21482   0.71178   0.00000  Uiso   1.00
H24    H     0.72616   0.46345   0.70242   0.00000  Uiso   1.00
H25    H     0.82375   0.40889   0.88412   0.00000  Uiso   1.00
H26    H     0.86519   0.52168   0.51210   0.00000  Uiso   1.00
H27    H     0.49956   0.49512   0.71143   0.00000  Uiso   1.00
H28    H     0.91623   0.29273   0.08482   0.00000  Uiso   1.00
H29    H     0.00357   0.53057   0.30040   0.00000  Uiso   1.00
H30    H     0.23257   0.47458   0.72071   0.00000  Uiso   1.00
H31    H     0.60474   0.03459   0.69695   0.00000  Uiso   1.00
H32    H     0.69566   0.95648   0.87835   0.00000  Uiso   1.00
H33    H     0.73711   0.06928   0.50633   0.00000  Uiso   1.00
H34    H     0.37148   0.04272   0.70566   0.00000  Uiso   1.00
H35    H     0.81228   0.92554   0.08014   0.00000  Uiso   1.00
H36    H     0.89962   0.16339   0.29571   0.00000  Uiso   1.00
H37    H     0.12861   0.10739   0.71603   0.00000  Uiso   1.00
O38    O     0.92630   0.06550   0.20189   0.00000  Uiso   1.00
O39    O     0.04087   0.37755   0.17275   0.00000  Uiso   1.00
O40    O     0.02933   0.30408   0.72419   0.00000  Uiso   1.00
N41    N     0.87926   0.21703   0.05884   0.00000  Uiso   1.00
N42    N     0.96094   0.43940   0.32545   0.00000  Uiso   1.00
N43    N     0.24012   0.38705   0.71838   0.00000  Uiso   1.00
N44    N     0.82333   0.01945   0.05632   0.00000  Uiso   1.00
N45    N     0.90500   0.24181   0.32294   0.00000  Uiso   1.00
N46    N     0.18418   0.18947   0.71586   0.00000  Uiso   1.00
C47    C     0.30166   0.63480   0.29882   0.00000  Uiso   1.00
C48    C     0.26549   0.72392   0.20086   0.00000  Uiso   1.00
C49    C     0.20390   0.68879   0.11710   0.00000  Uiso   1.00
C50    C     0.17926   0.78445   0.03490   0.00000  Uiso   1.00
C51    C     0.11760   0.90363   0.88257   0.00000  Uiso   1.00
C52    C     0.24296   0.66264   0.40298   0.00000  Uiso   1.00
C53    C     0.16244   0.57598   0.48916   0.00000  Uiso   1.00
C54    C     0.11885   0.62006   0.57711   0.00000  Uiso   1.00
C55    C     0.02228   0.64407   0.73862   0.00000  Uiso   1.00
C56    C     0.44161   0.67707   0.29467   0.00000  Uiso   1.00
C57    C     0.52813   0.60254   0.28982   0.00000  Uiso   1.00
C58    C     0.65180   0.65875   0.28661   0.00000  Uiso   1.00
C59    C     0.86367   0.70517   0.27994   0.00000  Uiso   1.00
C60    C     0.36745   0.86715   0.30179   0.00000  Uiso   1.00
C61    C     0.30122   0.85013   0.20248   0.00000  Uiso   1.00
C62    C     0.27668   0.94587   0.12038   0.00000  Uiso   1.00
C63    C     0.21506   0.91089   0.03651   0.00000  Uiso   1.00
C64    C     0.27868   0.78884   0.40460   0.00000  Uiso   1.00
C65    C     0.23522   0.83305   0.49245   0.00000  Uiso   1.00
C66    C     0.15465   0.74649   0.57873   0.00000  Uiso   1.00
C67    C     0.47735   0.80328   0.29628   0.00000  Uiso   1.00
C68    C     0.60091   0.85961   0.29309   0.00000  Uiso   1.00
C69    C     0.68759   0.78518   0.28822   0.00000  Uiso   1.00
H70    H     0.27384   0.53655   0.29758   0.00000  Uiso   1.00
H71    H     0.17625   0.59111   0.11588   0.00000  Uiso   1.00
H72    H     0.13481   0.47832   0.48790   0.00000  Uiso   1.00
H73    H     0.50044   0.50488   0.28857   0.00000  Uiso   1.00
H74    H     0.08377   0.70727   0.91518   0.00000  Uiso   1.00
H75    H     0.99643   0.46943   0.69960   0.00000  Uiso   1.00
H76    H     0.76743   0.52542   0.27929   0.00000  Uiso   1.00
H77    H     0.39526   0.96541   0.30305   0.00000  Uiso   1.00
H78    H     0.30434   0.04352   0.12165   0.00000  Uiso   1.00
H79    H     0.26289   0.93072   0.49367   0.00000  Uiso   1.00
H80    H     0.62852   0.95728   0.29434   0.00000  Uiso   1.00
H81    H     0.18772   0.07446   0.91986   0.00000  Uiso   1.00
H82    H     0.10038   0.83661   0.70429   0.00000  Uiso   1.00
H83    H     0.87139   0.89261   0.28397   0.00000  Uiso   1.00
O84    O     0.07370   0.93450   0.79811   0.00000  Uiso   1.00
O85    O     0.95913   0.62245   0.82725   0.00000  Uiso   1.00
O86    O     0.97067   0.69592   0.27581   0.00000  Uiso   1.00
N87    N     0.12074   0.78297   0.94116   0.00000  Uiso   1.00
N88    N     0.03906   0.56060   0.67455   0.00000  Uiso   1.00
N89    N     0.75988   0.61295   0.28162   0.00000  Uiso   1.00
N90    N     0.17667   0.98055   0.94368   0.00000  Uiso   1.00
N91    N     0.09500   0.75819   0.67706   0.00000  Uiso   1.00
N92    N     0.81582   0.81053   0.28414   0.00000  Uiso   1.00
