data_job_02415
_audit_creation_date              2018-12-19
_audit_creation_method            'Materials Studio'
_symmetry_space_group_name_H-M    'P1'
_symmetry_Int_Tables_number       1
_symmetry_cell_setting            triclinic
loop_
_symmetry_equiv_pos_as_xyz
  x,y,z
_cell_length_a                    20.0069
_cell_length_b                    8.0789
_cell_length_c                    27.3768
_cell_angle_alpha                 90.0000
_cell_angle_beta                  131.0153
_cell_angle_gamma                 90.0000
loop_
_atom_site_label
_atom_site_type_symbol
_atom_site_fract_x
_atom_site_fract_y
_atom_site_fract_z
_atom_site_U_iso_or_equiv
_atom_site_adp_type
_atom_site_occupancy
C1     C     0.08240   0.46643   0.66823   0.00000  Uiso   1.00
C2     C     0.17204   0.45963   0.68561   0.00000  Uiso   1.00
C3     C     0.21718   0.59396   0.68781   0.00000  Uiso   1.00
C4     C     0.29830   0.56198   0.70475   0.00000  Uiso   1.00
C5     C     0.43219   0.57584   0.72954   0.00000  Uiso   1.00
C6     C     0.02233   0.34723   0.61171   0.00000  Uiso   1.00
C7     C     0.94160   0.38706   0.55177   0.00000  Uiso   1.00
C8     C     0.89668   0.26045   0.50651   0.00000  Uiso   1.00
C9     C     0.79812   0.09978   0.41658   0.00000  Uiso   1.00
C10    C     0.09655   0.38980   0.72531   0.00000  Uiso   1.00
C11    C     0.07819   0.46540   0.76089   0.00000  Uiso   1.00
C12    C     0.09575   0.37461   0.81127   0.00000  Uiso   1.00
C13    C     0.11242   0.28004   0.89774   0.00000  Uiso   1.00
C14    C     0.14618   0.17075   0.69442   0.00000  Uiso   1.00
C15    C     0.20667   0.29903   0.69983   0.00000  Uiso   1.00
C16    C     0.28775   0.26683   0.71678   0.00000  Uiso   1.00
C17    C     0.33301   0.40109   0.71901   0.00000  Uiso   1.00
C18    C     0.05697   0.18664   0.62593   0.00000  Uiso   1.00
C19    C     0.01216   0.05993   0.58075   0.00000  Uiso   1.00
C20    C     0.93139   0.09956   0.52076   0.00000  Uiso   1.00
C21    C     0.13119   0.22920   0.73954   0.00000  Uiso   1.00
C22    C     0.14877   0.13827   0.78987   0.00000  Uiso   1.00
C23    C     0.13045   0.21372   0.82552   0.00000  Uiso   1.00
H24    H     0.05543   0.59146   0.65715   0.00000  Uiso   1.00
H25    H     0.19035   0.71823   0.67679   0.00000  Uiso   1.00
H26    H     0.91480   0.51135   0.54078   0.00000  Uiso   1.00
H27    H     0.05139   0.58968   0.74987   0.00000  Uiso   1.00
H28    H     0.35520   0.78794   0.70481   0.00000  Uiso   1.00
H29    H     0.77418   0.35172   0.41804   0.00000  Uiso   1.00
H30    H     0.06219   0.51690   0.85895   0.00000  Uiso   1.00
H31    H     0.17315   0.04571   0.70549   0.00000  Uiso   1.00
H32    H     0.31454   0.14253   0.72778   0.00000  Uiso   1.00
H33    H     0.03899   0.93566   0.59177   0.00000  Uiso   1.00
H34    H     0.17557   0.01399   0.80086   0.00000  Uiso   1.00
H35    H     0.45599   0.32068   0.74620   0.00000  Uiso   1.00
H36    H     0.87496   0.88446   0.45942   0.00000  Uiso   1.00
H37    H     0.16298   0.04964   0.90033   0.00000  Uiso   1.00
O38    O     0.49646   0.62784   0.73928   0.00000  Uiso   1.00
O39    O     0.73418   0.05554   0.36304   0.00000  Uiso   1.00
O40    O     0.11205   0.27225   0.94151   0.00000  Uiso   1.00
N41    N     0.35952   0.66469   0.71151   0.00000  Uiso   1.00
N42    N     0.81631   0.25685   0.44338   0.00000  Uiso   1.00
N43    N     0.08556   0.41127   0.85559   0.00000  Uiso   1.00
N44    N     0.41376   0.41326   0.73378   0.00000  Uiso   1.00
N45    N     0.87055   0.00543   0.46565   0.00000  Uiso   1.00
N46    N     0.13979   0.15984   0.87786   0.00000  Uiso   1.00
C47    C     0.91760   0.96643   0.83177   0.00000  Uiso   1.00
C48    C     0.82796   0.95963   0.81439   0.00000  Uiso   1.00
C49    C     0.78282   0.09396   0.81219   0.00000  Uiso   1.00
C50    C     0.70170   0.06198   0.79525   0.00000  Uiso   1.00
C51    C     0.56781   0.07584   0.77046   0.00000  Uiso   1.00
C52    C     0.97767   0.84723   0.88829   0.00000  Uiso   1.00
C53    C     0.05840   0.88706   0.94823   0.00000  Uiso   1.00
C54    C     0.10332   0.76045   0.99349   0.00000  Uiso   1.00
C55    C     0.20188   0.59978   0.08342   0.00000  Uiso   1.00
C56    C     0.90345   0.88980   0.77469   0.00000  Uiso   1.00
C57    C     0.92181   0.96540   0.73911   0.00000  Uiso   1.00
C58    C     0.90425   0.87461   0.68873   0.00000  Uiso   1.00
C59    C     0.88758   0.78004   0.60226   0.00000  Uiso   1.00
C60    C     0.85382   0.67075   0.80558   0.00000  Uiso   1.00
C61    C     0.79333   0.79903   0.80017   0.00000  Uiso   1.00
C62    C     0.71225   0.76683   0.78322   0.00000  Uiso   1.00
C63    C     0.66699   0.90109   0.78099   0.00000  Uiso   1.00
C64    C     0.94303   0.68664   0.87407   0.00000  Uiso   1.00
C65    C     0.98784   0.55993   0.91925   0.00000  Uiso   1.00
C66    C     0.06861   0.59956   0.97924   0.00000  Uiso   1.00
C67    C     0.86881   0.72920   0.76046   0.00000  Uiso   1.00
C68    C     0.85123   0.63827   0.71013   0.00000  Uiso   1.00
C69    C     0.86955   0.71372   0.67448   0.00000  Uiso   1.00
H70    H     0.94457   0.09146   0.84285   0.00000  Uiso   1.00
H71    H     0.80965   0.21823   0.82321   0.00000  Uiso   1.00
H72    H     0.08520   0.01135   0.95922   0.00000  Uiso   1.00
H73    H     0.94861   0.08968   0.75013   0.00000  Uiso   1.00
H74    H     0.64480   0.28794   0.79519   0.00000  Uiso   1.00
H75    H     0.22582   0.85172   0.08196   0.00000  Uiso   1.00
H76    H     0.93781   0.01690   0.64105   0.00000  Uiso   1.00
H77    H     0.82685   0.54571   0.79451   0.00000  Uiso   1.00
H78    H     0.68546   0.64253   0.77222   0.00000  Uiso   1.00
H79    H     0.96101   0.43566   0.90823   0.00000  Uiso   1.00
H80    H     0.82443   0.51399   0.69914   0.00000  Uiso   1.00
H81    H     0.54401   0.82068   0.75380   0.00000  Uiso   1.00
H82    H     0.12504   0.38446   0.04058   0.00000  Uiso   1.00
H83    H     0.83702   0.54964   0.59967   0.00000  Uiso   1.00
O84    O     0.50354   0.12784   0.76072   0.00000  Uiso   1.00
O85    O     0.26582   0.55554   0.13696   0.00000  Uiso   1.00
O86    O     0.88795   0.77225   0.55849   0.00000  Uiso   1.00
N87    N     0.64048   0.16469   0.78849   0.00000  Uiso   1.00
N88    N     0.18369   0.75685   0.05662   0.00000  Uiso   1.00
N89    N     0.91444   0.91127   0.64441   0.00000  Uiso   1.00
N90    N     0.58624   0.91326   0.76622   0.00000  Uiso   1.00
N91    N     0.12945   0.50543   0.03435   0.00000  Uiso   1.00
N92    N     0.86021   0.65984   0.62214   0.00000  Uiso   1.00
C93    C     0.91760   0.53357   0.33177   0.00000  Uiso   1.00
C94    C     0.82796   0.54037   0.31439   0.00000  Uiso   1.00
C95    C     0.78282   0.40604   0.31219   0.00000  Uiso   1.00
C96    C     0.70170   0.43802   0.29525   0.00000  Uiso   1.00
C97    C     0.56781   0.42416   0.27046   0.00000  Uiso   1.00
C98    C     0.97767   0.65277   0.38829   0.00000  Uiso   1.00
C99    C     0.05840   0.61294   0.44823   0.00000  Uiso   1.00
C100   C     0.10332   0.73955   0.49349   0.00000  Uiso   1.00
C101   C     0.20188   0.90022   0.58342   0.00000  Uiso   1.00
C102   C     0.90345   0.61020   0.27469   0.00000  Uiso   1.00
C103   C     0.92181   0.53460   0.23911   0.00000  Uiso   1.00
C104   C     0.90425   0.62539   0.18873   0.00000  Uiso   1.00
C105   C     0.88758   0.71996   0.10226   0.00000  Uiso   1.00
C106   C     0.85382   0.82925   0.30558   0.00000  Uiso   1.00
C107   C     0.79333   0.70097   0.30017   0.00000  Uiso   1.00
C108   C     0.71225   0.73317   0.28322   0.00000  Uiso   1.00
C109   C     0.66699   0.59891   0.28099   0.00000  Uiso   1.00
C110   C     0.94303   0.81336   0.37407   0.00000  Uiso   1.00
C111   C     0.98784   0.94007   0.41925   0.00000  Uiso   1.00
C112   C     0.06861   0.90044   0.47924   0.00000  Uiso   1.00
C113   C     0.86881   0.77080   0.26046   0.00000  Uiso   1.00
C114   C     0.85123   0.86173   0.21013   0.00000  Uiso   1.00
C115   C     0.86955   0.78628   0.17448   0.00000  Uiso   1.00
H116   H     0.94457   0.40854   0.34285   0.00000  Uiso   1.00
H117   H     0.80965   0.28177   0.32321   0.00000  Uiso   1.00
H118   H     0.08520   0.48865   0.45922   0.00000  Uiso   1.00
H119   H     0.94861   0.41032   0.25013   0.00000  Uiso   1.00
H120   H     0.64480   0.21206   0.29519   0.00000  Uiso   1.00
H121   H     0.22582   0.64828   0.58196   0.00000  Uiso   1.00
H122   H     0.93781   0.48310   0.14105   0.00000  Uiso   1.00
H123   H     0.82685   0.95429   0.29451   0.00000  Uiso   1.00
H124   H     0.68546   0.85747   0.27222   0.00000  Uiso   1.00
H125   H     0.96101   0.06434   0.40823   0.00000  Uiso   1.00
H126   H     0.82443   0.98601   0.19914   0.00000  Uiso   1.00
H127   H     0.54401   0.67932   0.25380   0.00000  Uiso   1.00
H128   H     0.12504   0.11554   0.54058   0.00000  Uiso   1.00
H129   H     0.83702   0.95036   0.09967   0.00000  Uiso   1.00
O130   O     0.50354   0.37216   0.26072   0.00000  Uiso   1.00
O131   O     0.26582   0.94446   0.63696   0.00000  Uiso   1.00
O132   O     0.88795   0.72775   0.05849   0.00000  Uiso   1.00
N133   N     0.64048   0.33531   0.28849   0.00000  Uiso   1.00
N134   N     0.18369   0.74315   0.55662   0.00000  Uiso   1.00
N135   N     0.91444   0.58873   0.14441   0.00000  Uiso   1.00
N136   N     0.58624   0.58674   0.26622   0.00000  Uiso   1.00
N137   N     0.12945   0.99457   0.53435   0.00000  Uiso   1.00
N138   N     0.86021   0.84016   0.12214   0.00000  Uiso   1.00
C139   C     0.08240   0.03357   0.16823   0.00000  Uiso   1.00
C140   C     0.17204   0.04037   0.18561   0.00000  Uiso   1.00
C141   C     0.21718   0.90604   0.18781   0.00000  Uiso   1.00
C142   C     0.29830   0.93802   0.20475   0.00000  Uiso   1.00
C143   C     0.43219   0.92416   0.22954   0.00000  Uiso   1.00
C144   C     0.02233   0.15277   0.11171   0.00000  Uiso   1.00
C145   C     0.94160   0.11294   0.05177   0.00000  Uiso   1.00
C146   C     0.89668   0.23955   0.00651   0.00000  Uiso   1.00
C147   C     0.79812   0.40022   0.91658   0.00000  Uiso   1.00
C148   C     0.09655   0.11020   0.22531   0.00000  Uiso   1.00
C149   C     0.07819   0.03460   0.26089   0.00000  Uiso   1.00
C150   C     0.09575   0.12539   0.31127   0.00000  Uiso   1.00
C151   C     0.11242   0.21996   0.39774   0.00000  Uiso   1.00
C152   C     0.14618   0.32925   0.19442   0.00000  Uiso   1.00
C153   C     0.20667   0.20097   0.19983   0.00000  Uiso   1.00
C154   C     0.28775   0.23317   0.21678   0.00000  Uiso   1.00
C155   C     0.33301   0.09891   0.21901   0.00000  Uiso   1.00
C156   C     0.05697   0.31336   0.12593   0.00000  Uiso   1.00
C157   C     0.01216   0.44007   0.08075   0.00000  Uiso   1.00
C158   C     0.93139   0.40044   0.02076   0.00000  Uiso   1.00
C159   C     0.13119   0.27080   0.23954   0.00000  Uiso   1.00
C160   C     0.14877   0.36173   0.28987   0.00000  Uiso   1.00
C161   C     0.13045   0.28628   0.32552   0.00000  Uiso   1.00
H162   H     0.05543   0.90854   0.15715   0.00000  Uiso   1.00
H163   H     0.19035   0.78177   0.17679   0.00000  Uiso   1.00
H164   H     0.91480   0.98865   0.04078   0.00000  Uiso   1.00
H165   H     0.05139   0.91032   0.24987   0.00000  Uiso   1.00
H166   H     0.35520   0.71206   0.20481   0.00000  Uiso   1.00
H167   H     0.77418   0.14828   0.91804   0.00000  Uiso   1.00
H168   H     0.06219   0.98310   0.35895   0.00000  Uiso   1.00
H169   H     0.17315   0.45429   0.20549   0.00000  Uiso   1.00
H170   H     0.31454   0.35747   0.22778   0.00000  Uiso   1.00
H171   H     0.03899   0.56434   0.09177   0.00000  Uiso   1.00
H172   H     0.17557   0.48601   0.30086   0.00000  Uiso   1.00
H173   H     0.45599   0.17932   0.24620   0.00000  Uiso   1.00
H174   H     0.87496   0.61554   0.95942   0.00000  Uiso   1.00
H175   H     0.16298   0.45036   0.40033   0.00000  Uiso   1.00
O176   O     0.49646   0.87216   0.23928   0.00000  Uiso   1.00
O177   O     0.73418   0.44446   0.86304   0.00000  Uiso   1.00
O178   O     0.11205   0.22775   0.44151   0.00000  Uiso   1.00
N179   N     0.35952   0.83531   0.21151   0.00000  Uiso   1.00
N180   N     0.81631   0.24315   0.94338   0.00000  Uiso   1.00
N181   N     0.08556   0.08873   0.35559   0.00000  Uiso   1.00
N182   N     0.41376   0.08674   0.23378   0.00000  Uiso   1.00
N183   N     0.87055   0.49457   0.96565   0.00000  Uiso   1.00
N184   N     0.13979   0.34016   0.37786   0.00000  Uiso   1.00
