data_job_01497
_audit_creation_date              2018-12-19
_audit_creation_method            'Materials Studio'
_symmetry_space_group_name_H-M    'P1'
_symmetry_Int_Tables_number       1
_symmetry_cell_setting            triclinic
loop_
_symmetry_equiv_pos_as_xyz
  x,y,z
_cell_length_a                    17.6114
_cell_length_b                    13.7694
_cell_length_c                    21.4329
_cell_angle_alpha                 90.0000
_cell_angle_beta                  90.0000
_cell_angle_gamma                 90.0000
loop_
_atom_site_label
_atom_site_type_symbol
_atom_site_fract_x
_atom_site_fract_y
_atom_site_fract_z
_atom_site_U_iso_or_equiv
_atom_site_adp_type
_atom_site_occupancy
C1     C     0.97473   0.22387   0.19090   0.00000  Uiso   1.00
C2     C     0.93153   0.15011   0.15144   0.00000  Uiso   1.00
C3     C     0.86569   0.16834   0.11785   0.00000  Uiso   1.00
C4     C     0.83485   0.09120   0.08472   0.00000  Uiso   1.00
C5     C     0.76260   0.99065   0.02341   0.00000  Uiso   1.00
C6     C     0.97967   0.18041   0.25621   0.00000  Uiso   1.00
C7     C     0.95432   0.22413   0.31071   0.00000  Uiso   1.00
C8     C     0.96401   0.17249   0.36578   0.00000  Uiso   1.00
C9     C     0.96656   0.11903   0.46713   0.00000  Uiso   1.00
C10    C     0.05568   0.22497   0.16566   0.00000  Uiso   1.00
C11    C     0.09424   0.30616   0.14403   0.00000  Uiso   1.00
C12    C     0.16794   0.29205   0.12287   0.00000  Uiso   1.00
C13    C     0.28849   0.30776   0.08363   0.00000  Uiso   1.00
C14    C     0.03704   0.05443   0.19180   0.00000  Uiso   1.00
C15    C     0.96537   0.05807   0.15193   0.00000  Uiso   1.00
C16    C     0.93462   0.98088   0.11885   0.00000  Uiso   1.00
C17    C     0.86875   0.99900   0.08521   0.00000  Uiso   1.00
C18    C     0.01351   0.08838   0.25671   0.00000  Uiso   1.00
C19    C     0.02325   0.03667   0.31171   0.00000  Uiso   1.00
C20    C     0.99792   0.08029   0.36627   0.00000  Uiso   1.00
C21    C     0.08952   0.13293   0.16615   0.00000  Uiso   1.00
C22    C     0.16317   0.11869   0.14502   0.00000  Uiso   1.00
C23    C     0.20184   0.19985   0.12337   0.00000  Uiso   1.00
H24    H     0.94838   0.29552   0.19052   0.00000  Uiso   1.00
H25    H     0.83951   0.23957   0.11749   0.00000  Uiso   1.00
H26    H     0.92814   0.29535   0.31032   0.00000  Uiso   1.00
H27    H     0.06804   0.37737   0.14366   0.00000  Uiso   1.00
H28    H     0.73372   0.13695   0.03675   0.00000  Uiso   1.00
H29    H     0.92061   0.25459   0.44335   0.00000  Uiso   1.00
H30    H     0.21562   0.42754   0.09192   0.00000  Uiso   1.00
H31    H     0.06338   0.98277   0.19218   0.00000  Uiso   1.00
H32    H     0.96083   0.90966   0.11923   0.00000  Uiso   1.00
H33    H     0.04945   0.96545   0.31207   0.00000  Uiso   1.00
H34    H     0.18934   0.04746   0.14541   0.00000  Uiso   1.00
H35    H     0.83218   0.86919   0.03817   0.00000  Uiso   1.00
H36    H     0.01908   0.98683   0.44477   0.00000  Uiso   1.00
H37    H     0.31408   0.15977   0.09334   0.00000  Uiso   1.00
O38    O     0.71340   0.96061   0.98946   0.00000  Uiso   1.00
O39    O     0.95860   0.11496   0.52290   0.00000  Uiso   1.00
O40    O     0.34564   0.34185   0.06183   0.00000  Uiso   1.00
N41    N     0.77098   0.08397   0.04709   0.00000  Uiso   1.00
N42    N     0.94570   0.19395   0.42723   0.00000  Uiso   1.00
N43    N     0.22151   0.35564   0.09869   0.00000  Uiso   1.00
N44    N     0.82396   0.93989   0.04785   0.00000  Uiso   1.00
N45    N     0.99868   0.04987   0.42799   0.00000  Uiso   1.00
N46    N     0.27449   0.21156   0.09945   0.00000  Uiso   1.00
C47    C     0.52527   0.77613   0.69090   0.00000  Uiso   1.00
C48    C     0.56847   0.84989   0.65144   0.00000  Uiso   1.00
C49    C     0.63431   0.83166   0.61785   0.00000  Uiso   1.00
C50    C     0.66515   0.90880   0.58472   0.00000  Uiso   1.00
C51    C     0.73740   0.00935   0.52341   0.00000  Uiso   1.00
C52    C     0.52033   0.81959   0.75621   0.00000  Uiso   1.00
C53    C     0.54568   0.77587   0.81071   0.00000  Uiso   1.00
C54    C     0.53599   0.82751   0.86578   0.00000  Uiso   1.00
C55    C     0.53344   0.88097   0.96713   0.00000  Uiso   1.00
C56    C     0.44432   0.77503   0.66566   0.00000  Uiso   1.00
C57    C     0.40576   0.69384   0.64403   0.00000  Uiso   1.00
C58    C     0.33206   0.70795   0.62287   0.00000  Uiso   1.00
C59    C     0.21151   0.69224   0.58363   0.00000  Uiso   1.00
C60    C     0.46296   0.94557   0.69180   0.00000  Uiso   1.00
C61    C     0.53463   0.94193   0.65193   0.00000  Uiso   1.00
C62    C     0.56538   0.01912   0.61885   0.00000  Uiso   1.00
C63    C     0.63125   0.00100   0.58521   0.00000  Uiso   1.00
C64    C     0.48649   0.91162   0.75671   0.00000  Uiso   1.00
C65    C     0.47675   0.96333   0.81171   0.00000  Uiso   1.00
C66    C     0.50208   0.91971   0.86627   0.00000  Uiso   1.00
C67    C     0.41048   0.86707   0.66615   0.00000  Uiso   1.00
C68    C     0.33683   0.88131   0.64502   0.00000  Uiso   1.00
C69    C     0.29816   0.80015   0.62337   0.00000  Uiso   1.00
H70    H     0.55162   0.70448   0.69052   0.00000  Uiso   1.00
H71    H     0.66049   0.76043   0.61749   0.00000  Uiso   1.00
H72    H     0.57186   0.70465   0.81032   0.00000  Uiso   1.00
H73    H     0.43196   0.62263   0.64366   0.00000  Uiso   1.00
H74    H     0.76628   0.86305   0.53675   0.00000  Uiso   1.00
H75    H     0.57939   0.74541   0.94335   0.00000  Uiso   1.00
H76    H     0.28438   0.57246   0.59192   0.00000  Uiso   1.00
H77    H     0.43662   0.01723   0.69218   0.00000  Uiso   1.00
H78    H     0.53917   0.09034   0.61923   0.00000  Uiso   1.00
H79    H     0.45055   0.03455   0.81207   0.00000  Uiso   1.00
H80    H     0.31066   0.95254   0.64541   0.00000  Uiso   1.00
H81    H     0.66782   0.13081   0.53817   0.00000  Uiso   1.00
H82    H     0.48092   0.01317   0.94477   0.00000  Uiso   1.00
H83    H     0.18592   0.84023   0.59334   0.00000  Uiso   1.00
O84    O     0.78660   0.03939   0.48946   0.00000  Uiso   1.00
O85    O     0.54140   0.88504   0.02290   0.00000  Uiso   1.00
O86    O     0.15436   0.65815   0.56183   0.00000  Uiso   1.00
N87    N     0.72902   0.91603   0.54709   0.00000  Uiso   1.00
N88    N     0.55430   0.80605   0.92723   0.00000  Uiso   1.00
N89    N     0.27849   0.64436   0.59869   0.00000  Uiso   1.00
N90    N     0.67604   0.06011   0.54785   0.00000  Uiso   1.00
N91    N     0.50132   0.95013   0.92799   0.00000  Uiso   1.00
N92    N     0.22551   0.78844   0.59945   0.00000  Uiso   1.00
C93    C     0.02527   0.72387   0.30910   0.00000  Uiso   1.00
C94    C     0.06847   0.65011   0.34856   0.00000  Uiso   1.00
C95    C     0.13431   0.66834   0.38215   0.00000  Uiso   1.00
C96    C     0.16515   0.59120   0.41528   0.00000  Uiso   1.00
C97    C     0.23740   0.49065   0.47659   0.00000  Uiso   1.00
C98    C     0.02033   0.68041   0.24379   0.00000  Uiso   1.00
C99    C     0.04568   0.72413   0.18929   0.00000  Uiso   1.00
C100   C     0.03599   0.67249   0.13422   0.00000  Uiso   1.00
C101   C     0.03344   0.61903   0.03287   0.00000  Uiso   1.00
C102   C     0.94432   0.72497   0.33434   0.00000  Uiso   1.00
C103   C     0.90576   0.80616   0.35597   0.00000  Uiso   1.00
C104   C     0.83206   0.79205   0.37713   0.00000  Uiso   1.00
C105   C     0.71151   0.80776   0.41637   0.00000  Uiso   1.00
C106   C     0.96296   0.55443   0.30820   0.00000  Uiso   1.00
C107   C     0.03463   0.55807   0.34807   0.00000  Uiso   1.00
C108   C     0.06538   0.48088   0.38115   0.00000  Uiso   1.00
C109   C     0.13125   0.49900   0.41479   0.00000  Uiso   1.00
C110   C     0.98649   0.58838   0.24329   0.00000  Uiso   1.00
C111   C     0.97675   0.53667   0.18829   0.00000  Uiso   1.00
C112   C     0.00208   0.58029   0.13373   0.00000  Uiso   1.00
C113   C     0.91048   0.63293   0.33385   0.00000  Uiso   1.00
C114   C     0.83683   0.61869   0.35498   0.00000  Uiso   1.00
C115   C     0.79816   0.69985   0.37663   0.00000  Uiso   1.00
H116   H     0.05162   0.79552   0.30948   0.00000  Uiso   1.00
H117   H     0.16049   0.73957   0.38251   0.00000  Uiso   1.00
H118   H     0.07186   0.79535   0.18968   0.00000  Uiso   1.00
H119   H     0.93196   0.87737   0.35634   0.00000  Uiso   1.00
H120   H     0.26628   0.63695   0.46325   0.00000  Uiso   1.00
H121   H     0.07939   0.75459   0.05665   0.00000  Uiso   1.00
H122   H     0.78438   0.92754   0.40808   0.00000  Uiso   1.00
H123   H     0.93662   0.48277   0.30782   0.00000  Uiso   1.00
H124   H     0.03917   0.40966   0.38077   0.00000  Uiso   1.00
H125   H     0.95055   0.46545   0.18793   0.00000  Uiso   1.00
H126   H     0.81066   0.54746   0.35459   0.00000  Uiso   1.00
H127   H     0.16782   0.36919   0.46183   0.00000  Uiso   1.00
H128   H     0.98092   0.48683   0.05523   0.00000  Uiso   1.00
H129   H     0.68592   0.65977   0.40666   0.00000  Uiso   1.00
O130   O     0.28660   0.46061   0.51054   0.00000  Uiso   1.00
O131   O     0.04140   0.61496   0.97710   0.00000  Uiso   1.00
O132   O     0.65436   0.84185   0.43817   0.00000  Uiso   1.00
N133   N     0.22902   0.58397   0.45291   0.00000  Uiso   1.00
N134   N     0.05430   0.69395   0.07277   0.00000  Uiso   1.00
N135   N     0.77849   0.85564   0.40131   0.00000  Uiso   1.00
N136   N     0.17604   0.43989   0.45215   0.00000  Uiso   1.00
N137   N     0.00132   0.54987   0.07201   0.00000  Uiso   1.00
N138   N     0.72551   0.71156   0.40055   0.00000  Uiso   1.00
C139   C     0.47473   0.27613   0.80910   0.00000  Uiso   1.00
C140   C     0.43153   0.34989   0.84856   0.00000  Uiso   1.00
C141   C     0.36569   0.33166   0.88215   0.00000  Uiso   1.00
C142   C     0.33485   0.40880   0.91528   0.00000  Uiso   1.00
C143   C     0.26260   0.50935   0.97659   0.00000  Uiso   1.00
C144   C     0.47967   0.31959   0.74379   0.00000  Uiso   1.00
C145   C     0.45432   0.27587   0.68929   0.00000  Uiso   1.00
C146   C     0.46401   0.32751   0.63422   0.00000  Uiso   1.00
C147   C     0.46656   0.38097   0.53287   0.00000  Uiso   1.00
C148   C     0.55568   0.27503   0.83434   0.00000  Uiso   1.00
C149   C     0.59424   0.19384   0.85597   0.00000  Uiso   1.00
C150   C     0.66794   0.20795   0.87713   0.00000  Uiso   1.00
C151   C     0.78849   0.19224   0.91637   0.00000  Uiso   1.00
C152   C     0.53704   0.44557   0.80820   0.00000  Uiso   1.00
C153   C     0.46537   0.44193   0.84807   0.00000  Uiso   1.00
C154   C     0.43462   0.51912   0.88115   0.00000  Uiso   1.00
C155   C     0.36875   0.50100   0.91479   0.00000  Uiso   1.00
C156   C     0.51351   0.41162   0.74329   0.00000  Uiso   1.00
C157   C     0.52325   0.46333   0.68829   0.00000  Uiso   1.00
C158   C     0.49792   0.41971   0.63373   0.00000  Uiso   1.00
C159   C     0.58952   0.36707   0.83385   0.00000  Uiso   1.00
C160   C     0.66317   0.38131   0.85498   0.00000  Uiso   1.00
C161   C     0.70184   0.30015   0.87663   0.00000  Uiso   1.00
H162   H     0.44838   0.20448   0.80948   0.00000  Uiso   1.00
H163   H     0.33951   0.26043   0.88251   0.00000  Uiso   1.00
H164   H     0.42814   0.20465   0.68968   0.00000  Uiso   1.00
H165   H     0.56804   0.12263   0.85634   0.00000  Uiso   1.00
H166   H     0.23372   0.36305   0.96325   0.00000  Uiso   1.00
H167   H     0.42061   0.24541   0.55665   0.00000  Uiso   1.00
H168   H     0.71562   0.07246   0.90808   0.00000  Uiso   1.00
H169   H     0.56338   0.51723   0.80782   0.00000  Uiso   1.00
H170   H     0.46083   0.59034   0.88077   0.00000  Uiso   1.00
H171   H     0.54945   0.53455   0.68793   0.00000  Uiso   1.00
H172   H     0.68934   0.45254   0.85459   0.00000  Uiso   1.00
H173   H     0.33218   0.63081   0.96183   0.00000  Uiso   1.00
H174   H     0.51908   0.51317   0.55523   0.00000  Uiso   1.00
H175   H     0.81408   0.34023   0.90666   0.00000  Uiso   1.00
O176   O     0.21340   0.53939   0.01054   0.00000  Uiso   1.00
O177   O     0.45860   0.38504   0.47710   0.00000  Uiso   1.00
O178   O     0.84564   0.15815   0.93817   0.00000  Uiso   1.00
N179   N     0.27098   0.41603   0.95291   0.00000  Uiso   1.00
N180   N     0.44570   0.30605   0.57277   0.00000  Uiso   1.00
N181   N     0.72151   0.14436   0.90131   0.00000  Uiso   1.00
N182   N     0.32396   0.56011   0.95215   0.00000  Uiso   1.00
N183   N     0.49868   0.45013   0.57201   0.00000  Uiso   1.00
N184   N     0.77449   0.28844   0.90055   0.00000  Uiso   1.00
C185   C     0.02527   0.77613   0.80910   0.00000  Uiso   1.00
C186   C     0.06847   0.84989   0.84856   0.00000  Uiso   1.00
C187   C     0.13431   0.83166   0.88215   0.00000  Uiso   1.00
C188   C     0.16515   0.90880   0.91528   0.00000  Uiso   1.00
C189   C     0.23740   0.00935   0.97659   0.00000  Uiso   1.00
C190   C     0.02033   0.81959   0.74379   0.00000  Uiso   1.00
C191   C     0.04568   0.77587   0.68929   0.00000  Uiso   1.00
C192   C     0.03599   0.82751   0.63422   0.00000  Uiso   1.00
C193   C     0.03344   0.88097   0.53287   0.00000  Uiso   1.00
C194   C     0.94432   0.77503   0.83434   0.00000  Uiso   1.00
C195   C     0.90576   0.69384   0.85597   0.00000  Uiso   1.00
C196   C     0.83206   0.70795   0.87713   0.00000  Uiso   1.00
C197   C     0.71151   0.69224   0.91637   0.00000  Uiso   1.00
C198   C     0.96296   0.94557   0.80820   0.00000  Uiso   1.00
C199   C     0.03463   0.94193   0.84807   0.00000  Uiso   1.00
C200   C     0.06538   0.01912   0.88115   0.00000  Uiso   1.00
C201   C     0.13125   0.00100   0.91479   0.00000  Uiso   1.00
C202   C     0.98649   0.91162   0.74329   0.00000  Uiso   1.00
C203   C     0.97675   0.96333   0.68829   0.00000  Uiso   1.00
C204   C     0.00208   0.91971   0.63373   0.00000  Uiso   1.00
C205   C     0.91048   0.86707   0.83385   0.00000  Uiso   1.00
C206   C     0.83683   0.88131   0.85498   0.00000  Uiso   1.00
C207   C     0.79816   0.80015   0.87663   0.00000  Uiso   1.00
H208   H     0.05162   0.70448   0.80948   0.00000  Uiso   1.00
H209   H     0.16049   0.76043   0.88251   0.00000  Uiso   1.00
H210   H     0.07186   0.70465   0.68968   0.00000  Uiso   1.00
H211   H     0.93196   0.62263   0.85634   0.00000  Uiso   1.00
H212   H     0.26628   0.86305   0.96325   0.00000  Uiso   1.00
H213   H     0.07939   0.74541   0.55665   0.00000  Uiso   1.00
H214   H     0.78438   0.57246   0.90808   0.00000  Uiso   1.00
H215   H     0.93662   0.01723   0.80782   0.00000  Uiso   1.00
H216   H     0.03917   0.09034   0.88077   0.00000  Uiso   1.00
H217   H     0.95055   0.03455   0.68793   0.00000  Uiso   1.00
H218   H     0.81066   0.95254   0.85459   0.00000  Uiso   1.00
H219   H     0.16782   0.13081   0.96183   0.00000  Uiso   1.00
H220   H     0.98092   0.01317   0.55523   0.00000  Uiso   1.00
H221   H     0.68592   0.84023   0.90666   0.00000  Uiso   1.00
O222   O     0.28660   0.03939   0.01054   0.00000  Uiso   1.00
O223   O     0.04140   0.88504   0.47710   0.00000  Uiso   1.00
O224   O     0.65436   0.65815   0.93817   0.00000  Uiso   1.00
N225   N     0.22902   0.91603   0.95291   0.00000  Uiso   1.00
N226   N     0.05430   0.80605   0.57277   0.00000  Uiso   1.00
N227   N     0.77849   0.64436   0.90131   0.00000  Uiso   1.00
N228   N     0.17604   0.06011   0.95215   0.00000  Uiso   1.00
N229   N     0.00132   0.95013   0.57201   0.00000  Uiso   1.00
N230   N     0.72551   0.78844   0.90055   0.00000  Uiso   1.00
C231   C     0.47473   0.22387   0.30910   0.00000  Uiso   1.00
C232   C     0.43153   0.15011   0.34856   0.00000  Uiso   1.00
C233   C     0.36569   0.16834   0.38215   0.00000  Uiso   1.00
C234   C     0.33485   0.09120   0.41528   0.00000  Uiso   1.00
C235   C     0.26260   0.99065   0.47659   0.00000  Uiso   1.00
C236   C     0.47967   0.18041   0.24379   0.00000  Uiso   1.00
C237   C     0.45432   0.22413   0.18929   0.00000  Uiso   1.00
C238   C     0.46401   0.17249   0.13422   0.00000  Uiso   1.00
C239   C     0.46656   0.11903   0.03287   0.00000  Uiso   1.00
C240   C     0.55568   0.22497   0.33434   0.00000  Uiso   1.00
C241   C     0.59424   0.30616   0.35597   0.00000  Uiso   1.00
C242   C     0.66794   0.29205   0.37713   0.00000  Uiso   1.00
C243   C     0.78849   0.30776   0.41637   0.00000  Uiso   1.00
C244   C     0.53704   0.05443   0.30820   0.00000  Uiso   1.00
C245   C     0.46537   0.05807   0.34807   0.00000  Uiso   1.00
C246   C     0.43462   0.98088   0.38115   0.00000  Uiso   1.00
C247   C     0.36875   0.99900   0.41479   0.00000  Uiso   1.00
C248   C     0.51351   0.08838   0.24329   0.00000  Uiso   1.00
C249   C     0.52325   0.03667   0.18829   0.00000  Uiso   1.00
C250   C     0.49792   0.08029   0.13373   0.00000  Uiso   1.00
C251   C     0.58952   0.13293   0.33385   0.00000  Uiso   1.00
C252   C     0.66317   0.11869   0.35498   0.00000  Uiso   1.00
C253   C     0.70184   0.19985   0.37663   0.00000  Uiso   1.00
H254   H     0.44838   0.29552   0.30948   0.00000  Uiso   1.00
H255   H     0.33951   0.23957   0.38251   0.00000  Uiso   1.00
H256   H     0.42814   0.29535   0.18968   0.00000  Uiso   1.00
H257   H     0.56804   0.37737   0.35634   0.00000  Uiso   1.00
H258   H     0.23372   0.13695   0.46325   0.00000  Uiso   1.00
H259   H     0.42061   0.25459   0.05665   0.00000  Uiso   1.00
H260   H     0.71562   0.42754   0.40808   0.00000  Uiso   1.00
H261   H     0.56338   0.98277   0.30782   0.00000  Uiso   1.00
H262   H     0.46083   0.90966   0.38077   0.00000  Uiso   1.00
H263   H     0.54945   0.96545   0.18793   0.00000  Uiso   1.00
H264   H     0.68934   0.04746   0.35459   0.00000  Uiso   1.00
H265   H     0.33218   0.86919   0.46183   0.00000  Uiso   1.00
H266   H     0.51908   0.98683   0.05523   0.00000  Uiso   1.00
H267   H     0.81408   0.15977   0.40666   0.00000  Uiso   1.00
O268   O     0.21340   0.96061   0.51054   0.00000  Uiso   1.00
O269   O     0.45860   0.11496   0.97710   0.00000  Uiso   1.00
O270   O     0.84564   0.34185   0.43817   0.00000  Uiso   1.00
N271   N     0.27098   0.08397   0.45291   0.00000  Uiso   1.00
N272   N     0.44570   0.19395   0.07277   0.00000  Uiso   1.00
N273   N     0.72151   0.35564   0.40131   0.00000  Uiso   1.00
N274   N     0.32396   0.93989   0.45215   0.00000  Uiso   1.00
N275   N     0.49868   0.04987   0.07201   0.00000  Uiso   1.00
N276   N     0.77449   0.21156   0.40055   0.00000  Uiso   1.00
C277   C     0.97473   0.27613   0.69090   0.00000  Uiso   1.00
C278   C     0.93153   0.34989   0.65144   0.00000  Uiso   1.00
C279   C     0.86569   0.33166   0.61785   0.00000  Uiso   1.00
C280   C     0.83485   0.40880   0.58472   0.00000  Uiso   1.00
C281   C     0.76260   0.50935   0.52341   0.00000  Uiso   1.00
C282   C     0.97967   0.31959   0.75621   0.00000  Uiso   1.00
C283   C     0.95432   0.27587   0.81071   0.00000  Uiso   1.00
C284   C     0.96401   0.32751   0.86578   0.00000  Uiso   1.00
C285   C     0.96656   0.38097   0.96713   0.00000  Uiso   1.00
C286   C     0.05568   0.27503   0.66566   0.00000  Uiso   1.00
C287   C     0.09424   0.19384   0.64403   0.00000  Uiso   1.00
C288   C     0.16794   0.20795   0.62287   0.00000  Uiso   1.00
C289   C     0.28849   0.19224   0.58363   0.00000  Uiso   1.00
C290   C     0.03704   0.44557   0.69180   0.00000  Uiso   1.00
C291   C     0.96537   0.44193   0.65193   0.00000  Uiso   1.00
C292   C     0.93462   0.51912   0.61885   0.00000  Uiso   1.00
C293   C     0.86875   0.50100   0.58521   0.00000  Uiso   1.00
C294   C     0.01351   0.41162   0.75671   0.00000  Uiso   1.00
C295   C     0.02325   0.46333   0.81171   0.00000  Uiso   1.00
C296   C     0.99792   0.41971   0.86627   0.00000  Uiso   1.00
C297   C     0.08952   0.36707   0.66615   0.00000  Uiso   1.00
C298   C     0.16317   0.38131   0.64502   0.00000  Uiso   1.00
C299   C     0.20184   0.30015   0.62337   0.00000  Uiso   1.00
H300   H     0.94838   0.20448   0.69052   0.00000  Uiso   1.00
H301   H     0.83951   0.26043   0.61749   0.00000  Uiso   1.00
H302   H     0.92814   0.20465   0.81032   0.00000  Uiso   1.00
H303   H     0.06804   0.12263   0.64366   0.00000  Uiso   1.00
H304   H     0.73372   0.36305   0.53675   0.00000  Uiso   1.00
H305   H     0.92061   0.24541   0.94335   0.00000  Uiso   1.00
H306   H     0.21562   0.07246   0.59192   0.00000  Uiso   1.00
H307   H     0.06338   0.51723   0.69218   0.00000  Uiso   1.00
H308   H     0.96083   0.59034   0.61923   0.00000  Uiso   1.00
H309   H     0.04945   0.53455   0.81207   0.00000  Uiso   1.00
H310   H     0.18934   0.45254   0.64541   0.00000  Uiso   1.00
H311   H     0.83218   0.63081   0.53817   0.00000  Uiso   1.00
H312   H     0.01908   0.51317   0.94477   0.00000  Uiso   1.00
H313   H     0.31408   0.34023   0.59334   0.00000  Uiso   1.00
O314   O     0.71340   0.53939   0.48946   0.00000  Uiso   1.00
O315   O     0.95860   0.38504   0.02290   0.00000  Uiso   1.00
O316   O     0.34564   0.15815   0.56183   0.00000  Uiso   1.00
N317   N     0.77098   0.41603   0.54709   0.00000  Uiso   1.00
N318   N     0.94570   0.30605   0.92723   0.00000  Uiso   1.00
N319   N     0.22151   0.14436   0.59869   0.00000  Uiso   1.00
N320   N     0.82396   0.56011   0.54785   0.00000  Uiso   1.00
N321   N     0.99868   0.45013   0.92799   0.00000  Uiso   1.00
N322   N     0.27449   0.28844   0.59945   0.00000  Uiso   1.00
C323   C     0.52527   0.72387   0.19090   0.00000  Uiso   1.00
C324   C     0.56847   0.65011   0.15144   0.00000  Uiso   1.00
C325   C     0.63431   0.66834   0.11785   0.00000  Uiso   1.00
C326   C     0.66515   0.59120   0.08472   0.00000  Uiso   1.00
C327   C     0.73740   0.49065   0.02341   0.00000  Uiso   1.00
C328   C     0.52033   0.68041   0.25621   0.00000  Uiso   1.00
C329   C     0.54568   0.72413   0.31071   0.00000  Uiso   1.00
C330   C     0.53599   0.67249   0.36578   0.00000  Uiso   1.00
C331   C     0.53344   0.61903   0.46713   0.00000  Uiso   1.00
C332   C     0.44432   0.72497   0.16566   0.00000  Uiso   1.00
C333   C     0.40576   0.80616   0.14403   0.00000  Uiso   1.00
C334   C     0.33206   0.79205   0.12287   0.00000  Uiso   1.00
C335   C     0.21151   0.80776   0.08363   0.00000  Uiso   1.00
C336   C     0.46296   0.55443   0.19180   0.00000  Uiso   1.00
C337   C     0.53463   0.55807   0.15193   0.00000  Uiso   1.00
C338   C     0.56538   0.48088   0.11885   0.00000  Uiso   1.00
C339   C     0.63125   0.49900   0.08521   0.00000  Uiso   1.00
C340   C     0.48649   0.58838   0.25671   0.00000  Uiso   1.00
C341   C     0.47675   0.53667   0.31171   0.00000  Uiso   1.00
C342   C     0.50208   0.58029   0.36627   0.00000  Uiso   1.00
C343   C     0.41048   0.63293   0.16615   0.00000  Uiso   1.00
C344   C     0.33683   0.61869   0.14502   0.00000  Uiso   1.00
C345   C     0.29816   0.69985   0.12337   0.00000  Uiso   1.00
H346   H     0.55162   0.79552   0.19052   0.00000  Uiso   1.00
H347   H     0.66049   0.73957   0.11749   0.00000  Uiso   1.00
H348   H     0.57186   0.79535   0.31032   0.00000  Uiso   1.00
H349   H     0.43196   0.87737   0.14366   0.00000  Uiso   1.00
H350   H     0.76628   0.63695   0.03675   0.00000  Uiso   1.00
H351   H     0.57939   0.75459   0.44335   0.00000  Uiso   1.00
H352   H     0.28438   0.92754   0.09192   0.00000  Uiso   1.00
H353   H     0.43662   0.48277   0.19218   0.00000  Uiso   1.00
H354   H     0.53917   0.40966   0.11923   0.00000  Uiso   1.00
H355   H     0.45055   0.46545   0.31207   0.00000  Uiso   1.00
H356   H     0.31066   0.54746   0.14541   0.00000  Uiso   1.00
H357   H     0.66782   0.36919   0.03817   0.00000  Uiso   1.00
H358   H     0.48092   0.48683   0.44477   0.00000  Uiso   1.00
H359   H     0.18592   0.65977   0.09334   0.00000  Uiso   1.00
O360   O     0.78660   0.46061   0.98946   0.00000  Uiso   1.00
O361   O     0.54140   0.61496   0.52290   0.00000  Uiso   1.00
O362   O     0.15436   0.84185   0.06183   0.00000  Uiso   1.00
N363   N     0.72902   0.58397   0.04709   0.00000  Uiso   1.00
N364   N     0.55430   0.69395   0.42723   0.00000  Uiso   1.00
N365   N     0.27849   0.85564   0.09869   0.00000  Uiso   1.00
N366   N     0.67604   0.43989   0.04785   0.00000  Uiso   1.00
N367   N     0.50132   0.54987   0.42799   0.00000  Uiso   1.00
N368   N     0.22551   0.71156   0.09945   0.00000  Uiso   1.00
