data_job_03681
_audit_creation_date              2018-12-19
_audit_creation_method            'Materials Studio'
_symmetry_space_group_name_H-M    'P1'
_symmetry_Int_Tables_number       1
_symmetry_cell_setting            triclinic
loop_
_symmetry_equiv_pos_as_xyz
  x,y,z
_cell_length_a                    12.5349
_cell_length_b                    12.5349
_cell_length_c                    34.4544
_cell_angle_alpha                 90.0000
_cell_angle_beta                  90.0000
_cell_angle_gamma                 90.0000
loop_
_atom_site_label
_atom_site_type_symbol
_atom_site_fract_x
_atom_site_fract_y
_atom_site_fract_z
_atom_site_U_iso_or_equiv
_atom_site_adp_type
_atom_site_occupancy
C1     C     0.79673   0.42371   0.95373   0.00000  Uiso   1.00
C2     C     0.82380   0.52025   0.97880   0.00000  Uiso   1.00
C3     C     0.87316   0.51719   0.01483   0.00000  Uiso   1.00
C4     C     0.89098   0.61425   0.03313   0.00000  Uiso   1.00
C5     C     0.93769   0.74947   0.07466   0.00000  Uiso   1.00
C6     C     0.85085   0.44276   0.91470   0.00000  Uiso   1.00
C7     C     0.92293   0.37454   0.89684   0.00000  Uiso   1.00
C8     C     0.96351   0.40638   0.86118   0.00000  Uiso   1.00
C9     C     0.05215   0.42125   0.80318   0.00000  Uiso   1.00
C10    C     0.67710   0.42998   0.94604   0.00000  Uiso   1.00
C11    C     0.60309   0.35100   0.95453   0.00000  Uiso   1.00
C12    C     0.49738   0.37206   0.94524   0.00000  Uiso   1.00
C13    C     0.31625   0.36709   0.93590   0.00000  Uiso   1.00
C14    C     0.74060   0.60153   0.92214   0.00000  Uiso   1.00
C15    C     0.79331   0.61683   0.96164   0.00000  Uiso   1.00
C16    C     0.81106   0.71392   0.97988   0.00000  Uiso   1.00
C17    C     0.86043   0.71101   0.01594   0.00000  Uiso   1.00
C18    C     0.82036   0.53934   0.89754   0.00000  Uiso   1.00
C19    C     0.86083   0.57128   0.86190   0.00000  Uiso   1.00
C20    C     0.93297   0.50313   0.84399   0.00000  Uiso   1.00
C21    C     0.64661   0.52656   0.92888   0.00000  Uiso   1.00
C22    C     0.54099   0.54774   0.91958   0.00000  Uiso   1.00
C23    C     0.46684   0.46882   0.92805   0.00000  Uiso   1.00
H24    H     0.82047   0.34852   0.96709   0.00000  Uiso   1.00
H25    H     0.89675   0.44243   0.02810   0.00000  Uiso   1.00
H26    H     0.94650   0.29980   0.91013   0.00000  Uiso   1.00
H27    H     0.62671   0.27627   0.96780   0.00000  Uiso   1.00
H28    H     0.96791   0.58915   0.08818   0.00000  Uiso   1.00
H29    H     0.07279   0.28840   0.83942   0.00000  Uiso   1.00
H30    H     0.39844   0.23877   0.96103   0.00000  Uiso   1.00
H31    H     0.71687   0.67672   0.90878   0.00000  Uiso   1.00
H32    H     0.78746   0.78865   0.96660   0.00000  Uiso   1.00
H33    H     0.83722   0.64602   0.84863   0.00000  Uiso   1.00
H34    H     0.51743   0.62249   0.90630   0.00000  Uiso   1.00
H35    H     0.87921   0.87016   0.03826   0.00000  Uiso   1.00
H36    H     0.98409   0.56940   0.78950   0.00000  Uiso   1.00
H37    H     0.30975   0.51977   0.91112   0.00000  Uiso   1.00
O38    O     0.97190   0.79736   0.10230   0.00000  Uiso   1.00
O39    O     0.10948   0.40277   0.77593   0.00000  Uiso   1.00
O40    O     0.22476   0.33767   0.93549   0.00000  Uiso   1.00
N41    N     0.93732   0.63992   0.06850   0.00000  Uiso   1.00
N42    N     0.03540   0.35874   0.83592   0.00000  Uiso   1.00
N43    N     0.40495   0.31233   0.94962   0.00000  Uiso   1.00
N44    N     0.88960   0.79113   0.04164   0.00000  Uiso   1.00
N45    N     0.98767   0.50995   0.80906   0.00000  Uiso   1.00
N46    N     0.35722   0.46354   0.92276   0.00000  Uiso   1.00
C47    C     0.20327   0.57629   0.45373   0.00000  Uiso   1.00
C48    C     0.17620   0.47975   0.47880   0.00000  Uiso   1.00
C49    C     0.12684   0.48281   0.51483   0.00000  Uiso   1.00
C50    C     0.10902   0.38575   0.53313   0.00000  Uiso   1.00
C51    C     0.06231   0.25053   0.57466   0.00000  Uiso   1.00
C52    C     0.14915   0.55724   0.41470   0.00000  Uiso   1.00
C53    C     0.07707   0.62546   0.39684   0.00000  Uiso   1.00
C54    C     0.03649   0.59362   0.36118   0.00000  Uiso   1.00
C55    C     0.94785   0.57875   0.30318   0.00000  Uiso   1.00
C56    C     0.32290   0.57002   0.44604   0.00000  Uiso   1.00
C57    C     0.39691   0.64900   0.45453   0.00000  Uiso   1.00
C58    C     0.50262   0.62794   0.44524   0.00000  Uiso   1.00
C59    C     0.68375   0.63291   0.43590   0.00000  Uiso   1.00
C60    C     0.25940   0.39847   0.42214   0.00000  Uiso   1.00
C61    C     0.20669   0.38317   0.46164   0.00000  Uiso   1.00
C62    C     0.18894   0.28608   0.47988   0.00000  Uiso   1.00
C63    C     0.13957   0.28899   0.51594   0.00000  Uiso   1.00
C64    C     0.17964   0.46066   0.39754   0.00000  Uiso   1.00
C65    C     0.13917   0.42872   0.36190   0.00000  Uiso   1.00
C66    C     0.06703   0.49687   0.34399   0.00000  Uiso   1.00
C67    C     0.35339   0.47344   0.42888   0.00000  Uiso   1.00
C68    C     0.45901   0.45226   0.41958   0.00000  Uiso   1.00
C69    C     0.53316   0.53118   0.42805   0.00000  Uiso   1.00
H70    H     0.17953   0.65148   0.46709   0.00000  Uiso   1.00
H71    H     0.10325   0.55757   0.52810   0.00000  Uiso   1.00
H72    H     0.05350   0.70020   0.41013   0.00000  Uiso   1.00
H73    H     0.37329   0.72373   0.46780   0.00000  Uiso   1.00
H74    H     0.03209   0.41085   0.58818   0.00000  Uiso   1.00
H75    H     0.92721   0.71160   0.33942   0.00000  Uiso   1.00
H76    H     0.60156   0.76123   0.46103   0.00000  Uiso   1.00
H77    H     0.28313   0.32328   0.40878   0.00000  Uiso   1.00
H78    H     0.21254   0.21135   0.46660   0.00000  Uiso   1.00
H79    H     0.16278   0.35398   0.34863   0.00000  Uiso   1.00
H80    H     0.48257   0.37751   0.40630   0.00000  Uiso   1.00
H81    H     0.12079   0.12984   0.53826   0.00000  Uiso   1.00
H82    H     0.01591   0.43060   0.28950   0.00000  Uiso   1.00
H83    H     0.69025   0.48023   0.41112   0.00000  Uiso   1.00
O84    O     0.02810   0.20264   0.60230   0.00000  Uiso   1.00
O85    O     0.89052   0.59723   0.27593   0.00000  Uiso   1.00
O86    O     0.77524   0.66233   0.43549   0.00000  Uiso   1.00
N87    N     0.06268   0.36008   0.56850   0.00000  Uiso   1.00
N88    N     0.96460   0.64126   0.33592   0.00000  Uiso   1.00
N89    N     0.59505   0.68767   0.44962   0.00000  Uiso   1.00
N90    N     0.11040   0.20887   0.54164   0.00000  Uiso   1.00
N91    N     0.01233   0.49005   0.30906   0.00000  Uiso   1.00
N92    N     0.64278   0.53646   0.42276   0.00000  Uiso   1.00
C93    C     0.57629   0.79673   0.20373   0.00000  Uiso   1.00
C94    C     0.47975   0.82380   0.22880   0.00000  Uiso   1.00
C95    C     0.48281   0.87316   0.26483   0.00000  Uiso   1.00
C96    C     0.38575   0.89098   0.28313   0.00000  Uiso   1.00
C97    C     0.25053   0.93769   0.32466   0.00000  Uiso   1.00
C98    C     0.55724   0.85085   0.16470   0.00000  Uiso   1.00
C99    C     0.62546   0.92293   0.14684   0.00000  Uiso   1.00
C100   C     0.59362   0.96351   0.11118   0.00000  Uiso   1.00
C101   C     0.57875   0.05215   0.05318   0.00000  Uiso   1.00
C102   C     0.57002   0.67710   0.19604   0.00000  Uiso   1.00
C103   C     0.64900   0.60309   0.20453   0.00000  Uiso   1.00
C104   C     0.62794   0.49738   0.19524   0.00000  Uiso   1.00
C105   C     0.63291   0.31625   0.18590   0.00000  Uiso   1.00
C106   C     0.39847   0.74060   0.17214   0.00000  Uiso   1.00
C107   C     0.38317   0.79331   0.21164   0.00000  Uiso   1.00
C108   C     0.28608   0.81106   0.22988   0.00000  Uiso   1.00
C109   C     0.28899   0.86043   0.26594   0.00000  Uiso   1.00
C110   C     0.46066   0.82036   0.14754   0.00000  Uiso   1.00
C111   C     0.42872   0.86083   0.11190   0.00000  Uiso   1.00
C112   C     0.49687   0.93297   0.09399   0.00000  Uiso   1.00
C113   C     0.47344   0.64661   0.17888   0.00000  Uiso   1.00
C114   C     0.45226   0.54099   0.16958   0.00000  Uiso   1.00
C115   C     0.53118   0.46684   0.17805   0.00000  Uiso   1.00
H116   H     0.65148   0.82047   0.21709   0.00000  Uiso   1.00
H117   H     0.55757   0.89675   0.27810   0.00000  Uiso   1.00
H118   H     0.70020   0.94650   0.16013   0.00000  Uiso   1.00
H119   H     0.72373   0.62671   0.21780   0.00000  Uiso   1.00
H120   H     0.41085   0.96791   0.33818   0.00000  Uiso   1.00
H121   H     0.71160   0.07279   0.08942   0.00000  Uiso   1.00
H122   H     0.76123   0.39844   0.21103   0.00000  Uiso   1.00
H123   H     0.32328   0.71687   0.15878   0.00000  Uiso   1.00
H124   H     0.21135   0.78746   0.21660   0.00000  Uiso   1.00
H125   H     0.35398   0.83722   0.09863   0.00000  Uiso   1.00
H126   H     0.37751   0.51743   0.15630   0.00000  Uiso   1.00
H127   H     0.12984   0.87921   0.28826   0.00000  Uiso   1.00
H128   H     0.43060   0.98409   0.03950   0.00000  Uiso   1.00
H129   H     0.48023   0.30975   0.16112   0.00000  Uiso   1.00
O130   O     0.20264   0.97190   0.35230   0.00000  Uiso   1.00
O131   O     0.59723   0.10948   0.02593   0.00000  Uiso   1.00
O132   O     0.66233   0.22476   0.18549   0.00000  Uiso   1.00
N133   N     0.36008   0.93732   0.31850   0.00000  Uiso   1.00
N134   N     0.64126   0.03540   0.08592   0.00000  Uiso   1.00
N135   N     0.68767   0.40495   0.19962   0.00000  Uiso   1.00
N136   N     0.20887   0.88960   0.29164   0.00000  Uiso   1.00
N137   N     0.49005   0.98767   0.05906   0.00000  Uiso   1.00
N138   N     0.53646   0.35722   0.17276   0.00000  Uiso   1.00
C139   C     0.42371   0.20327   0.70373   0.00000  Uiso   1.00
C140   C     0.52025   0.17620   0.72880   0.00000  Uiso   1.00
C141   C     0.51719   0.12684   0.76483   0.00000  Uiso   1.00
C142   C     0.61425   0.10902   0.78313   0.00000  Uiso   1.00
C143   C     0.74947   0.06231   0.82466   0.00000  Uiso   1.00
C144   C     0.44276   0.14915   0.66470   0.00000  Uiso   1.00
C145   C     0.37454   0.07707   0.64684   0.00000  Uiso   1.00
C146   C     0.40638   0.03649   0.61118   0.00000  Uiso   1.00
C147   C     0.42125   0.94785   0.55318   0.00000  Uiso   1.00
C148   C     0.42998   0.32290   0.69604   0.00000  Uiso   1.00
C149   C     0.35100   0.39691   0.70453   0.00000  Uiso   1.00
C150   C     0.37206   0.50262   0.69524   0.00000  Uiso   1.00
C151   C     0.36709   0.68375   0.68590   0.00000  Uiso   1.00
C152   C     0.60153   0.25940   0.67214   0.00000  Uiso   1.00
C153   C     0.61683   0.20669   0.71164   0.00000  Uiso   1.00
C154   C     0.71392   0.18894   0.72988   0.00000  Uiso   1.00
C155   C     0.71101   0.13957   0.76594   0.00000  Uiso   1.00
C156   C     0.53934   0.17964   0.64754   0.00000  Uiso   1.00
C157   C     0.57128   0.13917   0.61190   0.00000  Uiso   1.00
C158   C     0.50313   0.06703   0.59399   0.00000  Uiso   1.00
C159   C     0.52656   0.35339   0.67888   0.00000  Uiso   1.00
C160   C     0.54774   0.45901   0.66958   0.00000  Uiso   1.00
C161   C     0.46882   0.53316   0.67805   0.00000  Uiso   1.00
H162   H     0.34852   0.17953   0.71709   0.00000  Uiso   1.00
H163   H     0.44243   0.10325   0.77810   0.00000  Uiso   1.00
H164   H     0.29980   0.05350   0.66013   0.00000  Uiso   1.00
H165   H     0.27627   0.37329   0.71780   0.00000  Uiso   1.00
H166   H     0.58915   0.03209   0.83818   0.00000  Uiso   1.00
H167   H     0.28840   0.92721   0.58942   0.00000  Uiso   1.00
H168   H     0.23877   0.60156   0.71103   0.00000  Uiso   1.00
H169   H     0.67672   0.28313   0.65878   0.00000  Uiso   1.00
H170   H     0.78865   0.21254   0.71660   0.00000  Uiso   1.00
H171   H     0.64602   0.16278   0.59863   0.00000  Uiso   1.00
H172   H     0.62249   0.48257   0.65630   0.00000  Uiso   1.00
H173   H     0.87016   0.12079   0.78826   0.00000  Uiso   1.00
H174   H     0.56940   0.01591   0.53950   0.00000  Uiso   1.00
H175   H     0.51977   0.69025   0.66112   0.00000  Uiso   1.00
O176   O     0.79736   0.02810   0.85230   0.00000  Uiso   1.00
O177   O     0.40277   0.89052   0.52593   0.00000  Uiso   1.00
O178   O     0.33767   0.77524   0.68549   0.00000  Uiso   1.00
N179   N     0.63992   0.06268   0.81850   0.00000  Uiso   1.00
N180   N     0.35874   0.96460   0.58592   0.00000  Uiso   1.00
N181   N     0.31233   0.59505   0.69962   0.00000  Uiso   1.00
N182   N     0.79113   0.11040   0.79164   0.00000  Uiso   1.00
N183   N     0.50995   0.01233   0.55906   0.00000  Uiso   1.00
N184   N     0.46354   0.64278   0.67276   0.00000  Uiso   1.00
C185   C     0.20327   0.42371   0.04627   0.00000  Uiso   1.00
C186   C     0.17620   0.52025   0.02120   0.00000  Uiso   1.00
C187   C     0.12684   0.51719   0.98517   0.00000  Uiso   1.00
C188   C     0.10902   0.61425   0.96687   0.00000  Uiso   1.00
C189   C     0.06231   0.74947   0.92534   0.00000  Uiso   1.00
C190   C     0.14915   0.44276   0.08530   0.00000  Uiso   1.00
C191   C     0.07707   0.37454   0.10316   0.00000  Uiso   1.00
C192   C     0.03649   0.40638   0.13882   0.00000  Uiso   1.00
C193   C     0.94785   0.42125   0.19682   0.00000  Uiso   1.00
C194   C     0.32290   0.42998   0.05396   0.00000  Uiso   1.00
C195   C     0.39691   0.35100   0.04547   0.00000  Uiso   1.00
C196   C     0.50262   0.37206   0.05476   0.00000  Uiso   1.00
C197   C     0.68375   0.36709   0.06410   0.00000  Uiso   1.00
C198   C     0.25940   0.60153   0.07786   0.00000  Uiso   1.00
C199   C     0.20669   0.61683   0.03836   0.00000  Uiso   1.00
C200   C     0.18894   0.71392   0.02012   0.00000  Uiso   1.00
C201   C     0.13957   0.71101   0.98406   0.00000  Uiso   1.00
C202   C     0.17964   0.53934   0.10246   0.00000  Uiso   1.00
C203   C     0.13917   0.57128   0.13810   0.00000  Uiso   1.00
C204   C     0.06703   0.50313   0.15601   0.00000  Uiso   1.00
C205   C     0.35339   0.52656   0.07112   0.00000  Uiso   1.00
C206   C     0.45901   0.54774   0.08042   0.00000  Uiso   1.00
C207   C     0.53316   0.46882   0.07195   0.00000  Uiso   1.00
H208   H     0.17953   0.34852   0.03291   0.00000  Uiso   1.00
H209   H     0.10325   0.44243   0.97190   0.00000  Uiso   1.00
H210   H     0.05350   0.29980   0.08987   0.00000  Uiso   1.00
H211   H     0.37329   0.27627   0.03220   0.00000  Uiso   1.00
H212   H     0.03209   0.58915   0.91182   0.00000  Uiso   1.00
H213   H     0.92721   0.28840   0.16058   0.00000  Uiso   1.00
H214   H     0.60156   0.23877   0.03897   0.00000  Uiso   1.00
H215   H     0.28313   0.67672   0.09122   0.00000  Uiso   1.00
H216   H     0.21254   0.78865   0.03340   0.00000  Uiso   1.00
H217   H     0.16278   0.64602   0.15137   0.00000  Uiso   1.00
H218   H     0.48257   0.62249   0.09370   0.00000  Uiso   1.00
H219   H     0.12079   0.87016   0.96174   0.00000  Uiso   1.00
H220   H     0.01591   0.56940   0.21050   0.00000  Uiso   1.00
H221   H     0.69025   0.51977   0.08888   0.00000  Uiso   1.00
O222   O     0.02810   0.79736   0.89770   0.00000  Uiso   1.00
O223   O     0.89052   0.40277   0.22407   0.00000  Uiso   1.00
O224   O     0.77524   0.33767   0.06451   0.00000  Uiso   1.00
N225   N     0.06268   0.63992   0.93150   0.00000  Uiso   1.00
N226   N     0.96460   0.35874   0.16408   0.00000  Uiso   1.00
N227   N     0.59505   0.31233   0.05038   0.00000  Uiso   1.00
N228   N     0.11040   0.79113   0.95836   0.00000  Uiso   1.00
N229   N     0.01233   0.50995   0.19094   0.00000  Uiso   1.00
N230   N     0.64278   0.46354   0.07724   0.00000  Uiso   1.00
C231   C     0.79673   0.57629   0.54627   0.00000  Uiso   1.00
C232   C     0.82380   0.47975   0.52120   0.00000  Uiso   1.00
C233   C     0.87316   0.48281   0.48517   0.00000  Uiso   1.00
C234   C     0.89098   0.38575   0.46687   0.00000  Uiso   1.00
C235   C     0.93769   0.25053   0.42534   0.00000  Uiso   1.00
C236   C     0.85085   0.55724   0.58530   0.00000  Uiso   1.00
C237   C     0.92293   0.62546   0.60316   0.00000  Uiso   1.00
C238   C     0.96351   0.59362   0.63882   0.00000  Uiso   1.00
C239   C     0.05215   0.57875   0.69682   0.00000  Uiso   1.00
C240   C     0.67710   0.57002   0.55396   0.00000  Uiso   1.00
C241   C     0.60309   0.64900   0.54547   0.00000  Uiso   1.00
C242   C     0.49738   0.62794   0.55476   0.00000  Uiso   1.00
C243   C     0.31625   0.63291   0.56410   0.00000  Uiso   1.00
C244   C     0.74060   0.39847   0.57786   0.00000  Uiso   1.00
C245   C     0.79331   0.38317   0.53836   0.00000  Uiso   1.00
C246   C     0.81106   0.28608   0.52012   0.00000  Uiso   1.00
C247   C     0.86043   0.28899   0.48406   0.00000  Uiso   1.00
C248   C     0.82036   0.46066   0.60246   0.00000  Uiso   1.00
C249   C     0.86083   0.42872   0.63810   0.00000  Uiso   1.00
C250   C     0.93297   0.49687   0.65601   0.00000  Uiso   1.00
C251   C     0.64661   0.47344   0.57112   0.00000  Uiso   1.00
C252   C     0.54099   0.45226   0.58042   0.00000  Uiso   1.00
C253   C     0.46684   0.53118   0.57195   0.00000  Uiso   1.00
H254   H     0.82047   0.65148   0.53291   0.00000  Uiso   1.00
H255   H     0.89675   0.55757   0.47190   0.00000  Uiso   1.00
H256   H     0.94650   0.70020   0.58987   0.00000  Uiso   1.00
H257   H     0.62671   0.72373   0.53220   0.00000  Uiso   1.00
H258   H     0.96791   0.41085   0.41182   0.00000  Uiso   1.00
H259   H     0.07279   0.71160   0.66058   0.00000  Uiso   1.00
H260   H     0.39844   0.76123   0.53897   0.00000  Uiso   1.00
H261   H     0.71687   0.32328   0.59122   0.00000  Uiso   1.00
H262   H     0.78746   0.21135   0.53340   0.00000  Uiso   1.00
H263   H     0.83722   0.35398   0.65137   0.00000  Uiso   1.00
H264   H     0.51743   0.37751   0.59370   0.00000  Uiso   1.00
H265   H     0.87921   0.12984   0.46174   0.00000  Uiso   1.00
H266   H     0.98409   0.43060   0.71050   0.00000  Uiso   1.00
H267   H     0.30975   0.48023   0.58888   0.00000  Uiso   1.00
O268   O     0.97190   0.20264   0.39770   0.00000  Uiso   1.00
O269   O     0.10948   0.59723   0.72407   0.00000  Uiso   1.00
O270   O     0.22476   0.66233   0.56451   0.00000  Uiso   1.00
N271   N     0.93732   0.36008   0.43150   0.00000  Uiso   1.00
N272   N     0.03540   0.64126   0.66408   0.00000  Uiso   1.00
N273   N     0.40495   0.68767   0.55038   0.00000  Uiso   1.00
N274   N     0.88960   0.20887   0.45836   0.00000  Uiso   1.00
N275   N     0.98767   0.49005   0.69094   0.00000  Uiso   1.00
N276   N     0.35722   0.53646   0.57724   0.00000  Uiso   1.00
C277   C     0.42371   0.79673   0.79627   0.00000  Uiso   1.00
C278   C     0.52025   0.82380   0.77120   0.00000  Uiso   1.00
C279   C     0.51719   0.87316   0.73517   0.00000  Uiso   1.00
C280   C     0.61425   0.89098   0.71687   0.00000  Uiso   1.00
C281   C     0.74947   0.93769   0.67534   0.00000  Uiso   1.00
C282   C     0.44276   0.85085   0.83530   0.00000  Uiso   1.00
C283   C     0.37454   0.92293   0.85316   0.00000  Uiso   1.00
C284   C     0.40638   0.96351   0.88882   0.00000  Uiso   1.00
C285   C     0.42125   0.05215   0.94682   0.00000  Uiso   1.00
C286   C     0.42998   0.67710   0.80396   0.00000  Uiso   1.00
C287   C     0.35100   0.60309   0.79547   0.00000  Uiso   1.00
C288   C     0.37206   0.49738   0.80476   0.00000  Uiso   1.00
C289   C     0.36709   0.31625   0.81410   0.00000  Uiso   1.00
C290   C     0.60153   0.74060   0.82786   0.00000  Uiso   1.00
C291   C     0.61683   0.79331   0.78836   0.00000  Uiso   1.00
C292   C     0.71392   0.81106   0.77012   0.00000  Uiso   1.00
C293   C     0.71101   0.86043   0.73406   0.00000  Uiso   1.00
C294   C     0.53934   0.82036   0.85246   0.00000  Uiso   1.00
C295   C     0.57128   0.86083   0.88810   0.00000  Uiso   1.00
C296   C     0.50313   0.93297   0.90601   0.00000  Uiso   1.00
C297   C     0.52656   0.64661   0.82112   0.00000  Uiso   1.00
C298   C     0.54774   0.54099   0.83042   0.00000  Uiso   1.00
C299   C     0.46882   0.46684   0.82195   0.00000  Uiso   1.00
H300   H     0.34852   0.82047   0.78291   0.00000  Uiso   1.00
H301   H     0.44243   0.89675   0.72190   0.00000  Uiso   1.00
H302   H     0.29980   0.94650   0.83987   0.00000  Uiso   1.00
H303   H     0.27627   0.62671   0.78220   0.00000  Uiso   1.00
H304   H     0.58915   0.96791   0.66182   0.00000  Uiso   1.00
H305   H     0.28840   0.07279   0.91058   0.00000  Uiso   1.00
H306   H     0.23877   0.39844   0.78897   0.00000  Uiso   1.00
H307   H     0.67672   0.71687   0.84122   0.00000  Uiso   1.00
H308   H     0.78865   0.78746   0.78340   0.00000  Uiso   1.00
H309   H     0.64602   0.83722   0.90137   0.00000  Uiso   1.00
H310   H     0.62249   0.51743   0.84370   0.00000  Uiso   1.00
H311   H     0.87016   0.87921   0.71174   0.00000  Uiso   1.00
H312   H     0.56940   0.98409   0.96050   0.00000  Uiso   1.00
H313   H     0.51977   0.30975   0.83888   0.00000  Uiso   1.00
O314   O     0.79736   0.97190   0.64770   0.00000  Uiso   1.00
O315   O     0.40277   0.10948   0.97407   0.00000  Uiso   1.00
O316   O     0.33767   0.22476   0.81451   0.00000  Uiso   1.00
N317   N     0.63992   0.93732   0.68150   0.00000  Uiso   1.00
N318   N     0.35874   0.03540   0.91408   0.00000  Uiso   1.00
N319   N     0.31233   0.40495   0.80038   0.00000  Uiso   1.00
N320   N     0.79113   0.88960   0.70836   0.00000  Uiso   1.00
N321   N     0.50995   0.98767   0.94094   0.00000  Uiso   1.00
N322   N     0.46354   0.35722   0.82724   0.00000  Uiso   1.00
C323   C     0.57629   0.20327   0.29627   0.00000  Uiso   1.00
C324   C     0.47975   0.17620   0.27120   0.00000  Uiso   1.00
C325   C     0.48281   0.12684   0.23517   0.00000  Uiso   1.00
C326   C     0.38575   0.10902   0.21687   0.00000  Uiso   1.00
C327   C     0.25053   0.06231   0.17534   0.00000  Uiso   1.00
C328   C     0.55724   0.14915   0.33530   0.00000  Uiso   1.00
C329   C     0.62546   0.07707   0.35316   0.00000  Uiso   1.00
C330   C     0.59362   0.03649   0.38882   0.00000  Uiso   1.00
C331   C     0.57875   0.94785   0.44682   0.00000  Uiso   1.00
C332   C     0.57002   0.32290   0.30396   0.00000  Uiso   1.00
C333   C     0.64900   0.39691   0.29547   0.00000  Uiso   1.00
C334   C     0.62794   0.50262   0.30476   0.00000  Uiso   1.00
C335   C     0.63291   0.68375   0.31410   0.00000  Uiso   1.00
C336   C     0.39847   0.25940   0.32786   0.00000  Uiso   1.00
C337   C     0.38317   0.20669   0.28836   0.00000  Uiso   1.00
C338   C     0.28608   0.18894   0.27012   0.00000  Uiso   1.00
C339   C     0.28899   0.13957   0.23406   0.00000  Uiso   1.00
C340   C     0.46066   0.17964   0.35246   0.00000  Uiso   1.00
C341   C     0.42872   0.13917   0.38810   0.00000  Uiso   1.00
C342   C     0.49687   0.06703   0.40601   0.00000  Uiso   1.00
C343   C     0.47344   0.35339   0.32112   0.00000  Uiso   1.00
C344   C     0.45226   0.45901   0.33042   0.00000  Uiso   1.00
C345   C     0.53118   0.53316   0.32195   0.00000  Uiso   1.00
H346   H     0.65148   0.17953   0.28291   0.00000  Uiso   1.00
H347   H     0.55757   0.10325   0.22190   0.00000  Uiso   1.00
H348   H     0.70020   0.05350   0.33987   0.00000  Uiso   1.00
H349   H     0.72373   0.37329   0.28220   0.00000  Uiso   1.00
H350   H     0.41085   0.03209   0.16182   0.00000  Uiso   1.00
H351   H     0.71160   0.92721   0.41058   0.00000  Uiso   1.00
H352   H     0.76123   0.60156   0.28897   0.00000  Uiso   1.00
H353   H     0.32328   0.28313   0.34122   0.00000  Uiso   1.00
H354   H     0.21135   0.21254   0.28340   0.00000  Uiso   1.00
H355   H     0.35398   0.16278   0.40137   0.00000  Uiso   1.00
H356   H     0.37751   0.48257   0.34370   0.00000  Uiso   1.00
H357   H     0.12984   0.12079   0.21174   0.00000  Uiso   1.00
H358   H     0.43060   0.01591   0.46050   0.00000  Uiso   1.00
H359   H     0.48023   0.69025   0.33888   0.00000  Uiso   1.00
O360   O     0.20264   0.02810   0.14770   0.00000  Uiso   1.00
O361   O     0.59723   0.89052   0.47407   0.00000  Uiso   1.00
O362   O     0.66233   0.77524   0.31451   0.00000  Uiso   1.00
N363   N     0.36008   0.06268   0.18150   0.00000  Uiso   1.00
N364   N     0.64126   0.96460   0.41408   0.00000  Uiso   1.00
N365   N     0.68767   0.59505   0.30038   0.00000  Uiso   1.00
N366   N     0.20887   0.11040   0.20836   0.00000  Uiso   1.00
N367   N     0.49005   0.01233   0.44094   0.00000  Uiso   1.00
N368   N     0.53646   0.64278   0.32724   0.00000  Uiso   1.00
