data_job_03979
_audit_creation_date              2018-12-19
_audit_creation_method            'Materials Studio'
_symmetry_space_group_name_H-M    'P1'
_symmetry_Int_Tables_number       1
_symmetry_cell_setting            triclinic
loop_
_symmetry_equiv_pos_as_xyz
  x,y,z
_cell_length_a                    30.5200
_cell_length_b                    7.4286
_cell_length_c                    40.7728
_cell_angle_alpha                 90.0000
_cell_angle_beta                  90.0000
_cell_angle_gamma                 90.0000
loop_
_atom_site_label
_atom_site_type_symbol
_atom_site_fract_x
_atom_site_fract_y
_atom_site_fract_z
_atom_site_U_iso_or_equiv
_atom_site_adp_type
_atom_site_occupancy
C1     C     0.97186   0.09077   0.16344   0.00000  Uiso   1.00
C2     C     0.97000   0.15809   0.12813   0.00000  Uiso   1.00
C3     C     0.98414   0.06399   0.10070   0.00000  Uiso   1.00
C4     C     0.97964   0.14893   0.07056   0.00000  Uiso   1.00
C5     C     0.97952   0.22721   0.01613   0.00000  Uiso   1.00
C6     C     0.99781   0.23147   0.18252   0.00000  Uiso   1.00
C7     C     0.03533   0.19905   0.20082   0.00000  Uiso   1.00
C8     C     0.05424   0.34576   0.21647   0.00000  Uiso   1.00
C9     C     0.09727   0.53794   0.24651   0.00000  Uiso   1.00
C10    C     0.92505   0.10081   0.17640   0.00000  Uiso   1.00
C11    C     0.90140   0.95854   0.18956   0.00000  Uiso   1.00
C12    C     0.85906   0.99526   0.20006   0.00000  Uiso   1.00
C13    C     0.78912   0.98456   0.22059   0.00000  Uiso   1.00
C14    C     0.93872   0.40896   0.15868   0.00000  Uiso   1.00
C15    C     0.95200   0.33093   0.12555   0.00000  Uiso   1.00
C16    C     0.94748   0.41603   0.09544   0.00000  Uiso   1.00
C17    C     0.96161   0.32207   0.06797   0.00000  Uiso   1.00
C18    C     0.97981   0.40430   0.17994   0.00000  Uiso   1.00
C19    C     0.99867   0.55109   0.19556   0.00000  Uiso   1.00
C20    C     0.03621   0.51891   0.21388   0.00000  Uiso   1.00
C21    C     0.90705   0.27364   0.17382   0.00000  Uiso   1.00
C22    C     0.86474   0.31059   0.18430   0.00000  Uiso   1.00
C23    C     0.84102   0.16840   0.19747   0.00000  Uiso   1.00
H24    H     0.98587   0.95622   0.16545   0.00000  Uiso   1.00
H25    H     0.99807   0.93024   0.10271   0.00000  Uiso   1.00
H26    H     0.04925   0.06528   0.20282   0.00000  Uiso   1.00
H27    H     0.91534   0.82481   0.19156   0.00000  Uiso   1.00
H28    H     0.00368   0.97769   0.03201   0.00000  Uiso   1.00
H29    H     0.11158   0.26242   0.24311   0.00000  Uiso   1.00
H30    H     0.82921   0.75534   0.21936   0.00000  Uiso   1.00
H31    H     0.92470   0.54353   0.15667   0.00000  Uiso   1.00
H32    H     0.93355   0.54978   0.09345   0.00000  Uiso   1.00
H33    H     0.98473   0.68482   0.19356   0.00000  Uiso   1.00
H34    H     0.85082   0.44435   0.18230   0.00000  Uiso   1.00
H35    H     0.95131   0.48054   0.02450   0.00000  Uiso   1.00
H36    H     0.05921   0.76526   0.23560   0.00000  Uiso   1.00
H37    H     0.77684   0.25818   0.21185   0.00000  Uiso   1.00
O38    O     0.98443   0.22266   0.98682   0.00000  Uiso   1.00
O39    O     0.12598   0.59619   0.26378   0.00000  Uiso   1.00
O40    O     0.75552   0.93092   0.23262   0.00000  Uiso   1.00
N41    N     0.99013   0.09517   0.03892   0.00000  Uiso   1.00
N42    N     0.09101   0.36137   0.23628   0.00000  Uiso   1.00
N43    N     0.82703   0.88730   0.21409   0.00000  Uiso   1.00
N44    N     0.96195   0.36574   0.03488   0.00000  Uiso   1.00
N45    N     0.06283   0.63194   0.23224   0.00000  Uiso   1.00
N46    N     0.79885   0.15788   0.21004   0.00000  Uiso   1.00
C47    C     0.52814   0.40923   0.66344   0.00000  Uiso   1.00
C48    C     0.53000   0.34191   0.62813   0.00000  Uiso   1.00
C49    C     0.51586   0.43601   0.60070   0.00000  Uiso   1.00
C50    C     0.52036   0.35107   0.57056   0.00000  Uiso   1.00
C51    C     0.52048   0.27279   0.51613   0.00000  Uiso   1.00
C52    C     0.50219   0.26853   0.68252   0.00000  Uiso   1.00
C53    C     0.46467   0.30095   0.70082   0.00000  Uiso   1.00
C54    C     0.44576   0.15424   0.71647   0.00000  Uiso   1.00
C55    C     0.40273   0.96206   0.74651   0.00000  Uiso   1.00
C56    C     0.57495   0.39919   0.67640   0.00000  Uiso   1.00
C57    C     0.59860   0.54146   0.68956   0.00000  Uiso   1.00
C58    C     0.64094   0.50474   0.70006   0.00000  Uiso   1.00
C59    C     0.71088   0.51544   0.72059   0.00000  Uiso   1.00
C60    C     0.56128   0.09104   0.65868   0.00000  Uiso   1.00
C61    C     0.54800   0.16907   0.62555   0.00000  Uiso   1.00
C62    C     0.55252   0.08397   0.59544   0.00000  Uiso   1.00
C63    C     0.53839   0.17793   0.56797   0.00000  Uiso   1.00
C64    C     0.52019   0.09570   0.67994   0.00000  Uiso   1.00
C65    C     0.50133   0.94891   0.69556   0.00000  Uiso   1.00
C66    C     0.46379   0.98109   0.71388   0.00000  Uiso   1.00
C67    C     0.59295   0.22636   0.67382   0.00000  Uiso   1.00
C68    C     0.63526   0.18941   0.68430   0.00000  Uiso   1.00
C69    C     0.65898   0.33160   0.69747   0.00000  Uiso   1.00
H70    H     0.51413   0.54378   0.66545   0.00000  Uiso   1.00
H71    H     0.50193   0.56976   0.60271   0.00000  Uiso   1.00
H72    H     0.45075   0.43472   0.70282   0.00000  Uiso   1.00
H73    H     0.58466   0.67519   0.69156   0.00000  Uiso   1.00
H74    H     0.49632   0.52231   0.53201   0.00000  Uiso   1.00
H75    H     0.38842   0.23758   0.74311   0.00000  Uiso   1.00
H76    H     0.67079   0.74466   0.71936   0.00000  Uiso   1.00
H77    H     0.57530   0.95647   0.65667   0.00000  Uiso   1.00
H78    H     0.56645   0.95022   0.59345   0.00000  Uiso   1.00
H79    H     0.51527   0.81518   0.69356   0.00000  Uiso   1.00
H80    H     0.64918   0.05565   0.68230   0.00000  Uiso   1.00
H81    H     0.54869   0.01946   0.52450   0.00000  Uiso   1.00
H82    H     0.44079   0.73474   0.73560   0.00000  Uiso   1.00
H83    H     0.72316   0.24182   0.71185   0.00000  Uiso   1.00
O84    O     0.51557   0.27734   0.48682   0.00000  Uiso   1.00
O85    O     0.37402   0.90381   0.76378   0.00000  Uiso   1.00
O86    O     0.74448   0.56908   0.73262   0.00000  Uiso   1.00
N87    N     0.50987   0.40483   0.53892   0.00000  Uiso   1.00
N88    N     0.40899   0.13863   0.73628   0.00000  Uiso   1.00
N89    N     0.67297   0.61270   0.71409   0.00000  Uiso   1.00
N90    N     0.53805   0.13426   0.53488   0.00000  Uiso   1.00
N91    N     0.43717   0.86806   0.73224   0.00000  Uiso   1.00
N92    N     0.70115   0.34212   0.71004   0.00000  Uiso   1.00
C93    C     0.02814   0.09077   0.33656   0.00000  Uiso   1.00
C94    C     0.03000   0.15809   0.37187   0.00000  Uiso   1.00
C95    C     0.01586   0.06399   0.39930   0.00000  Uiso   1.00
C96    C     0.02036   0.14893   0.42944   0.00000  Uiso   1.00
C97    C     0.02048   0.22721   0.48387   0.00000  Uiso   1.00
C98    C     0.00219   0.23147   0.31748   0.00000  Uiso   1.00
C99    C     0.96467   0.19905   0.29918   0.00000  Uiso   1.00
C100   C     0.94576   0.34576   0.28353   0.00000  Uiso   1.00
C101   C     0.90273   0.53794   0.25349   0.00000  Uiso   1.00
C102   C     0.07495   0.10081   0.32360   0.00000  Uiso   1.00
C103   C     0.09860   0.95854   0.31044   0.00000  Uiso   1.00
C104   C     0.14094   0.99526   0.29994   0.00000  Uiso   1.00
C105   C     0.21088   0.98456   0.27941   0.00000  Uiso   1.00
C106   C     0.06128   0.40896   0.34132   0.00000  Uiso   1.00
C107   C     0.04800   0.33093   0.37445   0.00000  Uiso   1.00
C108   C     0.05252   0.41603   0.40456   0.00000  Uiso   1.00
C109   C     0.03839   0.32207   0.43203   0.00000  Uiso   1.00
C110   C     0.02019   0.40430   0.32006   0.00000  Uiso   1.00
C111   C     0.00133   0.55109   0.30444   0.00000  Uiso   1.00
C112   C     0.96379   0.51891   0.28612   0.00000  Uiso   1.00
C113   C     0.09295   0.27364   0.32618   0.00000  Uiso   1.00
C114   C     0.13526   0.31059   0.31570   0.00000  Uiso   1.00
C115   C     0.15898   0.16840   0.30253   0.00000  Uiso   1.00
H116   H     0.01413   0.95622   0.33455   0.00000  Uiso   1.00
H117   H     0.00193   0.93024   0.39729   0.00000  Uiso   1.00
H118   H     0.95075   0.06528   0.29718   0.00000  Uiso   1.00
H119   H     0.08466   0.82481   0.30844   0.00000  Uiso   1.00
H120   H     0.99632   0.97769   0.46799   0.00000  Uiso   1.00
H121   H     0.88842   0.26242   0.25689   0.00000  Uiso   1.00
H122   H     0.17079   0.75534   0.28064   0.00000  Uiso   1.00
H123   H     0.07530   0.54353   0.34333   0.00000  Uiso   1.00
H124   H     0.06645   0.54978   0.40655   0.00000  Uiso   1.00
H125   H     0.01527   0.68482   0.30644   0.00000  Uiso   1.00
H126   H     0.14918   0.44435   0.31770   0.00000  Uiso   1.00
H127   H     0.04869   0.48054   0.47550   0.00000  Uiso   1.00
H128   H     0.94079   0.76526   0.26440   0.00000  Uiso   1.00
H129   H     0.22316   0.25818   0.28815   0.00000  Uiso   1.00
O130   O     0.01557   0.22266   0.51318   0.00000  Uiso   1.00
O131   O     0.87402   0.59619   0.23622   0.00000  Uiso   1.00
O132   O     0.24448   0.93092   0.26738   0.00000  Uiso   1.00
N133   N     0.00987   0.09517   0.46108   0.00000  Uiso   1.00
N134   N     0.90899   0.36137   0.26372   0.00000  Uiso   1.00
N135   N     0.17297   0.88730   0.28591   0.00000  Uiso   1.00
N136   N     0.03805   0.36574   0.46512   0.00000  Uiso   1.00
N137   N     0.93717   0.63194   0.26776   0.00000  Uiso   1.00
N138   N     0.20115   0.15788   0.28996   0.00000  Uiso   1.00
C139   C     0.47186   0.40923   0.83656   0.00000  Uiso   1.00
C140   C     0.47000   0.34191   0.87187   0.00000  Uiso   1.00
C141   C     0.48414   0.43601   0.89930   0.00000  Uiso   1.00
C142   C     0.47964   0.35107   0.92944   0.00000  Uiso   1.00
C143   C     0.47952   0.27279   0.98387   0.00000  Uiso   1.00
C144   C     0.49781   0.26853   0.81748   0.00000  Uiso   1.00
C145   C     0.53533   0.30095   0.79918   0.00000  Uiso   1.00
C146   C     0.55424   0.15424   0.78353   0.00000  Uiso   1.00
C147   C     0.59727   0.96206   0.75349   0.00000  Uiso   1.00
C148   C     0.42505   0.39919   0.82360   0.00000  Uiso   1.00
C149   C     0.40140   0.54146   0.81044   0.00000  Uiso   1.00
C150   C     0.35906   0.50474   0.79994   0.00000  Uiso   1.00
C151   C     0.28912   0.51544   0.77941   0.00000  Uiso   1.00
C152   C     0.43872   0.09104   0.84132   0.00000  Uiso   1.00
C153   C     0.45200   0.16907   0.87445   0.00000  Uiso   1.00
C154   C     0.44748   0.08397   0.90456   0.00000  Uiso   1.00
C155   C     0.46161   0.17793   0.93203   0.00000  Uiso   1.00
C156   C     0.47981   0.09570   0.82006   0.00000  Uiso   1.00
C157   C     0.49867   0.94891   0.80444   0.00000  Uiso   1.00
C158   C     0.53621   0.98109   0.78612   0.00000  Uiso   1.00
C159   C     0.40705   0.22636   0.82618   0.00000  Uiso   1.00
C160   C     0.36474   0.18941   0.81570   0.00000  Uiso   1.00
C161   C     0.34102   0.33160   0.80253   0.00000  Uiso   1.00
H162   H     0.48587   0.54378   0.83455   0.00000  Uiso   1.00
H163   H     0.49807   0.56976   0.89729   0.00000  Uiso   1.00
H164   H     0.54925   0.43472   0.79718   0.00000  Uiso   1.00
H165   H     0.41534   0.67519   0.80844   0.00000  Uiso   1.00
H166   H     0.50368   0.52231   0.96799   0.00000  Uiso   1.00
H167   H     0.61158   0.23758   0.75689   0.00000  Uiso   1.00
H168   H     0.32921   0.74466   0.78064   0.00000  Uiso   1.00
H169   H     0.42470   0.95647   0.84333   0.00000  Uiso   1.00
H170   H     0.43355   0.95022   0.90655   0.00000  Uiso   1.00
H171   H     0.48473   0.81518   0.80644   0.00000  Uiso   1.00
H172   H     0.35082   0.05565   0.81770   0.00000  Uiso   1.00
H173   H     0.45131   0.01946   0.97550   0.00000  Uiso   1.00
H174   H     0.55921   0.73474   0.76440   0.00000  Uiso   1.00
H175   H     0.27684   0.24182   0.78815   0.00000  Uiso   1.00
O176   O     0.48443   0.27734   0.01318   0.00000  Uiso   1.00
O177   O     0.62598   0.90381   0.73622   0.00000  Uiso   1.00
O178   O     0.25552   0.56908   0.76738   0.00000  Uiso   1.00
N179   N     0.49013   0.40483   0.96108   0.00000  Uiso   1.00
N180   N     0.59101   0.13863   0.76372   0.00000  Uiso   1.00
N181   N     0.32703   0.61270   0.78591   0.00000  Uiso   1.00
N182   N     0.46195   0.13426   0.96512   0.00000  Uiso   1.00
N183   N     0.56283   0.86806   0.76776   0.00000  Uiso   1.00
N184   N     0.29885   0.34212   0.78996   0.00000  Uiso   1.00
C185   C     0.02814   0.90923   0.83656   0.00000  Uiso   1.00
C186   C     0.03000   0.84191   0.87187   0.00000  Uiso   1.00
C187   C     0.01586   0.93601   0.89930   0.00000  Uiso   1.00
C188   C     0.02036   0.85107   0.92944   0.00000  Uiso   1.00
C189   C     0.02048   0.77279   0.98387   0.00000  Uiso   1.00
C190   C     0.00219   0.76853   0.81748   0.00000  Uiso   1.00
C191   C     0.96467   0.80095   0.79918   0.00000  Uiso   1.00
C192   C     0.94576   0.65424   0.78353   0.00000  Uiso   1.00
C193   C     0.90273   0.46206   0.75349   0.00000  Uiso   1.00
C194   C     0.07495   0.89919   0.82360   0.00000  Uiso   1.00
C195   C     0.09860   0.04146   0.81044   0.00000  Uiso   1.00
C196   C     0.14094   0.00474   0.79994   0.00000  Uiso   1.00
C197   C     0.21088   0.01544   0.77941   0.00000  Uiso   1.00
C198   C     0.06128   0.59104   0.84132   0.00000  Uiso   1.00
C199   C     0.04800   0.66907   0.87445   0.00000  Uiso   1.00
C200   C     0.05252   0.58397   0.90456   0.00000  Uiso   1.00
C201   C     0.03839   0.67793   0.93203   0.00000  Uiso   1.00
C202   C     0.02019   0.59570   0.82006   0.00000  Uiso   1.00
C203   C     0.00133   0.44891   0.80444   0.00000  Uiso   1.00
C204   C     0.96379   0.48109   0.78612   0.00000  Uiso   1.00
C205   C     0.09295   0.72636   0.82618   0.00000  Uiso   1.00
C206   C     0.13526   0.68941   0.81570   0.00000  Uiso   1.00
C207   C     0.15898   0.83160   0.80253   0.00000  Uiso   1.00
H208   H     0.01413   0.04378   0.83455   0.00000  Uiso   1.00
H209   H     0.00193   0.06976   0.89729   0.00000  Uiso   1.00
H210   H     0.95075   0.93472   0.79718   0.00000  Uiso   1.00
H211   H     0.08466   0.17519   0.80844   0.00000  Uiso   1.00
H212   H     0.99632   0.02231   0.96799   0.00000  Uiso   1.00
H213   H     0.88842   0.73758   0.75689   0.00000  Uiso   1.00
H214   H     0.17079   0.24466   0.78064   0.00000  Uiso   1.00
H215   H     0.07530   0.45647   0.84333   0.00000  Uiso   1.00
H216   H     0.06645   0.45022   0.90655   0.00000  Uiso   1.00
H217   H     0.01527   0.31518   0.80644   0.00000  Uiso   1.00
H218   H     0.14918   0.55565   0.81770   0.00000  Uiso   1.00
H219   H     0.04869   0.51946   0.97550   0.00000  Uiso   1.00
H220   H     0.94079   0.23474   0.76440   0.00000  Uiso   1.00
H221   H     0.22316   0.74182   0.78815   0.00000  Uiso   1.00
O222   O     0.01557   0.77734   0.01318   0.00000  Uiso   1.00
O223   O     0.87402   0.40381   0.73622   0.00000  Uiso   1.00
O224   O     0.24448   0.06908   0.76738   0.00000  Uiso   1.00
N225   N     0.00987   0.90483   0.96108   0.00000  Uiso   1.00
N226   N     0.90899   0.63863   0.76372   0.00000  Uiso   1.00
N227   N     0.17297   0.11270   0.78591   0.00000  Uiso   1.00
N228   N     0.03805   0.63426   0.96512   0.00000  Uiso   1.00
N229   N     0.93717   0.36806   0.76776   0.00000  Uiso   1.00
N230   N     0.20115   0.84212   0.78996   0.00000  Uiso   1.00
C231   C     0.47186   0.59077   0.33656   0.00000  Uiso   1.00
C232   C     0.47000   0.65809   0.37187   0.00000  Uiso   1.00
C233   C     0.48414   0.56399   0.39930   0.00000  Uiso   1.00
C234   C     0.47964   0.64893   0.42944   0.00000  Uiso   1.00
C235   C     0.47952   0.72721   0.48387   0.00000  Uiso   1.00
C236   C     0.49781   0.73147   0.31748   0.00000  Uiso   1.00
C237   C     0.53533   0.69905   0.29918   0.00000  Uiso   1.00
C238   C     0.55424   0.84576   0.28353   0.00000  Uiso   1.00
C239   C     0.59727   0.03794   0.25349   0.00000  Uiso   1.00
C240   C     0.42505   0.60081   0.32360   0.00000  Uiso   1.00
C241   C     0.40140   0.45854   0.31044   0.00000  Uiso   1.00
C242   C     0.35906   0.49526   0.29994   0.00000  Uiso   1.00
C243   C     0.28912   0.48456   0.27941   0.00000  Uiso   1.00
C244   C     0.43872   0.90896   0.34132   0.00000  Uiso   1.00
C245   C     0.45200   0.83093   0.37445   0.00000  Uiso   1.00
C246   C     0.44748   0.91603   0.40456   0.00000  Uiso   1.00
C247   C     0.46161   0.82207   0.43203   0.00000  Uiso   1.00
C248   C     0.47981   0.90430   0.32006   0.00000  Uiso   1.00
C249   C     0.49867   0.05109   0.30444   0.00000  Uiso   1.00
C250   C     0.53621   0.01891   0.28612   0.00000  Uiso   1.00
C251   C     0.40705   0.77364   0.32618   0.00000  Uiso   1.00
C252   C     0.36474   0.81059   0.31570   0.00000  Uiso   1.00
C253   C     0.34102   0.66840   0.30253   0.00000  Uiso   1.00
H254   H     0.48587   0.45622   0.33455   0.00000  Uiso   1.00
H255   H     0.49807   0.43024   0.39729   0.00000  Uiso   1.00
H256   H     0.54925   0.56528   0.29718   0.00000  Uiso   1.00
H257   H     0.41534   0.32481   0.30844   0.00000  Uiso   1.00
H258   H     0.50368   0.47769   0.46799   0.00000  Uiso   1.00
H259   H     0.61158   0.76242   0.25689   0.00000  Uiso   1.00
H260   H     0.32921   0.25534   0.28064   0.00000  Uiso   1.00
H261   H     0.42470   0.04353   0.34333   0.00000  Uiso   1.00
H262   H     0.43355   0.04978   0.40655   0.00000  Uiso   1.00
H263   H     0.48473   0.18482   0.30644   0.00000  Uiso   1.00
H264   H     0.35082   0.94435   0.31770   0.00000  Uiso   1.00
H265   H     0.45131   0.98054   0.47550   0.00000  Uiso   1.00
H266   H     0.55921   0.26526   0.26440   0.00000  Uiso   1.00
H267   H     0.27684   0.75818   0.28815   0.00000  Uiso   1.00
O268   O     0.48443   0.72266   0.51318   0.00000  Uiso   1.00
O269   O     0.62598   0.09619   0.23622   0.00000  Uiso   1.00
O270   O     0.25552   0.43092   0.26738   0.00000  Uiso   1.00
N271   N     0.49013   0.59517   0.46108   0.00000  Uiso   1.00
N272   N     0.59101   0.86137   0.26372   0.00000  Uiso   1.00
N273   N     0.32703   0.38730   0.28591   0.00000  Uiso   1.00
N274   N     0.46195   0.86574   0.46512   0.00000  Uiso   1.00
N275   N     0.56283   0.13194   0.26776   0.00000  Uiso   1.00
N276   N     0.29885   0.65788   0.28996   0.00000  Uiso   1.00
C277   C     0.97186   0.90923   0.66344   0.00000  Uiso   1.00
C278   C     0.97000   0.84191   0.62813   0.00000  Uiso   1.00
C279   C     0.98414   0.93601   0.60070   0.00000  Uiso   1.00
C280   C     0.97964   0.85107   0.57056   0.00000  Uiso   1.00
C281   C     0.97952   0.77279   0.51613   0.00000  Uiso   1.00
C282   C     0.99781   0.76853   0.68252   0.00000  Uiso   1.00
C283   C     0.03533   0.80095   0.70082   0.00000  Uiso   1.00
C284   C     0.05424   0.65424   0.71647   0.00000  Uiso   1.00
C285   C     0.09727   0.46206   0.74651   0.00000  Uiso   1.00
C286   C     0.92505   0.89919   0.67640   0.00000  Uiso   1.00
C287   C     0.90140   0.04146   0.68956   0.00000  Uiso   1.00
C288   C     0.85906   0.00474   0.70006   0.00000  Uiso   1.00
C289   C     0.78912   0.01544   0.72059   0.00000  Uiso   1.00
C290   C     0.93872   0.59104   0.65868   0.00000  Uiso   1.00
C291   C     0.95200   0.66907   0.62555   0.00000  Uiso   1.00
C292   C     0.94748   0.58397   0.59544   0.00000  Uiso   1.00
C293   C     0.96161   0.67793   0.56797   0.00000  Uiso   1.00
C294   C     0.97981   0.59570   0.67994   0.00000  Uiso   1.00
C295   C     0.99867   0.44891   0.69556   0.00000  Uiso   1.00
C296   C     0.03621   0.48109   0.71388   0.00000  Uiso   1.00
C297   C     0.90705   0.72636   0.67382   0.00000  Uiso   1.00
C298   C     0.86474   0.68941   0.68430   0.00000  Uiso   1.00
C299   C     0.84102   0.83160   0.69747   0.00000  Uiso   1.00
H300   H     0.98587   0.04378   0.66545   0.00000  Uiso   1.00
H301   H     0.99807   0.06976   0.60271   0.00000  Uiso   1.00
H302   H     0.04925   0.93472   0.70282   0.00000  Uiso   1.00
H303   H     0.91534   0.17519   0.69156   0.00000  Uiso   1.00
H304   H     0.00368   0.02231   0.53201   0.00000  Uiso   1.00
H305   H     0.11158   0.73758   0.74311   0.00000  Uiso   1.00
H306   H     0.82921   0.24466   0.71936   0.00000  Uiso   1.00
H307   H     0.92470   0.45647   0.65667   0.00000  Uiso   1.00
H308   H     0.93355   0.45022   0.59345   0.00000  Uiso   1.00
H309   H     0.98473   0.31518   0.69356   0.00000  Uiso   1.00
H310   H     0.85082   0.55565   0.68230   0.00000  Uiso   1.00
H311   H     0.95131   0.51946   0.52450   0.00000  Uiso   1.00
H312   H     0.05921   0.23474   0.73560   0.00000  Uiso   1.00
H313   H     0.77684   0.74182   0.71185   0.00000  Uiso   1.00
O314   O     0.98443   0.77734   0.48682   0.00000  Uiso   1.00
O315   O     0.12598   0.40381   0.76378   0.00000  Uiso   1.00
O316   O     0.75552   0.06908   0.73262   0.00000  Uiso   1.00
N317   N     0.99013   0.90483   0.53892   0.00000  Uiso   1.00
N318   N     0.09101   0.63863   0.73628   0.00000  Uiso   1.00
N319   N     0.82703   0.11270   0.71409   0.00000  Uiso   1.00
N320   N     0.96195   0.63426   0.53488   0.00000  Uiso   1.00
N321   N     0.06283   0.36806   0.73224   0.00000  Uiso   1.00
N322   N     0.79885   0.84212   0.71004   0.00000  Uiso   1.00
C323   C     0.52814   0.59077   0.16344   0.00000  Uiso   1.00
C324   C     0.53000   0.65809   0.12813   0.00000  Uiso   1.00
C325   C     0.51586   0.56399   0.10070   0.00000  Uiso   1.00
C326   C     0.52036   0.64893   0.07056   0.00000  Uiso   1.00
C327   C     0.52048   0.72721   0.01613   0.00000  Uiso   1.00
C328   C     0.50219   0.73147   0.18252   0.00000  Uiso   1.00
C329   C     0.46467   0.69905   0.20082   0.00000  Uiso   1.00
C330   C     0.44576   0.84576   0.21647   0.00000  Uiso   1.00
C331   C     0.40273   0.03794   0.24651   0.00000  Uiso   1.00
C332   C     0.57495   0.60081   0.17640   0.00000  Uiso   1.00
C333   C     0.59860   0.45854   0.18956   0.00000  Uiso   1.00
C334   C     0.64094   0.49526   0.20006   0.00000  Uiso   1.00
C335   C     0.71088   0.48456   0.22059   0.00000  Uiso   1.00
C336   C     0.56128   0.90896   0.15868   0.00000  Uiso   1.00
C337   C     0.54800   0.83093   0.12555   0.00000  Uiso   1.00
C338   C     0.55252   0.91603   0.09544   0.00000  Uiso   1.00
C339   C     0.53839   0.82207   0.06797   0.00000  Uiso   1.00
C340   C     0.52019   0.90430   0.17994   0.00000  Uiso   1.00
C341   C     0.50133   0.05109   0.19556   0.00000  Uiso   1.00
C342   C     0.46379   0.01891   0.21388   0.00000  Uiso   1.00
C343   C     0.59295   0.77364   0.17382   0.00000  Uiso   1.00
C344   C     0.63526   0.81059   0.18430   0.00000  Uiso   1.00
C345   C     0.65898   0.66840   0.19747   0.00000  Uiso   1.00
H346   H     0.51413   0.45622   0.16545   0.00000  Uiso   1.00
H347   H     0.50193   0.43024   0.10271   0.00000  Uiso   1.00
H348   H     0.45075   0.56528   0.20282   0.00000  Uiso   1.00
H349   H     0.58466   0.32481   0.19156   0.00000  Uiso   1.00
H350   H     0.49632   0.47769   0.03201   0.00000  Uiso   1.00
H351   H     0.38842   0.76242   0.24311   0.00000  Uiso   1.00
H352   H     0.67079   0.25534   0.21936   0.00000  Uiso   1.00
H353   H     0.57530   0.04353   0.15667   0.00000  Uiso   1.00
H354   H     0.56645   0.04978   0.09345   0.00000  Uiso   1.00
H355   H     0.51527   0.18482   0.19356   0.00000  Uiso   1.00
H356   H     0.64918   0.94435   0.18230   0.00000  Uiso   1.00
H357   H     0.54869   0.98054   0.02450   0.00000  Uiso   1.00
H358   H     0.44079   0.26526   0.23560   0.00000  Uiso   1.00
H359   H     0.72316   0.75818   0.21185   0.00000  Uiso   1.00
O360   O     0.51557   0.72266   0.98682   0.00000  Uiso   1.00
O361   O     0.37402   0.09619   0.26378   0.00000  Uiso   1.00
O362   O     0.74448   0.43092   0.23262   0.00000  Uiso   1.00
N363   N     0.50987   0.59517   0.03892   0.00000  Uiso   1.00
N364   N     0.40899   0.86137   0.23628   0.00000  Uiso   1.00
N365   N     0.67297   0.38730   0.21409   0.00000  Uiso   1.00
N366   N     0.53805   0.86574   0.03488   0.00000  Uiso   1.00
N367   N     0.43717   0.13194   0.23224   0.00000  Uiso   1.00
N368   N     0.70115   0.65788   0.21004   0.00000  Uiso   1.00
