data_job_05113
_audit_creation_date              2018-12-19
_audit_creation_method            'Materials Studio'
_symmetry_space_group_name_H-M    'P1'
_symmetry_Int_Tables_number       1
_symmetry_cell_setting            triclinic
loop_
_symmetry_equiv_pos_as_xyz
  x,y,z
_cell_length_a                    15.1509
_cell_length_b                    13.2807
_cell_length_c                    12.1461
_cell_angle_alpha                 90.0000
_cell_angle_beta                  99.2711
_cell_angle_gamma                 90.0000
loop_
_atom_site_label
_atom_site_type_symbol
_atom_site_fract_x
_atom_site_fract_y
_atom_site_fract_z
_atom_site_U_iso_or_equiv
_atom_site_adp_type
_atom_site_occupancy
C1     C     0.76274   0.34630   0.98661   0.00000  Uiso   1.00
C2     C     0.72290   0.27551   0.06444   0.00000  Uiso   1.00
C3     C     0.68977   0.30377   0.15994   0.00000  Uiso   1.00
C4     C     0.65618   0.22773   0.21984   0.00000  Uiso   1.00
C5     C     0.59443   0.13312   0.34596   0.00000  Uiso   1.00
C6     C     0.85627   0.30632   0.98107   0.00000  Uiso   1.00
C7     C     0.93527   0.36049   0.00645   0.00000  Uiso   1.00
C8     C     0.01395   0.31038   0.99614   0.00000  Uiso   1.00
C9     C     0.15925   0.26363   0.99274   0.00000  Uiso   1.00
C10    C     0.70855   0.33006   0.87086   0.00000  Uiso   1.00
C11    C     0.66335   0.40420   0.80356   0.00000  Uiso   1.00
C12    C     0.61768   0.37408   0.70046   0.00000  Uiso   1.00
C13    C     0.53362   0.36419   0.52595   0.00000  Uiso   1.00
C14    C     0.76201   0.16099   0.92317   0.00000  Uiso   1.00
C15    C     0.72251   0.17486   0.02998   0.00000  Uiso   1.00
C16    C     0.68896   0.09875   0.08975   0.00000  Uiso   1.00
C17    C     0.65578   0.12689   0.18532   0.00000  Uiso   1.00
C18    C     0.85588   0.20568   0.94661   0.00000  Uiso   1.00
C19    C     0.93446   0.15547   0.93626   0.00000  Uiso   1.00
C20    C     0.01356   0.20955   0.96162   0.00000  Uiso   1.00
C21    C     0.70815   0.22941   0.83640   0.00000  Uiso   1.00
C22    C     0.66255   0.19917   0.73338   0.00000  Uiso   1.00
C23    C     0.61729   0.27325   0.66594   0.00000  Uiso   1.00
H24    H     0.76305   0.42466   0.01344   0.00000  Uiso   1.00
H25    H     0.69009   0.38167   0.18658   0.00000  Uiso   1.00
H26    H     0.93555   0.43838   0.03310   0.00000  Uiso   1.00
H27    H     0.66368   0.48208   0.83025   0.00000  Uiso   1.00
H28    H     0.60906   0.28962   0.36337   0.00000  Uiso   1.00
H29    H     0.12662   0.40921   0.03971   0.00000  Uiso   1.00
H30    H     0.55332   0.50136   0.61196   0.00000  Uiso   1.00
H31    H     0.76171   0.08263   0.89635   0.00000  Uiso   1.00
H32    H     0.68867   0.02087   0.06307   0.00000  Uiso   1.00
H33    H     0.93413   0.07759   0.90959   0.00000  Uiso   1.00
H34    H     0.66226   0.12128   0.70674   0.00000  Uiso   1.00
H35    H     0.60791   0.99678   0.26313   0.00000  Uiso   1.00
H36    H     0.12547   0.11638   0.93946   0.00000  Uiso   1.00
H37    H     0.55217   0.20852   0.51172   0.00000  Uiso   1.00
O38    O     0.56049   0.10874   0.42506   0.00000  Uiso   1.00
O39    O     0.23951   0.26565   0.00040   0.00000  Uiso   1.00
O40    O     0.48735   0.38654   0.43922   0.00000  Uiso   1.00
N41    N     0.61879   0.22918   0.31689   0.00000  Uiso   1.00
N42    N     0.10269   0.34099   0.01430   0.00000  Uiso   1.00
N43    N     0.56672   0.42714   0.61438   0.00000  Uiso   1.00
N44    N     0.61817   0.07161   0.26295   0.00000  Uiso   1.00
N45    N     0.10207   0.18341   0.96036   0.00000  Uiso   1.00
N46    N     0.56610   0.26956   0.56044   0.00000  Uiso   1.00
C47    C     0.23726   0.34630   0.51339   0.00000  Uiso   1.00
C48    C     0.27710   0.27551   0.43556   0.00000  Uiso   1.00
C49    C     0.31023   0.30377   0.34006   0.00000  Uiso   1.00
C50    C     0.34382   0.22773   0.28016   0.00000  Uiso   1.00
C51    C     0.40557   0.13312   0.15404   0.00000  Uiso   1.00
C52    C     0.14373   0.30632   0.51893   0.00000  Uiso   1.00
C53    C     0.06473   0.36049   0.49355   0.00000  Uiso   1.00
C54    C     0.98605   0.31038   0.50386   0.00000  Uiso   1.00
C55    C     0.84075   0.26363   0.50726   0.00000  Uiso   1.00
C56    C     0.29145   0.33006   0.62914   0.00000  Uiso   1.00
C57    C     0.33665   0.40420   0.69644   0.00000  Uiso   1.00
C58    C     0.38232   0.37408   0.79954   0.00000  Uiso   1.00
C59    C     0.46638   0.36419   0.97405   0.00000  Uiso   1.00
C60    C     0.23799   0.16099   0.57683   0.00000  Uiso   1.00
C61    C     0.27749   0.17486   0.47002   0.00000  Uiso   1.00
C62    C     0.31104   0.09875   0.41025   0.00000  Uiso   1.00
C63    C     0.34422   0.12689   0.31468   0.00000  Uiso   1.00
C64    C     0.14412   0.20568   0.55339   0.00000  Uiso   1.00
C65    C     0.06554   0.15547   0.56374   0.00000  Uiso   1.00
C66    C     0.98644   0.20955   0.53838   0.00000  Uiso   1.00
C67    C     0.29185   0.22941   0.66360   0.00000  Uiso   1.00
C68    C     0.33745   0.19917   0.76662   0.00000  Uiso   1.00
C69    C     0.38271   0.27325   0.83406   0.00000  Uiso   1.00
H70    H     0.23695   0.42466   0.48656   0.00000  Uiso   1.00
H71    H     0.30991   0.38167   0.31342   0.00000  Uiso   1.00
H72    H     0.06445   0.43838   0.46690   0.00000  Uiso   1.00
H73    H     0.33632   0.48208   0.66975   0.00000  Uiso   1.00
H74    H     0.39094   0.28962   0.13663   0.00000  Uiso   1.00
H75    H     0.87338   0.40921   0.46029   0.00000  Uiso   1.00
H76    H     0.44668   0.50136   0.88804   0.00000  Uiso   1.00
H77    H     0.23829   0.08263   0.60365   0.00000  Uiso   1.00
H78    H     0.31133   0.02087   0.43693   0.00000  Uiso   1.00
H79    H     0.06587   0.07759   0.59041   0.00000  Uiso   1.00
H80    H     0.33774   0.12128   0.79326   0.00000  Uiso   1.00
H81    H     0.39209   0.99678   0.23687   0.00000  Uiso   1.00
H82    H     0.87453   0.11638   0.56054   0.00000  Uiso   1.00
H83    H     0.44783   0.20852   0.98828   0.00000  Uiso   1.00
O84    O     0.43951   0.10874   0.07494   0.00000  Uiso   1.00
O85    O     0.76049   0.26565   0.49960   0.00000  Uiso   1.00
O86    O     0.51265   0.38654   0.06078   0.00000  Uiso   1.00
N87    N     0.38121   0.22918   0.18311   0.00000  Uiso   1.00
N88    N     0.89731   0.34099   0.48570   0.00000  Uiso   1.00
N89    N     0.43328   0.42714   0.88562   0.00000  Uiso   1.00
N90    N     0.38183   0.07161   0.23705   0.00000  Uiso   1.00
N91    N     0.89793   0.18341   0.53964   0.00000  Uiso   1.00
N92    N     0.43390   0.26956   0.93956   0.00000  Uiso   1.00
C93    C     0.23726   0.65370   0.01339   0.00000  Uiso   1.00
C94    C     0.27710   0.72449   0.93556   0.00000  Uiso   1.00
C95    C     0.31023   0.69623   0.84006   0.00000  Uiso   1.00
C96    C     0.34382   0.77227   0.78016   0.00000  Uiso   1.00
C97    C     0.40557   0.86688   0.65404   0.00000  Uiso   1.00
C98    C     0.14373   0.69368   0.01893   0.00000  Uiso   1.00
C99    C     0.06473   0.63951   0.99355   0.00000  Uiso   1.00
C100   C     0.98605   0.68962   0.00386   0.00000  Uiso   1.00
C101   C     0.84075   0.73637   0.00726   0.00000  Uiso   1.00
C102   C     0.29145   0.66994   0.12914   0.00000  Uiso   1.00
C103   C     0.33665   0.59580   0.19644   0.00000  Uiso   1.00
C104   C     0.38232   0.62592   0.29954   0.00000  Uiso   1.00
C105   C     0.46638   0.63581   0.47405   0.00000  Uiso   1.00
C106   C     0.23799   0.83901   0.07683   0.00000  Uiso   1.00
C107   C     0.27749   0.82514   0.97002   0.00000  Uiso   1.00
C108   C     0.31104   0.90125   0.91025   0.00000  Uiso   1.00
C109   C     0.34422   0.87311   0.81468   0.00000  Uiso   1.00
C110   C     0.14412   0.79432   0.05339   0.00000  Uiso   1.00
C111   C     0.06554   0.84453   0.06374   0.00000  Uiso   1.00
C112   C     0.98644   0.79045   0.03838   0.00000  Uiso   1.00
C113   C     0.29185   0.77059   0.16360   0.00000  Uiso   1.00
C114   C     0.33745   0.80083   0.26662   0.00000  Uiso   1.00
C115   C     0.38271   0.72675   0.33406   0.00000  Uiso   1.00
H116   H     0.23695   0.57534   0.98656   0.00000  Uiso   1.00
H117   H     0.30991   0.61833   0.81342   0.00000  Uiso   1.00
H118   H     0.06445   0.56162   0.96690   0.00000  Uiso   1.00
H119   H     0.33632   0.51792   0.16975   0.00000  Uiso   1.00
H120   H     0.39094   0.71038   0.63663   0.00000  Uiso   1.00
H121   H     0.87338   0.59079   0.96029   0.00000  Uiso   1.00
H122   H     0.44668   0.49864   0.38804   0.00000  Uiso   1.00
H123   H     0.23829   0.91737   0.10365   0.00000  Uiso   1.00
H124   H     0.31133   0.97913   0.93693   0.00000  Uiso   1.00
H125   H     0.06587   0.92241   0.09041   0.00000  Uiso   1.00
H126   H     0.33774   0.87872   0.29326   0.00000  Uiso   1.00
H127   H     0.39209   0.00322   0.73687   0.00000  Uiso   1.00
H128   H     0.87453   0.88362   0.06054   0.00000  Uiso   1.00
H129   H     0.44783   0.79148   0.48828   0.00000  Uiso   1.00
O130   O     0.43951   0.89126   0.57494   0.00000  Uiso   1.00
O131   O     0.76049   0.73435   0.99960   0.00000  Uiso   1.00
O132   O     0.51265   0.61346   0.56078   0.00000  Uiso   1.00
N133   N     0.38121   0.77082   0.68311   0.00000  Uiso   1.00
N134   N     0.89731   0.65901   0.98570   0.00000  Uiso   1.00
N135   N     0.43328   0.57286   0.38562   0.00000  Uiso   1.00
N136   N     0.38183   0.92839   0.73705   0.00000  Uiso   1.00
N137   N     0.89793   0.81659   0.03964   0.00000  Uiso   1.00
N138   N     0.43390   0.73044   0.43956   0.00000  Uiso   1.00
C139   C     0.76274   0.65370   0.48661   0.00000  Uiso   1.00
C140   C     0.72290   0.72449   0.56444   0.00000  Uiso   1.00
C141   C     0.68977   0.69623   0.65994   0.00000  Uiso   1.00
C142   C     0.65618   0.77227   0.71984   0.00000  Uiso   1.00
C143   C     0.59443   0.86688   0.84596   0.00000  Uiso   1.00
C144   C     0.85627   0.69368   0.48107   0.00000  Uiso   1.00
C145   C     0.93527   0.63951   0.50645   0.00000  Uiso   1.00
C146   C     0.01395   0.68962   0.49614   0.00000  Uiso   1.00
C147   C     0.15925   0.73637   0.49274   0.00000  Uiso   1.00
C148   C     0.70855   0.66994   0.37086   0.00000  Uiso   1.00
C149   C     0.66335   0.59580   0.30356   0.00000  Uiso   1.00
C150   C     0.61768   0.62592   0.20046   0.00000  Uiso   1.00
C151   C     0.53362   0.63581   0.02595   0.00000  Uiso   1.00
C152   C     0.76201   0.83901   0.42317   0.00000  Uiso   1.00
C153   C     0.72251   0.82514   0.52998   0.00000  Uiso   1.00
C154   C     0.68896   0.90125   0.58975   0.00000  Uiso   1.00
C155   C     0.65578   0.87311   0.68532   0.00000  Uiso   1.00
C156   C     0.85588   0.79432   0.44661   0.00000  Uiso   1.00
C157   C     0.93446   0.84453   0.43626   0.00000  Uiso   1.00
C158   C     0.01356   0.79045   0.46162   0.00000  Uiso   1.00
C159   C     0.70815   0.77059   0.33640   0.00000  Uiso   1.00
C160   C     0.66255   0.80083   0.23338   0.00000  Uiso   1.00
C161   C     0.61729   0.72675   0.16594   0.00000  Uiso   1.00
H162   H     0.76305   0.57534   0.51344   0.00000  Uiso   1.00
H163   H     0.69009   0.61833   0.68658   0.00000  Uiso   1.00
H164   H     0.93555   0.56162   0.53310   0.00000  Uiso   1.00
H165   H     0.66368   0.51792   0.33025   0.00000  Uiso   1.00
H166   H     0.60906   0.71038   0.86337   0.00000  Uiso   1.00
H167   H     0.12662   0.59079   0.53971   0.00000  Uiso   1.00
H168   H     0.55332   0.49864   0.11196   0.00000  Uiso   1.00
H169   H     0.76171   0.91737   0.39635   0.00000  Uiso   1.00
H170   H     0.68867   0.97913   0.56307   0.00000  Uiso   1.00
H171   H     0.93413   0.92241   0.40959   0.00000  Uiso   1.00
H172   H     0.66226   0.87872   0.20674   0.00000  Uiso   1.00
H173   H     0.60791   0.00322   0.76313   0.00000  Uiso   1.00
H174   H     0.12547   0.88362   0.43946   0.00000  Uiso   1.00
H175   H     0.55217   0.79148   0.01172   0.00000  Uiso   1.00
O176   O     0.56049   0.89126   0.92506   0.00000  Uiso   1.00
O177   O     0.23951   0.73435   0.50040   0.00000  Uiso   1.00
O178   O     0.48735   0.61346   0.93922   0.00000  Uiso   1.00
N179   N     0.61879   0.77082   0.81689   0.00000  Uiso   1.00
N180   N     0.10269   0.65901   0.51430   0.00000  Uiso   1.00
N181   N     0.56672   0.57286   0.11438   0.00000  Uiso   1.00
N182   N     0.61817   0.92839   0.76295   0.00000  Uiso   1.00
N183   N     0.10207   0.81659   0.46036   0.00000  Uiso   1.00
N184   N     0.56610   0.73044   0.06044   0.00000  Uiso   1.00
