data_job_02352
_audit_creation_date              2018-12-19
_audit_creation_method            'Materials Studio'
_symmetry_space_group_name_H-M    'P1'
_symmetry_Int_Tables_number       1
_symmetry_cell_setting            triclinic
loop_
_symmetry_equiv_pos_as_xyz
  x,y,z
_cell_length_a                    13.4633
_cell_length_b                    14.3611
_cell_length_c                    16.1522
_cell_angle_alpha                 90.0000
_cell_angle_beta                  120.0995
_cell_angle_gamma                 90.0000
loop_
_atom_site_label
_atom_site_type_symbol
_atom_site_fract_x
_atom_site_fract_y
_atom_site_fract_z
_atom_site_U_iso_or_equiv
_atom_site_adp_type
_atom_site_occupancy
C1     C     0.86774   0.51838   0.66926   0.00000  Uiso   1.00
C2     C     0.76618   0.56562   0.58456   0.00000  Uiso   1.00
C3     C     0.67811   0.52063   0.50593   0.00000  Uiso   1.00
C4     C     0.59310   0.57628   0.43602   0.00000  Uiso   1.00
C5     C     0.43491   0.63486   0.30322   0.00000  Uiso   1.00
C6     C     0.86570   0.55115   0.75820   0.00000  Uiso   1.00
C7     C     0.86132   0.49398   0.82557   0.00000  Uiso   1.00
C8     C     0.86010   0.53746   0.90184   0.00000  Uiso   1.00
C9     C     0.85649   0.57356   0.03866   0.00000  Uiso   1.00
C10    C     0.97520   0.56092   0.67576   0.00000  Uiso   1.00
C11    C     0.06291   0.51198   0.67385   0.00000  Uiso   1.00
C12    C     0.15390   0.56369   0.68073   0.00000  Uiso   1.00
C13    C     0.32031   0.61497   0.68955   0.00000  Uiso   1.00
C14    C     0.87338   0.69723   0.68491   0.00000  Uiso   1.00
C15    C     0.76925   0.66277   0.59306   0.00000  Uiso   1.00
C16    C     0.68435   0.71850   0.52324   0.00000  Uiso   1.00
C17    C     0.59617   0.67360   0.44453   0.00000  Uiso   1.00
C18    C     0.86876   0.64829   0.76670   0.00000  Uiso   1.00
C19    C     0.86756   0.69186   0.84289   0.00000  Uiso   1.00
C20    C     0.86317   0.63478   0.91036   0.00000  Uiso   1.00
C21    C     0.97826   0.65807   0.68426   0.00000  Uiso   1.00
C22    C     0.06914   0.70986   0.69115   0.00000  Uiso   1.00
C23    C     0.15697   0.66101   0.68924   0.00000  Uiso   1.00
H24    H     0.86536   0.44274   0.66265   0.00000  Uiso   1.00
H25    H     0.67577   0.44544   0.49939   0.00000  Uiso   1.00
H26    H     0.85896   0.41881   0.81898   0.00000  Uiso   1.00
H27    H     0.06051   0.43680   0.66727   0.00000  Uiso   1.00
H28    H     0.46690   0.49127   0.32214   0.00000  Uiso   1.00
H29    H     0.85321   0.43511   0.99604   0.00000  Uiso   1.00
H30    H     0.27822   0.47306   0.67613   0.00000  Uiso   1.00
H31    H     0.87577   0.77286   0.69153   0.00000  Uiso   1.00
H32    H     0.68674   0.79368   0.52984   0.00000  Uiso   1.00
H33    H     0.86993   0.76704   0.84944   0.00000  Uiso   1.00
H34    H     0.07149   0.78504   0.69773   0.00000  Uiso   1.00
H35    H     0.47581   0.77391   0.34686   0.00000  Uiso   1.00
H36    H     0.86212   0.71775   0.02077   0.00000  Uiso   1.00
H37    H     0.28713   0.75570   0.70086   0.00000  Uiso   1.00
O38    O     0.34680   0.64033   0.22763   0.00000  Uiso   1.00
O39    O     0.85365   0.56664   0.11178   0.00000  Uiso   1.00
O40    O     0.41125   0.61643   0.69206   0.00000  Uiso   1.00
N41    N     0.49495   0.55494   0.35014   0.00000  Uiso   1.00
N42    N     0.85610   0.50243   0.98019   0.00000  Uiso   1.00
N43    N     0.25347   0.53790   0.68113   0.00000  Uiso   1.00
N44    N     0.49974   0.70702   0.36344   0.00000  Uiso   1.00
N45    N     0.86090   0.65451   0.99349   0.00000  Uiso   1.00
N46    N     0.25827   0.68999   0.69443   0.00000  Uiso   1.00
C47    C     0.13226   0.01838   0.83074   0.00000  Uiso   1.00
C48    C     0.23382   0.06562   0.91544   0.00000  Uiso   1.00
C49    C     0.32189   0.02063   0.99407   0.00000  Uiso   1.00
C50    C     0.40690   0.07628   0.06398   0.00000  Uiso   1.00
C51    C     0.56509   0.13486   0.19678   0.00000  Uiso   1.00
C52    C     0.13430   0.05115   0.74180   0.00000  Uiso   1.00
C53    C     0.13868   0.99398   0.67443   0.00000  Uiso   1.00
C54    C     0.13990   0.03746   0.59816   0.00000  Uiso   1.00
C55    C     0.14351   0.07356   0.46134   0.00000  Uiso   1.00
C56    C     0.02480   0.06092   0.82424   0.00000  Uiso   1.00
C57    C     0.93709   0.01198   0.82615   0.00000  Uiso   1.00
C58    C     0.84610   0.06369   0.81927   0.00000  Uiso   1.00
C59    C     0.67969   0.11497   0.81045   0.00000  Uiso   1.00
C60    C     0.12662   0.19723   0.81509   0.00000  Uiso   1.00
C61    C     0.23075   0.16277   0.90694   0.00000  Uiso   1.00
C62    C     0.31565   0.21850   0.97676   0.00000  Uiso   1.00
C63    C     0.40383   0.17360   0.05547   0.00000  Uiso   1.00
C64    C     0.13124   0.14829   0.73330   0.00000  Uiso   1.00
C65    C     0.13244   0.19186   0.65711   0.00000  Uiso   1.00
C66    C     0.13683   0.13478   0.58964   0.00000  Uiso   1.00
C67    C     0.02174   0.15807   0.81574   0.00000  Uiso   1.00
C68    C     0.93086   0.20986   0.80885   0.00000  Uiso   1.00
C69    C     0.84303   0.16101   0.81076   0.00000  Uiso   1.00
H70    H     0.13464   0.94274   0.83735   0.00000  Uiso   1.00
H71    H     0.32423   0.94544   0.00061   0.00000  Uiso   1.00
H72    H     0.14104   0.91881   0.68102   0.00000  Uiso   1.00
H73    H     0.93949   0.93680   0.83273   0.00000  Uiso   1.00
H74    H     0.53310   0.99127   0.17786   0.00000  Uiso   1.00
H75    H     0.14679   0.93511   0.50396   0.00000  Uiso   1.00
H76    H     0.72178   0.97306   0.82387   0.00000  Uiso   1.00
H77    H     0.12423   0.27286   0.80847   0.00000  Uiso   1.00
H78    H     0.31326   0.29368   0.97016   0.00000  Uiso   1.00
H79    H     0.13007   0.26704   0.65056   0.00000  Uiso   1.00
H80    H     0.92851   0.28504   0.80227   0.00000  Uiso   1.00
H81    H     0.52419   0.27391   0.15314   0.00000  Uiso   1.00
H82    H     0.13788   0.21775   0.47923   0.00000  Uiso   1.00
H83    H     0.71287   0.25570   0.79914   0.00000  Uiso   1.00
O84    O     0.65320   0.14033   0.27237   0.00000  Uiso   1.00
O85    O     0.14635   0.06664   0.38822   0.00000  Uiso   1.00
O86    O     0.58875   0.11643   0.80794   0.00000  Uiso   1.00
N87    N     0.50505   0.05494   0.14986   0.00000  Uiso   1.00
N88    N     0.14390   0.00243   0.51981   0.00000  Uiso   1.00
N89    N     0.74653   0.03790   0.81887   0.00000  Uiso   1.00
N90    N     0.50026   0.20702   0.13656   0.00000  Uiso   1.00
N91    N     0.13910   0.15451   0.50651   0.00000  Uiso   1.00
N92    N     0.74173   0.18999   0.80557   0.00000  Uiso   1.00
C93    C     0.13226   0.48162   0.33074   0.00000  Uiso   1.00
C94    C     0.23382   0.43438   0.41544   0.00000  Uiso   1.00
C95    C     0.32189   0.47937   0.49407   0.00000  Uiso   1.00
C96    C     0.40690   0.42372   0.56398   0.00000  Uiso   1.00
C97    C     0.56509   0.36514   0.69678   0.00000  Uiso   1.00
C98    C     0.13430   0.44885   0.24180   0.00000  Uiso   1.00
C99    C     0.13868   0.50602   0.17443   0.00000  Uiso   1.00
C100   C     0.13990   0.46254   0.09816   0.00000  Uiso   1.00
C101   C     0.14351   0.42644   0.96134   0.00000  Uiso   1.00
C102   C     0.02480   0.43908   0.32424   0.00000  Uiso   1.00
C103   C     0.93709   0.48802   0.32615   0.00000  Uiso   1.00
C104   C     0.84610   0.43631   0.31927   0.00000  Uiso   1.00
C105   C     0.67969   0.38503   0.31045   0.00000  Uiso   1.00
C106   C     0.12662   0.30277   0.31509   0.00000  Uiso   1.00
C107   C     0.23075   0.33723   0.40694   0.00000  Uiso   1.00
C108   C     0.31565   0.28150   0.47676   0.00000  Uiso   1.00
C109   C     0.40383   0.32640   0.55547   0.00000  Uiso   1.00
C110   C     0.13124   0.35171   0.23330   0.00000  Uiso   1.00
C111   C     0.13244   0.30814   0.15711   0.00000  Uiso   1.00
C112   C     0.13683   0.36522   0.08964   0.00000  Uiso   1.00
C113   C     0.02174   0.34193   0.31574   0.00000  Uiso   1.00
C114   C     0.93086   0.29014   0.30885   0.00000  Uiso   1.00
C115   C     0.84303   0.33899   0.31076   0.00000  Uiso   1.00
H116   H     0.13464   0.55726   0.33735   0.00000  Uiso   1.00
H117   H     0.32423   0.55456   0.50061   0.00000  Uiso   1.00
H118   H     0.14104   0.58119   0.18102   0.00000  Uiso   1.00
H119   H     0.93949   0.56320   0.33273   0.00000  Uiso   1.00
H120   H     0.53310   0.50873   0.67786   0.00000  Uiso   1.00
H121   H     0.14679   0.56489   0.00396   0.00000  Uiso   1.00
H122   H     0.72178   0.52694   0.32387   0.00000  Uiso   1.00
H123   H     0.12423   0.22714   0.30847   0.00000  Uiso   1.00
H124   H     0.31326   0.20632   0.47016   0.00000  Uiso   1.00
H125   H     0.13007   0.23296   0.15056   0.00000  Uiso   1.00
H126   H     0.92851   0.21496   0.30227   0.00000  Uiso   1.00
H127   H     0.52419   0.22609   0.65314   0.00000  Uiso   1.00
H128   H     0.13788   0.28225   0.97923   0.00000  Uiso   1.00
H129   H     0.71287   0.24430   0.29914   0.00000  Uiso   1.00
O130   O     0.65320   0.35967   0.77237   0.00000  Uiso   1.00
O131   O     0.14635   0.43336   0.88822   0.00000  Uiso   1.00
O132   O     0.58875   0.38357   0.30794   0.00000  Uiso   1.00
N133   N     0.50505   0.44506   0.64986   0.00000  Uiso   1.00
N134   N     0.14390   0.49757   0.01981   0.00000  Uiso   1.00
N135   N     0.74653   0.46210   0.31887   0.00000  Uiso   1.00
N136   N     0.50026   0.29298   0.63656   0.00000  Uiso   1.00
N137   N     0.13910   0.34549   0.00651   0.00000  Uiso   1.00
N138   N     0.74173   0.31001   0.30557   0.00000  Uiso   1.00
C139   C     0.86774   0.98162   0.16926   0.00000  Uiso   1.00
C140   C     0.76618   0.93438   0.08456   0.00000  Uiso   1.00
C141   C     0.67811   0.97937   0.00593   0.00000  Uiso   1.00
C142   C     0.59310   0.92372   0.93602   0.00000  Uiso   1.00
C143   C     0.43491   0.86514   0.80322   0.00000  Uiso   1.00
C144   C     0.86570   0.94885   0.25820   0.00000  Uiso   1.00
C145   C     0.86132   0.00602   0.32557   0.00000  Uiso   1.00
C146   C     0.86010   0.96254   0.40184   0.00000  Uiso   1.00
C147   C     0.85649   0.92644   0.53866   0.00000  Uiso   1.00
C148   C     0.97520   0.93908   0.17576   0.00000  Uiso   1.00
C149   C     0.06291   0.98802   0.17385   0.00000  Uiso   1.00
C150   C     0.15390   0.93631   0.18073   0.00000  Uiso   1.00
C151   C     0.32031   0.88503   0.18955   0.00000  Uiso   1.00
C152   C     0.87338   0.80277   0.18491   0.00000  Uiso   1.00
C153   C     0.76925   0.83723   0.09306   0.00000  Uiso   1.00
C154   C     0.68435   0.78150   0.02324   0.00000  Uiso   1.00
C155   C     0.59617   0.82640   0.94453   0.00000  Uiso   1.00
C156   C     0.86876   0.85171   0.26670   0.00000  Uiso   1.00
C157   C     0.86756   0.80814   0.34289   0.00000  Uiso   1.00
C158   C     0.86317   0.86522   0.41036   0.00000  Uiso   1.00
C159   C     0.97826   0.84193   0.18426   0.00000  Uiso   1.00
C160   C     0.06914   0.79014   0.19115   0.00000  Uiso   1.00
C161   C     0.15697   0.83899   0.18924   0.00000  Uiso   1.00
H162   H     0.86536   0.05726   0.16265   0.00000  Uiso   1.00
H163   H     0.67577   0.05456   0.99939   0.00000  Uiso   1.00
H164   H     0.85896   0.08119   0.31898   0.00000  Uiso   1.00
H165   H     0.06051   0.06320   0.16727   0.00000  Uiso   1.00
H166   H     0.46690   0.00873   0.82214   0.00000  Uiso   1.00
H167   H     0.85321   0.06489   0.49604   0.00000  Uiso   1.00
H168   H     0.27822   0.02694   0.17613   0.00000  Uiso   1.00
H169   H     0.87577   0.72714   0.19153   0.00000  Uiso   1.00
H170   H     0.68674   0.70632   0.02984   0.00000  Uiso   1.00
H171   H     0.86993   0.73296   0.34944   0.00000  Uiso   1.00
H172   H     0.07149   0.71496   0.19773   0.00000  Uiso   1.00
H173   H     0.47581   0.72609   0.84686   0.00000  Uiso   1.00
H174   H     0.86212   0.78225   0.52077   0.00000  Uiso   1.00
H175   H     0.28713   0.74430   0.20086   0.00000  Uiso   1.00
O176   O     0.34680   0.85967   0.72763   0.00000  Uiso   1.00
O177   O     0.85365   0.93336   0.61178   0.00000  Uiso   1.00
O178   O     0.41125   0.88357   0.19206   0.00000  Uiso   1.00
N179   N     0.49495   0.94506   0.85014   0.00000  Uiso   1.00
N180   N     0.85610   0.99757   0.48019   0.00000  Uiso   1.00
N181   N     0.25347   0.96210   0.18113   0.00000  Uiso   1.00
N182   N     0.49974   0.79298   0.86344   0.00000  Uiso   1.00
N183   N     0.86090   0.84549   0.49349   0.00000  Uiso   1.00
N184   N     0.25827   0.81001   0.19443   0.00000  Uiso   1.00
