data_job_03759
_audit_creation_date              2018-12-19
_audit_creation_method            'Materials Studio'
_symmetry_space_group_name_H-M    'P1'
_symmetry_Int_Tables_number       1
_symmetry_cell_setting            triclinic
loop_
_symmetry_equiv_pos_as_xyz
  x,y,z
_cell_length_a                    12.2924
_cell_length_b                    26.5443
_cell_length_c                    23.3933
_cell_angle_alpha                 90.0000
_cell_angle_beta                  90.0000
_cell_angle_gamma                 90.0000
loop_
_atom_site_label
_atom_site_type_symbol
_atom_site_fract_x
_atom_site_fract_y
_atom_site_fract_z
_atom_site_U_iso_or_equiv
_atom_site_adp_type
_atom_site_occupancy
C1     C     0.02587   0.89080   0.59473   0.00000  Uiso   1.00
C2     C     0.91840   0.91461   0.57656   0.00000  Uiso   1.00
C3     C     0.88871   0.96451   0.58492   0.00000  Uiso   1.00
C4     C     0.78685   0.97895   0.56519   0.00000  Uiso   1.00
C5     C     0.63054   0.02112   0.54112   0.00000  Uiso   1.00
C6     C     0.99609   0.84624   0.63278   0.00000  Uiso   1.00
C7     C     0.03173   0.83865   0.68841   0.00000  Uiso   1.00
C8     C     0.99528   0.79553   0.71600   0.00000  Uiso   1.00
C9     C     0.95964   0.73154   0.77920   0.00000  Uiso   1.00
C10    C     0.07534   0.86832   0.54067   0.00000  Uiso   1.00
C11    C     0.17763   0.87929   0.51887   0.00000  Uiso   1.00
C12    C     0.20791   0.85475   0.46892   0.00000  Uiso   1.00
C13    C     0.29532   0.82505   0.38911   0.00000  Uiso   1.00
C14    C     0.89777   0.82771   0.54482   0.00000  Uiso   1.00
C15    C     0.84882   0.88034   0.54945   0.00000  Uiso   1.00
C16    C     0.74698   0.89471   0.52970   0.00000  Uiso   1.00
C17    C     0.71715   0.94462   0.53803   0.00000  Uiso   1.00
C18    C     0.92651   0.81197   0.60567   0.00000  Uiso   1.00
C19    C     0.89000   0.76885   0.63319   0.00000  Uiso   1.00
C20    C     0.92557   0.76120   0.68885   0.00000  Uiso   1.00
C21    C     0.00576   0.83405   0.51356   0.00000  Uiso   1.00
C22    C     0.03589   0.80949   0.46365   0.00000  Uiso   1.00
C23    C     0.13820   0.82042   0.44177   0.00000  Uiso   1.00
H24    H     0.08004   0.91748   0.61584   0.00000  Uiso   1.00
H25    H     0.94258   0.99102   0.60591   0.00000  Uiso   1.00
H26    H     0.08558   0.86518   0.70937   0.00000  Uiso   1.00
H27    H     0.23145   0.90581   0.53986   0.00000  Uiso   1.00
H28    H     0.75948   0.05743   0.58295   0.00000  Uiso   1.00
H29    H     0.06103   0.79208   0.80111   0.00000  Uiso   1.00
H30    H     0.36863   0.87777   0.44365   0.00000  Uiso   1.00
H31    H     0.84360   0.80103   0.52372   0.00000  Uiso   1.00
H32    H     0.69316   0.86818   0.50872   0.00000  Uiso   1.00
H33    H     0.83616   0.74233   0.61219   0.00000  Uiso   1.00
H34    H     0.98203   0.78297   0.44268   0.00000  Uiso   1.00
H35    H     0.55703   0.95773   0.50408   0.00000  Uiso   1.00
H36    H     0.85860   0.69237   0.72224   0.00000  Uiso   1.00
H37    H     0.16619   0.77806   0.36478   0.00000  Uiso   1.00
O38    O     0.56354   0.05385   0.53533   0.00000  Uiso   1.00
O39    O     0.95919   0.70571   0.82155   0.00000  Uiso   1.00
O40    O     0.36274   0.81814   0.35257   0.00000  Uiso   1.00
N41    N     0.73248   0.02475   0.56644   0.00000  Uiso   1.00
N42    N     0.01441   0.77667   0.77041   0.00000  Uiso   1.00
N43    N     0.30200   0.85677   0.43622   0.00000  Uiso   1.00
N44    N     0.62355   0.97110   0.52400   0.00000  Uiso   1.00
N45    N     0.90548   0.72302   0.72797   0.00000  Uiso   1.00
N46    N     0.19307   0.80312   0.39378   0.00000  Uiso   1.00
C47    C     0.47413   0.60920   0.59473   0.00000  Uiso   1.00
C48    C     0.58160   0.58539   0.57656   0.00000  Uiso   1.00
C49    C     0.61129   0.53549   0.58492   0.00000  Uiso   1.00
C50    C     0.71315   0.52105   0.56519   0.00000  Uiso   1.00
C51    C     0.86946   0.47888   0.54112   0.00000  Uiso   1.00
C52    C     0.50391   0.65376   0.63278   0.00000  Uiso   1.00
C53    C     0.46827   0.66135   0.68841   0.00000  Uiso   1.00
C54    C     0.50472   0.70447   0.71600   0.00000  Uiso   1.00
C55    C     0.54036   0.76846   0.77920   0.00000  Uiso   1.00
C56    C     0.42466   0.63168   0.54067   0.00000  Uiso   1.00
C57    C     0.32237   0.62071   0.51887   0.00000  Uiso   1.00
C58    C     0.29209   0.64525   0.46892   0.00000  Uiso   1.00
C59    C     0.20468   0.67495   0.38911   0.00000  Uiso   1.00
C60    C     0.60223   0.67229   0.54482   0.00000  Uiso   1.00
C61    C     0.65118   0.61966   0.54945   0.00000  Uiso   1.00
C62    C     0.75302   0.60529   0.52970   0.00000  Uiso   1.00
C63    C     0.78285   0.55538   0.53803   0.00000  Uiso   1.00
C64    C     0.57349   0.68803   0.60567   0.00000  Uiso   1.00
C65    C     0.61000   0.73115   0.63319   0.00000  Uiso   1.00
C66    C     0.57443   0.73880   0.68885   0.00000  Uiso   1.00
C67    C     0.49424   0.66595   0.51356   0.00000  Uiso   1.00
C68    C     0.46411   0.69051   0.46365   0.00000  Uiso   1.00
C69    C     0.36180   0.67958   0.44177   0.00000  Uiso   1.00
H70    H     0.41996   0.58252   0.61584   0.00000  Uiso   1.00
H71    H     0.55742   0.50898   0.60591   0.00000  Uiso   1.00
H72    H     0.41442   0.63482   0.70937   0.00000  Uiso   1.00
H73    H     0.26855   0.59419   0.53986   0.00000  Uiso   1.00
H74    H     0.74052   0.44257   0.58295   0.00000  Uiso   1.00
H75    H     0.43897   0.70792   0.80111   0.00000  Uiso   1.00
H76    H     0.13137   0.62223   0.44365   0.00000  Uiso   1.00
H77    H     0.65640   0.69897   0.52372   0.00000  Uiso   1.00
H78    H     0.80684   0.63182   0.50872   0.00000  Uiso   1.00
H79    H     0.66384   0.75767   0.61219   0.00000  Uiso   1.00
H80    H     0.51797   0.71703   0.44268   0.00000  Uiso   1.00
H81    H     0.94297   0.54227   0.50408   0.00000  Uiso   1.00
H82    H     0.64140   0.80763   0.72224   0.00000  Uiso   1.00
H83    H     0.33381   0.72194   0.36478   0.00000  Uiso   1.00
O84    O     0.93646   0.44615   0.53533   0.00000  Uiso   1.00
O85    O     0.54081   0.79429   0.82155   0.00000  Uiso   1.00
O86    O     0.13726   0.68186   0.35257   0.00000  Uiso   1.00
N87    N     0.76752   0.47525   0.56644   0.00000  Uiso   1.00
N88    N     0.48559   0.72333   0.77041   0.00000  Uiso   1.00
N89    N     0.19800   0.64323   0.43622   0.00000  Uiso   1.00
N90    N     0.87645   0.52890   0.52400   0.00000  Uiso   1.00
N91    N     0.59452   0.77698   0.72797   0.00000  Uiso   1.00
N92    N     0.30693   0.69688   0.39378   0.00000  Uiso   1.00
C93    C     0.97413   0.39080   0.90527   0.00000  Uiso   1.00
C94    C     0.08160   0.41461   0.92344   0.00000  Uiso   1.00
C95    C     0.11129   0.46451   0.91508   0.00000  Uiso   1.00
C96    C     0.21315   0.47895   0.93481   0.00000  Uiso   1.00
C97    C     0.36946   0.52112   0.95888   0.00000  Uiso   1.00
C98    C     0.00391   0.34624   0.86722   0.00000  Uiso   1.00
C99    C     0.96827   0.33865   0.81159   0.00000  Uiso   1.00
C100   C     0.00472   0.29553   0.78400   0.00000  Uiso   1.00
C101   C     0.04036   0.23154   0.72080   0.00000  Uiso   1.00
C102   C     0.92466   0.36832   0.95933   0.00000  Uiso   1.00
C103   C     0.82237   0.37929   0.98113   0.00000  Uiso   1.00
C104   C     0.79209   0.35475   0.03108   0.00000  Uiso   1.00
C105   C     0.70468   0.32505   0.11089   0.00000  Uiso   1.00
C106   C     0.10223   0.32771   0.95518   0.00000  Uiso   1.00
C107   C     0.15118   0.38034   0.95055   0.00000  Uiso   1.00
C108   C     0.25302   0.39471   0.97030   0.00000  Uiso   1.00
C109   C     0.28285   0.44462   0.96197   0.00000  Uiso   1.00
C110   C     0.07349   0.31197   0.89433   0.00000  Uiso   1.00
C111   C     0.11000   0.26885   0.86681   0.00000  Uiso   1.00
C112   C     0.07443   0.26120   0.81115   0.00000  Uiso   1.00
C113   C     0.99424   0.33405   0.98644   0.00000  Uiso   1.00
C114   C     0.96411   0.30949   0.03635   0.00000  Uiso   1.00
C115   C     0.86180   0.32042   0.05823   0.00000  Uiso   1.00
H116   H     0.91996   0.41748   0.88416   0.00000  Uiso   1.00
H117   H     0.05742   0.49102   0.89409   0.00000  Uiso   1.00
H118   H     0.91442   0.36518   0.79063   0.00000  Uiso   1.00
H119   H     0.76855   0.40581   0.96014   0.00000  Uiso   1.00
H120   H     0.24052   0.55743   0.91705   0.00000  Uiso   1.00
H121   H     0.93897   0.29208   0.69889   0.00000  Uiso   1.00
H122   H     0.63137   0.37777   0.05635   0.00000  Uiso   1.00
H123   H     0.15640   0.30103   0.97628   0.00000  Uiso   1.00
H124   H     0.30684   0.36818   0.99128   0.00000  Uiso   1.00
H125   H     0.16384   0.24233   0.88781   0.00000  Uiso   1.00
H126   H     0.01797   0.28297   0.05732   0.00000  Uiso   1.00
H127   H     0.44297   0.45773   0.99592   0.00000  Uiso   1.00
H128   H     0.14140   0.19237   0.77776   0.00000  Uiso   1.00
H129   H     0.83381   0.27806   0.13522   0.00000  Uiso   1.00
O130   O     0.43646   0.55385   0.96467   0.00000  Uiso   1.00
O131   O     0.04081   0.20571   0.67845   0.00000  Uiso   1.00
O132   O     0.63726   0.31814   0.14743   0.00000  Uiso   1.00
N133   N     0.26752   0.52475   0.93356   0.00000  Uiso   1.00
N134   N     0.98559   0.27667   0.72959   0.00000  Uiso   1.00
N135   N     0.69800   0.35677   0.06378   0.00000  Uiso   1.00
N136   N     0.37645   0.47110   0.97600   0.00000  Uiso   1.00
N137   N     0.09452   0.22302   0.77203   0.00000  Uiso   1.00
N138   N     0.80693   0.30312   0.10622   0.00000  Uiso   1.00
C139   C     0.52587   0.10920   0.90527   0.00000  Uiso   1.00
C140   C     0.41840   0.08539   0.92344   0.00000  Uiso   1.00
C141   C     0.38871   0.03549   0.91508   0.00000  Uiso   1.00
C142   C     0.28685   0.02105   0.93481   0.00000  Uiso   1.00
C143   C     0.13054   0.97888   0.95888   0.00000  Uiso   1.00
C144   C     0.49609   0.15376   0.86722   0.00000  Uiso   1.00
C145   C     0.53173   0.16135   0.81159   0.00000  Uiso   1.00
C146   C     0.49528   0.20447   0.78400   0.00000  Uiso   1.00
C147   C     0.45964   0.26846   0.72080   0.00000  Uiso   1.00
C148   C     0.57534   0.13168   0.95933   0.00000  Uiso   1.00
C149   C     0.67763   0.12071   0.98113   0.00000  Uiso   1.00
C150   C     0.70791   0.14525   0.03108   0.00000  Uiso   1.00
C151   C     0.79532   0.17495   0.11089   0.00000  Uiso   1.00
C152   C     0.39777   0.17229   0.95518   0.00000  Uiso   1.00
C153   C     0.34882   0.11966   0.95055   0.00000  Uiso   1.00
C154   C     0.24698   0.10529   0.97030   0.00000  Uiso   1.00
C155   C     0.21715   0.05538   0.96197   0.00000  Uiso   1.00
C156   C     0.42651   0.18803   0.89433   0.00000  Uiso   1.00
C157   C     0.39000   0.23115   0.86681   0.00000  Uiso   1.00
C158   C     0.42557   0.23880   0.81115   0.00000  Uiso   1.00
C159   C     0.50576   0.16595   0.98644   0.00000  Uiso   1.00
C160   C     0.53589   0.19051   0.03635   0.00000  Uiso   1.00
C161   C     0.63820   0.17958   0.05823   0.00000  Uiso   1.00
H162   H     0.58004   0.08252   0.88416   0.00000  Uiso   1.00
H163   H     0.44258   0.00898   0.89409   0.00000  Uiso   1.00
H164   H     0.58558   0.13482   0.79063   0.00000  Uiso   1.00
H165   H     0.73145   0.09419   0.96014   0.00000  Uiso   1.00
H166   H     0.25948   0.94257   0.91705   0.00000  Uiso   1.00
H167   H     0.56103   0.20792   0.69889   0.00000  Uiso   1.00
H168   H     0.86863   0.12223   0.05635   0.00000  Uiso   1.00
H169   H     0.34360   0.19897   0.97628   0.00000  Uiso   1.00
H170   H     0.19316   0.13182   0.99128   0.00000  Uiso   1.00
H171   H     0.33616   0.25767   0.88781   0.00000  Uiso   1.00
H172   H     0.48203   0.21703   0.05732   0.00000  Uiso   1.00
H173   H     0.05703   0.04227   0.99592   0.00000  Uiso   1.00
H174   H     0.35860   0.30763   0.77776   0.00000  Uiso   1.00
H175   H     0.66619   0.22194   0.13522   0.00000  Uiso   1.00
O176   O     0.06354   0.94615   0.96467   0.00000  Uiso   1.00
O177   O     0.45919   0.29429   0.67845   0.00000  Uiso   1.00
O178   O     0.86274   0.18186   0.14743   0.00000  Uiso   1.00
N179   N     0.23248   0.97525   0.93356   0.00000  Uiso   1.00
N180   N     0.51441   0.22333   0.72959   0.00000  Uiso   1.00
N181   N     0.80200   0.14323   0.06378   0.00000  Uiso   1.00
N182   N     0.12355   0.02890   0.97600   0.00000  Uiso   1.00
N183   N     0.40548   0.27698   0.77203   0.00000  Uiso   1.00
N184   N     0.69307   0.19688   0.10622   0.00000  Uiso   1.00
C185   C     0.97413   0.10920   0.40527   0.00000  Uiso   1.00
C186   C     0.08160   0.08539   0.42344   0.00000  Uiso   1.00
C187   C     0.11129   0.03549   0.41508   0.00000  Uiso   1.00
C188   C     0.21315   0.02105   0.43481   0.00000  Uiso   1.00
C189   C     0.36946   0.97888   0.45888   0.00000  Uiso   1.00
C190   C     0.00391   0.15376   0.36722   0.00000  Uiso   1.00
C191   C     0.96827   0.16135   0.31159   0.00000  Uiso   1.00
C192   C     0.00472   0.20447   0.28400   0.00000  Uiso   1.00
C193   C     0.04036   0.26846   0.22080   0.00000  Uiso   1.00
C194   C     0.92466   0.13168   0.45933   0.00000  Uiso   1.00
C195   C     0.82237   0.12071   0.48113   0.00000  Uiso   1.00
C196   C     0.79209   0.14525   0.53108   0.00000  Uiso   1.00
C197   C     0.70468   0.17495   0.61089   0.00000  Uiso   1.00
C198   C     0.10223   0.17229   0.45518   0.00000  Uiso   1.00
C199   C     0.15118   0.11966   0.45055   0.00000  Uiso   1.00
C200   C     0.25302   0.10529   0.47030   0.00000  Uiso   1.00
C201   C     0.28285   0.05538   0.46197   0.00000  Uiso   1.00
C202   C     0.07349   0.18803   0.39433   0.00000  Uiso   1.00
C203   C     0.11000   0.23115   0.36681   0.00000  Uiso   1.00
C204   C     0.07443   0.23880   0.31115   0.00000  Uiso   1.00
C205   C     0.99424   0.16595   0.48644   0.00000  Uiso   1.00
C206   C     0.96411   0.19051   0.53635   0.00000  Uiso   1.00
C207   C     0.86180   0.17958   0.55823   0.00000  Uiso   1.00
H208   H     0.91996   0.08252   0.38416   0.00000  Uiso   1.00
H209   H     0.05742   0.00898   0.39409   0.00000  Uiso   1.00
H210   H     0.91442   0.13482   0.29063   0.00000  Uiso   1.00
H211   H     0.76855   0.09419   0.46014   0.00000  Uiso   1.00
H212   H     0.24052   0.94257   0.41705   0.00000  Uiso   1.00
H213   H     0.93897   0.20792   0.19889   0.00000  Uiso   1.00
H214   H     0.63137   0.12223   0.55635   0.00000  Uiso   1.00
H215   H     0.15640   0.19897   0.47628   0.00000  Uiso   1.00
H216   H     0.30684   0.13182   0.49128   0.00000  Uiso   1.00
H217   H     0.16384   0.25767   0.38781   0.00000  Uiso   1.00
H218   H     0.01797   0.21703   0.55732   0.00000  Uiso   1.00
H219   H     0.44297   0.04227   0.49592   0.00000  Uiso   1.00
H220   H     0.14140   0.30763   0.27776   0.00000  Uiso   1.00
H221   H     0.83381   0.22194   0.63522   0.00000  Uiso   1.00
O222   O     0.43646   0.94615   0.46467   0.00000  Uiso   1.00
O223   O     0.04081   0.29429   0.17845   0.00000  Uiso   1.00
O224   O     0.63726   0.18186   0.64743   0.00000  Uiso   1.00
N225   N     0.26752   0.97525   0.43356   0.00000  Uiso   1.00
N226   N     0.98559   0.22333   0.22959   0.00000  Uiso   1.00
N227   N     0.69800   0.14323   0.56378   0.00000  Uiso   1.00
N228   N     0.37645   0.02890   0.47600   0.00000  Uiso   1.00
N229   N     0.09452   0.27698   0.27203   0.00000  Uiso   1.00
N230   N     0.80693   0.19688   0.60622   0.00000  Uiso   1.00
C231   C     0.52587   0.39080   0.40527   0.00000  Uiso   1.00
C232   C     0.41840   0.41461   0.42344   0.00000  Uiso   1.00
C233   C     0.38871   0.46451   0.41508   0.00000  Uiso   1.00
C234   C     0.28685   0.47895   0.43481   0.00000  Uiso   1.00
C235   C     0.13054   0.52112   0.45888   0.00000  Uiso   1.00
C236   C     0.49609   0.34624   0.36722   0.00000  Uiso   1.00
C237   C     0.53173   0.33865   0.31159   0.00000  Uiso   1.00
C238   C     0.49528   0.29553   0.28400   0.00000  Uiso   1.00
C239   C     0.45964   0.23154   0.22080   0.00000  Uiso   1.00
C240   C     0.57534   0.36832   0.45933   0.00000  Uiso   1.00
C241   C     0.67763   0.37929   0.48113   0.00000  Uiso   1.00
C242   C     0.70791   0.35475   0.53108   0.00000  Uiso   1.00
C243   C     0.79532   0.32505   0.61089   0.00000  Uiso   1.00
C244   C     0.39777   0.32771   0.45518   0.00000  Uiso   1.00
C245   C     0.34882   0.38034   0.45055   0.00000  Uiso   1.00
C246   C     0.24698   0.39471   0.47030   0.00000  Uiso   1.00
C247   C     0.21715   0.44462   0.46197   0.00000  Uiso   1.00
C248   C     0.42651   0.31197   0.39433   0.00000  Uiso   1.00
C249   C     0.39000   0.26885   0.36681   0.00000  Uiso   1.00
C250   C     0.42557   0.26120   0.31115   0.00000  Uiso   1.00
C251   C     0.50576   0.33405   0.48644   0.00000  Uiso   1.00
C252   C     0.53589   0.30949   0.53635   0.00000  Uiso   1.00
C253   C     0.63820   0.32042   0.55823   0.00000  Uiso   1.00
H254   H     0.58004   0.41748   0.38416   0.00000  Uiso   1.00
H255   H     0.44258   0.49102   0.39409   0.00000  Uiso   1.00
H256   H     0.58558   0.36518   0.29063   0.00000  Uiso   1.00
H257   H     0.73145   0.40581   0.46014   0.00000  Uiso   1.00
H258   H     0.25948   0.55743   0.41705   0.00000  Uiso   1.00
H259   H     0.56103   0.29208   0.19889   0.00000  Uiso   1.00
H260   H     0.86863   0.37777   0.55635   0.00000  Uiso   1.00
H261   H     0.34360   0.30103   0.47628   0.00000  Uiso   1.00
H262   H     0.19316   0.36818   0.49128   0.00000  Uiso   1.00
H263   H     0.33616   0.24233   0.38781   0.00000  Uiso   1.00
H264   H     0.48203   0.28297   0.55732   0.00000  Uiso   1.00
H265   H     0.05703   0.45773   0.49592   0.00000  Uiso   1.00
H266   H     0.35860   0.19237   0.27776   0.00000  Uiso   1.00
H267   H     0.66619   0.27806   0.63522   0.00000  Uiso   1.00
O268   O     0.06354   0.55385   0.46467   0.00000  Uiso   1.00
O269   O     0.45919   0.20571   0.17845   0.00000  Uiso   1.00
O270   O     0.86274   0.31814   0.64743   0.00000  Uiso   1.00
N271   N     0.23248   0.52475   0.43356   0.00000  Uiso   1.00
N272   N     0.51441   0.27667   0.22959   0.00000  Uiso   1.00
N273   N     0.80200   0.35677   0.56378   0.00000  Uiso   1.00
N274   N     0.12355   0.47110   0.47600   0.00000  Uiso   1.00
N275   N     0.40548   0.22302   0.27203   0.00000  Uiso   1.00
N276   N     0.69307   0.30312   0.60622   0.00000  Uiso   1.00
C277   C     0.02587   0.60920   0.09473   0.00000  Uiso   1.00
C278   C     0.91840   0.58539   0.07656   0.00000  Uiso   1.00
C279   C     0.88871   0.53549   0.08492   0.00000  Uiso   1.00
C280   C     0.78685   0.52105   0.06519   0.00000  Uiso   1.00
C281   C     0.63054   0.47888   0.04112   0.00000  Uiso   1.00
C282   C     0.99609   0.65376   0.13278   0.00000  Uiso   1.00
C283   C     0.03173   0.66135   0.18841   0.00000  Uiso   1.00
C284   C     0.99528   0.70447   0.21600   0.00000  Uiso   1.00
C285   C     0.95964   0.76846   0.27920   0.00000  Uiso   1.00
C286   C     0.07534   0.63168   0.04067   0.00000  Uiso   1.00
C287   C     0.17763   0.62071   0.01887   0.00000  Uiso   1.00
C288   C     0.20791   0.64525   0.96892   0.00000  Uiso   1.00
C289   C     0.29532   0.67495   0.88911   0.00000  Uiso   1.00
C290   C     0.89777   0.67229   0.04482   0.00000  Uiso   1.00
C291   C     0.84882   0.61966   0.04945   0.00000  Uiso   1.00
C292   C     0.74698   0.60529   0.02970   0.00000  Uiso   1.00
C293   C     0.71715   0.55538   0.03803   0.00000  Uiso   1.00
C294   C     0.92651   0.68803   0.10567   0.00000  Uiso   1.00
C295   C     0.89000   0.73115   0.13319   0.00000  Uiso   1.00
C296   C     0.92557   0.73880   0.18885   0.00000  Uiso   1.00
C297   C     0.00576   0.66595   0.01356   0.00000  Uiso   1.00
C298   C     0.03589   0.69051   0.96365   0.00000  Uiso   1.00
C299   C     0.13820   0.67958   0.94177   0.00000  Uiso   1.00
H300   H     0.08004   0.58252   0.11584   0.00000  Uiso   1.00
H301   H     0.94258   0.50898   0.10591   0.00000  Uiso   1.00
H302   H     0.08558   0.63482   0.20937   0.00000  Uiso   1.00
H303   H     0.23145   0.59419   0.03986   0.00000  Uiso   1.00
H304   H     0.75948   0.44257   0.08295   0.00000  Uiso   1.00
H305   H     0.06103   0.70792   0.30111   0.00000  Uiso   1.00
H306   H     0.36863   0.62223   0.94365   0.00000  Uiso   1.00
H307   H     0.84360   0.69897   0.02372   0.00000  Uiso   1.00
H308   H     0.69316   0.63182   0.00872   0.00000  Uiso   1.00
H309   H     0.83616   0.75767   0.11219   0.00000  Uiso   1.00
H310   H     0.98203   0.71703   0.94268   0.00000  Uiso   1.00
H311   H     0.55703   0.54227   0.00408   0.00000  Uiso   1.00
H312   H     0.85860   0.80763   0.22224   0.00000  Uiso   1.00
H313   H     0.16619   0.72194   0.86478   0.00000  Uiso   1.00
O314   O     0.56354   0.44615   0.03533   0.00000  Uiso   1.00
O315   O     0.95919   0.79429   0.32155   0.00000  Uiso   1.00
O316   O     0.36274   0.68186   0.85257   0.00000  Uiso   1.00
N317   N     0.73248   0.47525   0.06644   0.00000  Uiso   1.00
N318   N     0.01441   0.72333   0.27041   0.00000  Uiso   1.00
N319   N     0.30200   0.64323   0.93622   0.00000  Uiso   1.00
N320   N     0.62355   0.52890   0.02400   0.00000  Uiso   1.00
N321   N     0.90548   0.77698   0.22797   0.00000  Uiso   1.00
N322   N     0.19307   0.69688   0.89378   0.00000  Uiso   1.00
C323   C     0.47413   0.89080   0.09473   0.00000  Uiso   1.00
C324   C     0.58160   0.91461   0.07656   0.00000  Uiso   1.00
C325   C     0.61129   0.96451   0.08492   0.00000  Uiso   1.00
C326   C     0.71315   0.97895   0.06519   0.00000  Uiso   1.00
C327   C     0.86946   0.02112   0.04112   0.00000  Uiso   1.00
C328   C     0.50391   0.84624   0.13278   0.00000  Uiso   1.00
C329   C     0.46827   0.83865   0.18841   0.00000  Uiso   1.00
C330   C     0.50472   0.79553   0.21600   0.00000  Uiso   1.00
C331   C     0.54036   0.73154   0.27920   0.00000  Uiso   1.00
C332   C     0.42466   0.86832   0.04067   0.00000  Uiso   1.00
C333   C     0.32237   0.87929   0.01887   0.00000  Uiso   1.00
C334   C     0.29209   0.85475   0.96892   0.00000  Uiso   1.00
C335   C     0.20468   0.82505   0.88911   0.00000  Uiso   1.00
C336   C     0.60223   0.82771   0.04482   0.00000  Uiso   1.00
C337   C     0.65118   0.88034   0.04945   0.00000  Uiso   1.00
C338   C     0.75302   0.89471   0.02970   0.00000  Uiso   1.00
C339   C     0.78285   0.94462   0.03803   0.00000  Uiso   1.00
C340   C     0.57349   0.81197   0.10567   0.00000  Uiso   1.00
C341   C     0.61000   0.76885   0.13319   0.00000  Uiso   1.00
C342   C     0.57443   0.76120   0.18885   0.00000  Uiso   1.00
C343   C     0.49424   0.83405   0.01356   0.00000  Uiso   1.00
C344   C     0.46411   0.80949   0.96365   0.00000  Uiso   1.00
C345   C     0.36180   0.82042   0.94177   0.00000  Uiso   1.00
H346   H     0.41996   0.91748   0.11584   0.00000  Uiso   1.00
H347   H     0.55742   0.99102   0.10591   0.00000  Uiso   1.00
H348   H     0.41442   0.86518   0.20937   0.00000  Uiso   1.00
H349   H     0.26855   0.90581   0.03986   0.00000  Uiso   1.00
H350   H     0.74052   0.05743   0.08295   0.00000  Uiso   1.00
H351   H     0.43897   0.79208   0.30111   0.00000  Uiso   1.00
H352   H     0.13137   0.87777   0.94365   0.00000  Uiso   1.00
H353   H     0.65640   0.80103   0.02372   0.00000  Uiso   1.00
H354   H     0.80684   0.86818   0.00872   0.00000  Uiso   1.00
H355   H     0.66384   0.74233   0.11219   0.00000  Uiso   1.00
H356   H     0.51797   0.78297   0.94268   0.00000  Uiso   1.00
H357   H     0.94297   0.95773   0.00408   0.00000  Uiso   1.00
H358   H     0.64140   0.69237   0.22224   0.00000  Uiso   1.00
H359   H     0.33381   0.77806   0.86478   0.00000  Uiso   1.00
O360   O     0.93646   0.05385   0.03533   0.00000  Uiso   1.00
O361   O     0.54081   0.70571   0.32155   0.00000  Uiso   1.00
O362   O     0.13726   0.81814   0.85257   0.00000  Uiso   1.00
N363   N     0.76752   0.02475   0.06644   0.00000  Uiso   1.00
N364   N     0.48559   0.77667   0.27041   0.00000  Uiso   1.00
N365   N     0.19800   0.85677   0.93622   0.00000  Uiso   1.00
N366   N     0.87645   0.97110   0.02400   0.00000  Uiso   1.00
N367   N     0.59452   0.72302   0.22797   0.00000  Uiso   1.00
N368   N     0.30693   0.80312   0.89378   0.00000  Uiso   1.00
