data_job_04422
_audit_creation_date              2018-12-19
_audit_creation_method            'Materials Studio'
_symmetry_space_group_name_H-M    'P1'
_symmetry_Int_Tables_number       1
_symmetry_cell_setting            triclinic
loop_
_symmetry_equiv_pos_as_xyz
  x,y,z
_cell_length_a                    12.4820
_cell_length_b                    13.0141
_cell_length_c                    14.0940
_cell_angle_alpha                 100.5493
_cell_angle_beta                  90.9287
_cell_angle_gamma                 82.5104
loop_
_atom_site_label
_atom_site_type_symbol
_atom_site_fract_x
_atom_site_fract_y
_atom_site_fract_z
_atom_site_U_iso_or_equiv
_atom_site_adp_type
_atom_site_occupancy
C1     C     0.45586   0.20169   0.19460   0.00000  Uiso   1.00
C2     C     0.52198   0.26366   0.14076   0.00000  Uiso   1.00
C3     C     0.61832   0.22451   0.09148   0.00000  Uiso   1.00
C4     C     0.66636   0.29380   0.04693   0.00000  Uiso   1.00
C5     C     0.77616   0.37413   0.96267   0.00000  Uiso   1.00
C6     C     0.44355   0.26299   0.29778   0.00000  Uiso   1.00
C7     C     0.47394   0.22326   0.38052   0.00000  Uiso   1.00
C8     C     0.45594   0.29199   0.46814   0.00000  Uiso   1.00
C9     C     0.44390   0.37126   0.62766   0.00000  Uiso   1.00
C10    C     0.34311   0.21045   0.15110   0.00000  Uiso   1.00
C11    C     0.28903   0.12655   0.11052   0.00000  Uiso   1.00
C12    C     0.18646   0.15105   0.07466   0.00000  Uiso   1.00
C13    C     0.01848   0.14874   0.00643   0.00000  Uiso   1.00
C14    C     0.36985   0.39438   0.20311   0.00000  Uiso   1.00
C15    C     0.47526   0.36833   0.14539   0.00000  Uiso   1.00
C16    C     0.52317   0.43770   0.10089   0.00000  Uiso   1.00
C17    C     0.61956   0.39865   0.05155   0.00000  Uiso   1.00
C18    C     0.39684   0.36765   0.30241   0.00000  Uiso   1.00
C19    C     0.37878   0.43646   0.38993   0.00000  Uiso   1.00
C20    C     0.40914   0.39684   0.47277   0.00000  Uiso   1.00
C21    C     0.29640   0.31512   0.15572   0.00000  Uiso   1.00
C22    C     0.19388   0.33975   0.11993   0.00000  Uiso   1.00
C23    C     0.13966   0.25590   0.07929   0.00000  Uiso   1.00
H24    H     0.49223   0.12020   0.19101   0.00000  Uiso   1.00
H25    H     0.65445   0.14351   0.08793   0.00000  Uiso   1.00
H26    H     0.51008   0.14226   0.37692   0.00000  Uiso   1.00
H27    H     0.32521   0.04557   0.10696   0.00000  Uiso   1.00
H28    H     0.81372   0.21551   0.97571   0.00000  Uiso   1.00
H29    H     0.50927   0.21288   0.58506   0.00000  Uiso   1.00
H30    H     0.11943   0.00897   0.01580   0.00000  Uiso   1.00
H31    H     0.33348   0.47587   0.20671   0.00000  Uiso   1.00
H32    H     0.48700   0.51869   0.10448   0.00000  Uiso   1.00
H33    H     0.34263   0.51744   0.39348   0.00000  Uiso   1.00
H34    H     0.15776   0.42075   0.12351   0.00000  Uiso   1.00
H35    H     0.67782   0.52002   0.98915   0.00000  Uiso   1.00
H36    H     0.37336   0.51739   0.59851   0.00000  Uiso   1.00
H37    H     0.98353   0.31349   0.02924   0.00000  Uiso   1.00
O38    O     0.84964   0.38953   0.91493   0.00000  Uiso   1.00
O39    O     0.45019   0.38606   0.71437   0.00000  Uiso   1.00
O40    O     0.93874   0.11855   0.96751   0.00000  Uiso   1.00
N41    N     0.76066   0.28130   0.99289   0.00000  Uiso   1.00
N42    N     0.47603   0.27884   0.56259   0.00000  Uiso   1.00
N43    N     0.11155   0.08821   0.03040   0.00000  Uiso   1.00
N44    N     0.68753   0.44515   0.00012   0.00000  Uiso   1.00
N45    N     0.40290   0.44269   0.56983   0.00000  Uiso   1.00
N46    N     0.03842   0.25206   0.03763   0.00000  Uiso   1.00
C47    C     0.05162   0.84246   0.41871   0.00000  Uiso   1.00
C48    C     0.97786   0.78845   0.34365   0.00000  Uiso   1.00
C49    C     0.87731   0.83253   0.31665   0.00000  Uiso   1.00
C50    C     0.82243   0.77028   0.24671   0.00000  Uiso   1.00
C51    C     0.70116   0.70201   0.13650   0.00000  Uiso   1.00
C52    C     0.07372   0.77061   0.49290   0.00000  Uiso   1.00
C53    C     0.05379   0.79969   0.59139   0.00000  Uiso   1.00
C54    C     0.07962   0.72242   0.64708   0.00000  Uiso   1.00
C55    C     0.10726   0.62647   0.76860   0.00000  Uiso   1.00
C56    C     0.15900   0.83884   0.36736   0.00000  Uiso   1.00
C57    C     0.21079   0.92528   0.36031   0.00000  Uiso   1.00
C58    C     0.30845   0.90545   0.31032   0.00000  Uiso   1.00
C59    C     0.46849   0.91544   0.23691   0.00000  Uiso   1.00
C60    C     0.13296   0.65352   0.34251   0.00000  Uiso   1.00
C61    C     0.02205   0.68582   0.30227   0.00000  Uiso   1.00
C62    C     0.96731   0.62349   0.23234   0.00000  Uiso   1.00
C63    C     0.86670   0.66747   0.20524   0.00000  Uiso   1.00
C64    C     0.11791   0.66799   0.45152   0.00000  Uiso   1.00
C65    C     0.14379   0.59065   0.50708   0.00000  Uiso   1.00
C66    C     0.12389   0.61961   0.60563   0.00000  Uiso   1.00
C67    C     0.20319   0.73621   0.32597   0.00000  Uiso   1.00
C68    C     0.30079   0.71624   0.27600   0.00000  Uiso   1.00
C69    C     0.35271   0.80265   0.26886   0.00000  Uiso   1.00
H70    H     0.01722   0.92235   0.45094   0.00000  Uiso   1.00
H71    H     0.84314   0.91195   0.34870   0.00000  Uiso   1.00
H72    H     0.01960   0.87911   0.62340   0.00000  Uiso   1.00
H73    H     0.17658   0.00469   0.39234   0.00000  Uiso   1.00
H74    H     0.66961   0.85514   0.21713   0.00000  Uiso   1.00
H75    H     0.04172   0.78592   0.79634   0.00000  Uiso   1.00
H76    H     0.37274   0.05072   0.30913   0.00000  Uiso   1.00
H77    H     0.16737   0.57362   0.31029   0.00000  Uiso   1.00
H78    H     0.00152   0.54408   0.20033   0.00000  Uiso   1.00
H79    H     0.17798   0.51125   0.47503   0.00000  Uiso   1.00
H80    H     0.33496   0.63682   0.24398   0.00000  Uiso   1.00
H81    H     0.79816   0.55656   0.09671   0.00000  Uiso   1.00
H82    H     0.17028   0.48735   0.67593   0.00000  Uiso   1.00
H83    H     0.50129   0.75214   0.18871   0.00000  Uiso   1.00
O84    O     0.62206   0.69270   0.08715   0.00000  Uiso   1.00
O85    O     0.11028   0.60190   0.84706   0.00000  Uiso   1.00
O86    O     0.54456   0.94930   0.20784   0.00000  Uiso   1.00
N87    N     0.72263   0.78893   0.20386   0.00000  Uiso   1.00
N88    N     0.07052   0.72421   0.74539   0.00000  Uiso   1.00
N89    N     0.38001   0.97177   0.28991   0.00000  Uiso   1.00
N90    N     0.79180   0.62827   0.13907   0.00000  Uiso   1.00
N91    N     0.13969   0.56355   0.68060   0.00000  Uiso   1.00
N92    N     0.44918   0.81111   0.22511   0.00000  Uiso   1.00
C93    C     0.54414   0.79831   0.80540   0.00000  Uiso   1.00
C94    C     0.47802   0.73634   0.85924   0.00000  Uiso   1.00
C95    C     0.38168   0.77549   0.90852   0.00000  Uiso   1.00
C96    C     0.33364   0.70620   0.95307   0.00000  Uiso   1.00
C97    C     0.22384   0.62587   0.03733   0.00000  Uiso   1.00
C98    C     0.55645   0.73701   0.70222   0.00000  Uiso   1.00
C99    C     0.52606   0.77674   0.61948   0.00000  Uiso   1.00
C100   C     0.54406   0.70801   0.53186   0.00000  Uiso   1.00
C101   C     0.55610   0.62874   0.37234   0.00000  Uiso   1.00
C102   C     0.65689   0.78955   0.84890   0.00000  Uiso   1.00
C103   C     0.71097   0.87345   0.88948   0.00000  Uiso   1.00
C104   C     0.81354   0.84895   0.92534   0.00000  Uiso   1.00
C105   C     0.98152   0.85126   0.99357   0.00000  Uiso   1.00
C106   C     0.63015   0.60562   0.79689   0.00000  Uiso   1.00
C107   C     0.52474   0.63167   0.85461   0.00000  Uiso   1.00
C108   C     0.47683   0.56230   0.89911   0.00000  Uiso   1.00
C109   C     0.38044   0.60135   0.94845   0.00000  Uiso   1.00
C110   C     0.60316   0.63235   0.69759   0.00000  Uiso   1.00
C111   C     0.62122   0.56354   0.61007   0.00000  Uiso   1.00
C112   C     0.59086   0.60316   0.52723   0.00000  Uiso   1.00
C113   C     0.70360   0.68488   0.84428   0.00000  Uiso   1.00
C114   C     0.80612   0.66025   0.88007   0.00000  Uiso   1.00
C115   C     0.86034   0.74410   0.92071   0.00000  Uiso   1.00
H116   H     0.50777   0.87980   0.80899   0.00000  Uiso   1.00
H117   H     0.34555   0.85649   0.91207   0.00000  Uiso   1.00
H118   H     0.48992   0.85774   0.62308   0.00000  Uiso   1.00
H119   H     0.67479   0.95443   0.89304   0.00000  Uiso   1.00
H120   H     0.18628   0.78449   0.02429   0.00000  Uiso   1.00
H121   H     0.49073   0.78712   0.41494   0.00000  Uiso   1.00
H122   H     0.88057   0.99103   0.98420   0.00000  Uiso   1.00
H123   H     0.66652   0.52413   0.79329   0.00000  Uiso   1.00
H124   H     0.51300   0.48131   0.89552   0.00000  Uiso   1.00
H125   H     0.65737   0.48256   0.60652   0.00000  Uiso   1.00
H126   H     0.84224   0.57925   0.87649   0.00000  Uiso   1.00
H127   H     0.32218   0.47998   0.01085   0.00000  Uiso   1.00
H128   H     0.62664   0.48261   0.40149   0.00000  Uiso   1.00
H129   H     0.01647   0.68651   0.97076   0.00000  Uiso   1.00
O130   O     0.15036   0.61047   0.08507   0.00000  Uiso   1.00
O131   O     0.54981   0.61394   0.28563   0.00000  Uiso   1.00
O132   O     0.06126   0.88145   0.03249   0.00000  Uiso   1.00
N133   N     0.23934   0.71870   0.00711   0.00000  Uiso   1.00
N134   N     0.52397   0.72116   0.43741   0.00000  Uiso   1.00
N135   N     0.88845   0.91179   0.96960   0.00000  Uiso   1.00
N136   N     0.31247   0.55485   0.99988   0.00000  Uiso   1.00
N137   N     0.59710   0.55731   0.43017   0.00000  Uiso   1.00
N138   N     0.96158   0.74794   0.96237   0.00000  Uiso   1.00
C139   C     0.94838   0.15754   0.58129   0.00000  Uiso   1.00
C140   C     0.02214   0.21155   0.65635   0.00000  Uiso   1.00
C141   C     0.12269   0.16747   0.68335   0.00000  Uiso   1.00
C142   C     0.17757   0.22972   0.75329   0.00000  Uiso   1.00
C143   C     0.29884   0.29799   0.86350   0.00000  Uiso   1.00
C144   C     0.92628   0.22939   0.50710   0.00000  Uiso   1.00
C145   C     0.94621   0.20031   0.40861   0.00000  Uiso   1.00
C146   C     0.92038   0.27758   0.35292   0.00000  Uiso   1.00
C147   C     0.89274   0.37353   0.23140   0.00000  Uiso   1.00
C148   C     0.84100   0.16116   0.63264   0.00000  Uiso   1.00
C149   C     0.78921   0.07472   0.63969   0.00000  Uiso   1.00
C150   C     0.69155   0.09455   0.68968   0.00000  Uiso   1.00
C151   C     0.53151   0.08456   0.76309   0.00000  Uiso   1.00
C152   C     0.86704   0.34648   0.65749   0.00000  Uiso   1.00
C153   C     0.97795   0.31418   0.69773   0.00000  Uiso   1.00
C154   C     0.03269   0.37651   0.76766   0.00000  Uiso   1.00
C155   C     0.13330   0.33253   0.79476   0.00000  Uiso   1.00
C156   C     0.88209   0.33201   0.54848   0.00000  Uiso   1.00
C157   C     0.85621   0.40935   0.49292   0.00000  Uiso   1.00
C158   C     0.87611   0.38039   0.39437   0.00000  Uiso   1.00
C159   C     0.79681   0.26379   0.67403   0.00000  Uiso   1.00
C160   C     0.69921   0.28376   0.72400   0.00000  Uiso   1.00
C161   C     0.64729   0.19735   0.73114   0.00000  Uiso   1.00
H162   H     0.98278   0.07765   0.54906   0.00000  Uiso   1.00
H163   H     0.15686   0.08805   0.65130   0.00000  Uiso   1.00
H164   H     0.98040   0.12089   0.37660   0.00000  Uiso   1.00
H165   H     0.82342   0.99531   0.60766   0.00000  Uiso   1.00
H166   H     0.33039   0.14486   0.78287   0.00000  Uiso   1.00
H167   H     0.95828   0.21408   0.20366   0.00000  Uiso   1.00
H168   H     0.62726   0.94928   0.69087   0.00000  Uiso   1.00
H169   H     0.83263   0.42638   0.68971   0.00000  Uiso   1.00
H170   H     0.99848   0.45592   0.79967   0.00000  Uiso   1.00
H171   H     0.82202   0.48875   0.52497   0.00000  Uiso   1.00
H172   H     0.66504   0.36318   0.75602   0.00000  Uiso   1.00
H173   H     0.20184   0.44344   0.90329   0.00000  Uiso   1.00
H174   H     0.82972   0.51265   0.32407   0.00000  Uiso   1.00
H175   H     0.49871   0.24786   0.81129   0.00000  Uiso   1.00
O176   O     0.37794   0.30730   0.91285   0.00000  Uiso   1.00
O177   O     0.88972   0.39810   0.15294   0.00000  Uiso   1.00
O178   O     0.45544   0.05070   0.79216   0.00000  Uiso   1.00
N179   N     0.27737   0.21107   0.79614   0.00000  Uiso   1.00
N180   N     0.92948   0.27579   0.25461   0.00000  Uiso   1.00
N181   N     0.61999   0.02823   0.71009   0.00000  Uiso   1.00
N182   N     0.20820   0.37173   0.86093   0.00000  Uiso   1.00
N183   N     0.86031   0.43645   0.31940   0.00000  Uiso   1.00
N184   N     0.55082   0.18889   0.77489   0.00000  Uiso   1.00
