data_job_01152
_audit_creation_date              2018-12-19
_audit_creation_method            'Materials Studio'
_symmetry_space_group_name_H-M    'P1'
_symmetry_Int_Tables_number       1
_symmetry_cell_setting            triclinic
loop_
_symmetry_equiv_pos_as_xyz
  x,y,z
_cell_length_a                    9.3987
_cell_length_b                    24.1790
_cell_length_c                    24.4060
_cell_angle_alpha                 90.0000
_cell_angle_beta                  116.4048
_cell_angle_gamma                 90.0000
loop_
_atom_site_label
_atom_site_type_symbol
_atom_site_fract_x
_atom_site_fract_y
_atom_site_fract_z
_atom_site_U_iso_or_equiv
_atom_site_adp_type
_atom_site_occupancy
C1     C     0.27775   0.43481   0.08319   0.00000  Uiso   1.00
C2     C     0.31827   0.40522   0.03675   0.00000  Uiso   1.00
C3     C     0.26644   0.42044   0.97604   0.00000  Uiso   1.00
C4     C     0.31662   0.38801   0.94100   0.00000  Uiso   1.00
C5     C     0.36449   0.34904   0.86510   0.00000  Uiso   1.00
C6     C     0.20298   0.39128   0.10751   0.00000  Uiso   1.00
C7     C     0.05423   0.39478   0.10632   0.00000  Uiso   1.00
C8     C     0.00738   0.35061   0.13086   0.00000  Uiso   1.00
C9     C     0.87630   0.29002   0.16487   0.00000  Uiso   1.00
C10    C     0.43623   0.44991   0.13663   0.00000  Uiso   1.00
C11    C     0.48360   0.50271   0.15993   0.00000  Uiso   1.00
C12    C     0.63312   0.50790   0.20900   0.00000  Uiso   1.00
C13    C     0.86420   0.53834   0.28822   0.00000  Uiso   1.00
C14    C     0.45903   0.35015   0.12891   0.00000  Uiso   1.00
C15    C     0.41673   0.35924   0.06158   0.00000  Uiso   1.00
C16    C     0.46701   0.32677   0.02662   0.00000  Uiso   1.00
C17    C     0.41527   0.34194   0.96588   0.00000  Uiso   1.00
C18    C     0.30143   0.34529   0.13235   0.00000  Uiso   1.00
C19    C     0.25480   0.30111   0.15690   0.00000  Uiso   1.00
C20    C     0.10602   0.30454   0.15573   0.00000  Uiso   1.00
C21    C     0.53470   0.40392   0.16147   0.00000  Uiso   1.00
C22    C     0.68417   0.40904   0.21051   0.00000  Uiso   1.00
C23    C     0.73176   0.46183   0.23388   0.00000  Uiso   1.00
H24    H     0.20109   0.47061   0.06386   0.00000  Uiso   1.00
H25    H     0.19023   0.45603   0.95684   0.00000  Uiso   1.00
H26    H     0.97807   0.43038   0.08710   0.00000  Uiso   1.00
H27    H     0.40737   0.53828   0.14070   0.00000  Uiso   1.00
H28    H     0.22157   0.41957   0.84913   0.00000  Uiso   1.00
H29    H     0.77423   0.36549   0.12382   0.00000  Uiso   1.00
H30    H     0.67949   0.59303   0.23685   0.00000  Uiso   1.00
H31    H     0.53569   0.31434   0.14824   0.00000  Uiso   1.00
H32    H     0.54320   0.29119   0.04585   0.00000  Uiso   1.00
H33    H     0.33103   0.26553   0.17611   0.00000  Uiso   1.00
H34    H     0.76033   0.37344   0.22972   0.00000  Uiso   1.00
H35    H     0.50805   0.28578   0.92138   0.00000  Uiso   1.00
H36    H     0.06070   0.23170   0.19607   0.00000  Uiso   1.00
H37    H     0.96597   0.45924   0.30910   0.00000  Uiso   1.00
O38    O     0.36367   0.34025   0.81637   0.00000  Uiso   1.00
O39    O     0.77679   0.26930   0.17676   0.00000  Uiso   1.00
O40    O     0.96447   0.56783   0.32505   0.00000  Uiso   1.00
N41    N     0.28799   0.39127   0.88019   0.00000  Uiso   1.00
N42    N     0.86974   0.34070   0.13700   0.00000  Uiso   1.00
N43    N     0.71607   0.55343   0.24268   0.00000  Uiso   1.00
N44    N     0.44214   0.31927   0.91907   0.00000  Uiso   1.00
N45    N     0.02389   0.26871   0.17587   0.00000  Uiso   1.00
N46    N     0.87022   0.48144   0.28156   0.00000  Uiso   1.00
C47    C     0.77775   0.93481   0.08319   0.00000  Uiso   1.00
C48    C     0.81827   0.90522   0.03675   0.00000  Uiso   1.00
C49    C     0.76644   0.92044   0.97604   0.00000  Uiso   1.00
C50    C     0.81662   0.88801   0.94100   0.00000  Uiso   1.00
C51    C     0.86449   0.84904   0.86510   0.00000  Uiso   1.00
C52    C     0.70298   0.89128   0.10751   0.00000  Uiso   1.00
C53    C     0.55423   0.89478   0.10632   0.00000  Uiso   1.00
C54    C     0.50738   0.85061   0.13086   0.00000  Uiso   1.00
C55    C     0.37630   0.79002   0.16487   0.00000  Uiso   1.00
C56    C     0.93623   0.94991   0.13663   0.00000  Uiso   1.00
C57    C     0.98360   0.00271   0.15993   0.00000  Uiso   1.00
C58    C     0.13312   0.00790   0.20900   0.00000  Uiso   1.00
C59    C     0.36420   0.03834   0.28822   0.00000  Uiso   1.00
C60    C     0.95903   0.85015   0.12891   0.00000  Uiso   1.00
C61    C     0.91673   0.85924   0.06158   0.00000  Uiso   1.00
C62    C     0.96701   0.82677   0.02662   0.00000  Uiso   1.00
C63    C     0.91527   0.84194   0.96588   0.00000  Uiso   1.00
C64    C     0.80143   0.84529   0.13235   0.00000  Uiso   1.00
C65    C     0.75480   0.80111   0.15690   0.00000  Uiso   1.00
C66    C     0.60602   0.80454   0.15573   0.00000  Uiso   1.00
C67    C     0.03470   0.90392   0.16147   0.00000  Uiso   1.00
C68    C     0.18417   0.90904   0.21051   0.00000  Uiso   1.00
C69    C     0.23176   0.96183   0.23388   0.00000  Uiso   1.00
H70    H     0.70109   0.97061   0.06386   0.00000  Uiso   1.00
H71    H     0.69023   0.95603   0.95684   0.00000  Uiso   1.00
H72    H     0.47807   0.93038   0.08710   0.00000  Uiso   1.00
H73    H     0.90737   0.03828   0.14070   0.00000  Uiso   1.00
H74    H     0.72157   0.91957   0.84913   0.00000  Uiso   1.00
H75    H     0.27423   0.86549   0.12382   0.00000  Uiso   1.00
H76    H     0.17949   0.09303   0.23685   0.00000  Uiso   1.00
H77    H     0.03569   0.81434   0.14824   0.00000  Uiso   1.00
H78    H     0.04320   0.79119   0.04585   0.00000  Uiso   1.00
H79    H     0.83103   0.76553   0.17611   0.00000  Uiso   1.00
H80    H     0.26033   0.87344   0.22972   0.00000  Uiso   1.00
H81    H     0.00805   0.78578   0.92138   0.00000  Uiso   1.00
H82    H     0.56070   0.73170   0.19607   0.00000  Uiso   1.00
H83    H     0.46597   0.95924   0.30910   0.00000  Uiso   1.00
O84    O     0.86367   0.84025   0.81637   0.00000  Uiso   1.00
O85    O     0.27679   0.76930   0.17676   0.00000  Uiso   1.00
O86    O     0.46447   0.06783   0.32505   0.00000  Uiso   1.00
N87    N     0.78799   0.89127   0.88019   0.00000  Uiso   1.00
N88    N     0.36974   0.84070   0.13700   0.00000  Uiso   1.00
N89    N     0.21607   0.05343   0.24268   0.00000  Uiso   1.00
N90    N     0.94214   0.81927   0.91907   0.00000  Uiso   1.00
N91    N     0.52389   0.76871   0.17587   0.00000  Uiso   1.00
N92    N     0.37022   0.98144   0.28156   0.00000  Uiso   1.00
C93    C     0.72225   0.43481   0.41681   0.00000  Uiso   1.00
C94    C     0.68173   0.40522   0.46325   0.00000  Uiso   1.00
C95    C     0.73356   0.42044   0.52396   0.00000  Uiso   1.00
C96    C     0.68338   0.38801   0.55900   0.00000  Uiso   1.00
C97    C     0.63551   0.34904   0.63490   0.00000  Uiso   1.00
C98    C     0.79702   0.39128   0.39249   0.00000  Uiso   1.00
C99    C     0.94577   0.39478   0.39368   0.00000  Uiso   1.00
C100   C     0.99262   0.35061   0.36914   0.00000  Uiso   1.00
C101   C     0.12370   0.29002   0.33513   0.00000  Uiso   1.00
C102   C     0.56377   0.44991   0.36337   0.00000  Uiso   1.00
C103   C     0.51640   0.50271   0.34007   0.00000  Uiso   1.00
C104   C     0.36688   0.50790   0.29100   0.00000  Uiso   1.00
C105   C     0.13580   0.53834   0.21178   0.00000  Uiso   1.00
C106   C     0.54097   0.35015   0.37109   0.00000  Uiso   1.00
C107   C     0.58327   0.35924   0.43842   0.00000  Uiso   1.00
C108   C     0.53299   0.32677   0.47338   0.00000  Uiso   1.00
C109   C     0.58473   0.34194   0.53412   0.00000  Uiso   1.00
C110   C     0.69857   0.34529   0.36765   0.00000  Uiso   1.00
C111   C     0.74520   0.30111   0.34310   0.00000  Uiso   1.00
C112   C     0.89398   0.30454   0.34427   0.00000  Uiso   1.00
C113   C     0.46530   0.40392   0.33853   0.00000  Uiso   1.00
C114   C     0.31583   0.40904   0.28949   0.00000  Uiso   1.00
C115   C     0.26824   0.46183   0.26612   0.00000  Uiso   1.00
H116   H     0.79891   0.47061   0.43614   0.00000  Uiso   1.00
H117   H     0.80977   0.45603   0.54316   0.00000  Uiso   1.00
H118   H     0.02193   0.43038   0.41290   0.00000  Uiso   1.00
H119   H     0.59263   0.53828   0.35930   0.00000  Uiso   1.00
H120   H     0.77843   0.41957   0.65087   0.00000  Uiso   1.00
H121   H     0.22577   0.36549   0.37618   0.00000  Uiso   1.00
H122   H     0.32051   0.59303   0.26315   0.00000  Uiso   1.00
H123   H     0.46431   0.31434   0.35176   0.00000  Uiso   1.00
H124   H     0.45680   0.29119   0.45415   0.00000  Uiso   1.00
H125   H     0.66897   0.26553   0.32389   0.00000  Uiso   1.00
H126   H     0.23967   0.37344   0.27028   0.00000  Uiso   1.00
H127   H     0.49195   0.28578   0.57862   0.00000  Uiso   1.00
H128   H     0.93930   0.23170   0.30393   0.00000  Uiso   1.00
H129   H     0.03403   0.45924   0.19090   0.00000  Uiso   1.00
O130   O     0.63633   0.34025   0.68363   0.00000  Uiso   1.00
O131   O     0.22321   0.26930   0.32324   0.00000  Uiso   1.00
O132   O     0.03553   0.56783   0.17495   0.00000  Uiso   1.00
N133   N     0.71201   0.39127   0.61981   0.00000  Uiso   1.00
N134   N     0.13026   0.34070   0.36300   0.00000  Uiso   1.00
N135   N     0.28393   0.55343   0.25732   0.00000  Uiso   1.00
N136   N     0.55786   0.31927   0.58093   0.00000  Uiso   1.00
N137   N     0.97611   0.26871   0.32413   0.00000  Uiso   1.00
N138   N     0.12978   0.48144   0.21844   0.00000  Uiso   1.00
C139   C     0.22225   0.93481   0.41681   0.00000  Uiso   1.00
C140   C     0.18173   0.90522   0.46325   0.00000  Uiso   1.00
C141   C     0.23356   0.92044   0.52396   0.00000  Uiso   1.00
C142   C     0.18338   0.88801   0.55900   0.00000  Uiso   1.00
C143   C     0.13551   0.84904   0.63490   0.00000  Uiso   1.00
C144   C     0.29702   0.89128   0.39249   0.00000  Uiso   1.00
C145   C     0.44577   0.89478   0.39368   0.00000  Uiso   1.00
C146   C     0.49262   0.85061   0.36914   0.00000  Uiso   1.00
C147   C     0.62370   0.79002   0.33513   0.00000  Uiso   1.00
C148   C     0.06377   0.94991   0.36337   0.00000  Uiso   1.00
C149   C     0.01640   0.00271   0.34007   0.00000  Uiso   1.00
C150   C     0.86688   0.00790   0.29100   0.00000  Uiso   1.00
C151   C     0.63580   0.03834   0.21178   0.00000  Uiso   1.00
C152   C     0.04097   0.85015   0.37109   0.00000  Uiso   1.00
C153   C     0.08327   0.85924   0.43842   0.00000  Uiso   1.00
C154   C     0.03299   0.82677   0.47338   0.00000  Uiso   1.00
C155   C     0.08473   0.84194   0.53412   0.00000  Uiso   1.00
C156   C     0.19857   0.84529   0.36765   0.00000  Uiso   1.00
C157   C     0.24520   0.80111   0.34310   0.00000  Uiso   1.00
C158   C     0.39398   0.80454   0.34427   0.00000  Uiso   1.00
C159   C     0.96530   0.90392   0.33853   0.00000  Uiso   1.00
C160   C     0.81583   0.90904   0.28949   0.00000  Uiso   1.00
C161   C     0.76824   0.96183   0.26612   0.00000  Uiso   1.00
H162   H     0.29891   0.97061   0.43614   0.00000  Uiso   1.00
H163   H     0.30977   0.95603   0.54316   0.00000  Uiso   1.00
H164   H     0.52193   0.93038   0.41290   0.00000  Uiso   1.00
H165   H     0.09263   0.03828   0.35930   0.00000  Uiso   1.00
H166   H     0.27843   0.91957   0.65087   0.00000  Uiso   1.00
H167   H     0.72577   0.86549   0.37618   0.00000  Uiso   1.00
H168   H     0.82051   0.09303   0.26315   0.00000  Uiso   1.00
H169   H     0.96431   0.81434   0.35176   0.00000  Uiso   1.00
H170   H     0.95680   0.79119   0.45415   0.00000  Uiso   1.00
H171   H     0.16897   0.76553   0.32389   0.00000  Uiso   1.00
H172   H     0.73967   0.87344   0.27028   0.00000  Uiso   1.00
H173   H     0.99195   0.78578   0.57862   0.00000  Uiso   1.00
H174   H     0.43930   0.73170   0.30393   0.00000  Uiso   1.00
H175   H     0.53403   0.95924   0.19090   0.00000  Uiso   1.00
O176   O     0.13633   0.84025   0.68363   0.00000  Uiso   1.00
O177   O     0.72321   0.76930   0.32324   0.00000  Uiso   1.00
O178   O     0.53553   0.06783   0.17495   0.00000  Uiso   1.00
N179   N     0.21201   0.89127   0.61981   0.00000  Uiso   1.00
N180   N     0.63026   0.84070   0.36300   0.00000  Uiso   1.00
N181   N     0.78393   0.05343   0.25732   0.00000  Uiso   1.00
N182   N     0.05786   0.81927   0.58093   0.00000  Uiso   1.00
N183   N     0.47611   0.76871   0.32413   0.00000  Uiso   1.00
N184   N     0.62978   0.98144   0.21844   0.00000  Uiso   1.00
C185   C     0.72225   0.56519   0.91681   0.00000  Uiso   1.00
C186   C     0.68173   0.59478   0.96325   0.00000  Uiso   1.00
C187   C     0.73356   0.57956   0.02396   0.00000  Uiso   1.00
C188   C     0.68338   0.61199   0.05900   0.00000  Uiso   1.00
C189   C     0.63551   0.65096   0.13490   0.00000  Uiso   1.00
C190   C     0.79702   0.60872   0.89249   0.00000  Uiso   1.00
C191   C     0.94577   0.60522   0.89368   0.00000  Uiso   1.00
C192   C     0.99262   0.64939   0.86914   0.00000  Uiso   1.00
C193   C     0.12370   0.70998   0.83513   0.00000  Uiso   1.00
C194   C     0.56377   0.55009   0.86337   0.00000  Uiso   1.00
C195   C     0.51640   0.49729   0.84007   0.00000  Uiso   1.00
C196   C     0.36688   0.49210   0.79100   0.00000  Uiso   1.00
C197   C     0.13580   0.46166   0.71178   0.00000  Uiso   1.00
C198   C     0.54097   0.64985   0.87109   0.00000  Uiso   1.00
C199   C     0.58327   0.64076   0.93842   0.00000  Uiso   1.00
C200   C     0.53299   0.67323   0.97338   0.00000  Uiso   1.00
C201   C     0.58473   0.65806   0.03412   0.00000  Uiso   1.00
C202   C     0.69857   0.65471   0.86765   0.00000  Uiso   1.00
C203   C     0.74520   0.69889   0.84310   0.00000  Uiso   1.00
C204   C     0.89398   0.69546   0.84427   0.00000  Uiso   1.00
C205   C     0.46530   0.59608   0.83853   0.00000  Uiso   1.00
C206   C     0.31583   0.59096   0.78949   0.00000  Uiso   1.00
C207   C     0.26824   0.53817   0.76612   0.00000  Uiso   1.00
H208   H     0.79891   0.52939   0.93614   0.00000  Uiso   1.00
H209   H     0.80977   0.54397   0.04316   0.00000  Uiso   1.00
H210   H     0.02193   0.56962   0.91290   0.00000  Uiso   1.00
H211   H     0.59263   0.46172   0.85930   0.00000  Uiso   1.00
H212   H     0.77843   0.58043   0.15087   0.00000  Uiso   1.00
H213   H     0.22577   0.63451   0.87618   0.00000  Uiso   1.00
H214   H     0.32051   0.40697   0.76315   0.00000  Uiso   1.00
H215   H     0.46431   0.68566   0.85176   0.00000  Uiso   1.00
H216   H     0.45680   0.70881   0.95415   0.00000  Uiso   1.00
H217   H     0.66897   0.73447   0.82389   0.00000  Uiso   1.00
H218   H     0.23967   0.62656   0.77028   0.00000  Uiso   1.00
H219   H     0.49195   0.71422   0.07862   0.00000  Uiso   1.00
H220   H     0.93930   0.76830   0.80393   0.00000  Uiso   1.00
H221   H     0.03403   0.54076   0.69090   0.00000  Uiso   1.00
O222   O     0.63633   0.65975   0.18363   0.00000  Uiso   1.00
O223   O     0.22321   0.73070   0.82324   0.00000  Uiso   1.00
O224   O     0.03553   0.43217   0.67495   0.00000  Uiso   1.00
N225   N     0.71201   0.60873   0.11981   0.00000  Uiso   1.00
N226   N     0.13026   0.65930   0.86300   0.00000  Uiso   1.00
N227   N     0.28393   0.44657   0.75732   0.00000  Uiso   1.00
N228   N     0.55786   0.68073   0.08093   0.00000  Uiso   1.00
N229   N     0.97611   0.73129   0.82413   0.00000  Uiso   1.00
N230   N     0.12978   0.51856   0.71844   0.00000  Uiso   1.00
C231   C     0.22225   0.06519   0.91681   0.00000  Uiso   1.00
C232   C     0.18173   0.09478   0.96325   0.00000  Uiso   1.00
C233   C     0.23356   0.07956   0.02396   0.00000  Uiso   1.00
C234   C     0.18338   0.11199   0.05900   0.00000  Uiso   1.00
C235   C     0.13551   0.15096   0.13490   0.00000  Uiso   1.00
C236   C     0.29702   0.10872   0.89249   0.00000  Uiso   1.00
C237   C     0.44577   0.10522   0.89368   0.00000  Uiso   1.00
C238   C     0.49262   0.14939   0.86914   0.00000  Uiso   1.00
C239   C     0.62370   0.20998   0.83513   0.00000  Uiso   1.00
C240   C     0.06377   0.05009   0.86337   0.00000  Uiso   1.00
C241   C     0.01640   0.99729   0.84007   0.00000  Uiso   1.00
C242   C     0.86688   0.99210   0.79100   0.00000  Uiso   1.00
C243   C     0.63580   0.96166   0.71178   0.00000  Uiso   1.00
C244   C     0.04097   0.14985   0.87109   0.00000  Uiso   1.00
C245   C     0.08327   0.14076   0.93842   0.00000  Uiso   1.00
C246   C     0.03299   0.17323   0.97338   0.00000  Uiso   1.00
C247   C     0.08473   0.15806   0.03412   0.00000  Uiso   1.00
C248   C     0.19857   0.15471   0.86765   0.00000  Uiso   1.00
C249   C     0.24520   0.19889   0.84310   0.00000  Uiso   1.00
C250   C     0.39398   0.19546   0.84427   0.00000  Uiso   1.00
C251   C     0.96530   0.09608   0.83853   0.00000  Uiso   1.00
C252   C     0.81583   0.09096   0.78949   0.00000  Uiso   1.00
C253   C     0.76824   0.03817   0.76612   0.00000  Uiso   1.00
H254   H     0.29891   0.02939   0.93614   0.00000  Uiso   1.00
H255   H     0.30977   0.04397   0.04316   0.00000  Uiso   1.00
H256   H     0.52193   0.06962   0.91290   0.00000  Uiso   1.00
H257   H     0.09263   0.96172   0.85930   0.00000  Uiso   1.00
H258   H     0.27843   0.08043   0.15087   0.00000  Uiso   1.00
H259   H     0.72577   0.13451   0.87618   0.00000  Uiso   1.00
H260   H     0.82051   0.90697   0.76315   0.00000  Uiso   1.00
H261   H     0.96431   0.18566   0.85176   0.00000  Uiso   1.00
H262   H     0.95680   0.20881   0.95415   0.00000  Uiso   1.00
H263   H     0.16897   0.23447   0.82389   0.00000  Uiso   1.00
H264   H     0.73967   0.12656   0.77028   0.00000  Uiso   1.00
H265   H     0.99195   0.21422   0.07862   0.00000  Uiso   1.00
H266   H     0.43930   0.26830   0.80393   0.00000  Uiso   1.00
H267   H     0.53403   0.04076   0.69090   0.00000  Uiso   1.00
O268   O     0.13633   0.15975   0.18363   0.00000  Uiso   1.00
O269   O     0.72321   0.23070   0.82324   0.00000  Uiso   1.00
O270   O     0.53553   0.93217   0.67495   0.00000  Uiso   1.00
N271   N     0.21201   0.10873   0.11981   0.00000  Uiso   1.00
N272   N     0.63026   0.15930   0.86300   0.00000  Uiso   1.00
N273   N     0.78393   0.94657   0.75732   0.00000  Uiso   1.00
N274   N     0.05786   0.18073   0.08093   0.00000  Uiso   1.00
N275   N     0.47611   0.23129   0.82413   0.00000  Uiso   1.00
N276   N     0.62978   0.01856   0.71844   0.00000  Uiso   1.00
C277   C     0.27775   0.56519   0.58319   0.00000  Uiso   1.00
C278   C     0.31827   0.59478   0.53675   0.00000  Uiso   1.00
C279   C     0.26644   0.57956   0.47604   0.00000  Uiso   1.00
C280   C     0.31662   0.61199   0.44100   0.00000  Uiso   1.00
C281   C     0.36449   0.65096   0.36510   0.00000  Uiso   1.00
C282   C     0.20298   0.60872   0.60751   0.00000  Uiso   1.00
C283   C     0.05423   0.60522   0.60632   0.00000  Uiso   1.00
C284   C     0.00738   0.64939   0.63086   0.00000  Uiso   1.00
C285   C     0.87630   0.70998   0.66487   0.00000  Uiso   1.00
C286   C     0.43623   0.55009   0.63663   0.00000  Uiso   1.00
C287   C     0.48360   0.49729   0.65993   0.00000  Uiso   1.00
C288   C     0.63312   0.49210   0.70900   0.00000  Uiso   1.00
C289   C     0.86420   0.46166   0.78822   0.00000  Uiso   1.00
C290   C     0.45903   0.64985   0.62891   0.00000  Uiso   1.00
C291   C     0.41673   0.64076   0.56158   0.00000  Uiso   1.00
C292   C     0.46701   0.67323   0.52662   0.00000  Uiso   1.00
C293   C     0.41527   0.65806   0.46588   0.00000  Uiso   1.00
C294   C     0.30143   0.65471   0.63235   0.00000  Uiso   1.00
C295   C     0.25480   0.69889   0.65690   0.00000  Uiso   1.00
C296   C     0.10602   0.69546   0.65573   0.00000  Uiso   1.00
C297   C     0.53470   0.59608   0.66147   0.00000  Uiso   1.00
C298   C     0.68417   0.59096   0.71051   0.00000  Uiso   1.00
C299   C     0.73176   0.53817   0.73388   0.00000  Uiso   1.00
H300   H     0.20109   0.52939   0.56386   0.00000  Uiso   1.00
H301   H     0.19023   0.54397   0.45684   0.00000  Uiso   1.00
H302   H     0.97807   0.56962   0.58710   0.00000  Uiso   1.00
H303   H     0.40737   0.46172   0.64070   0.00000  Uiso   1.00
H304   H     0.22157   0.58043   0.34913   0.00000  Uiso   1.00
H305   H     0.77423   0.63451   0.62382   0.00000  Uiso   1.00
H306   H     0.67949   0.40697   0.73685   0.00000  Uiso   1.00
H307   H     0.53569   0.68566   0.64824   0.00000  Uiso   1.00
H308   H     0.54320   0.70881   0.54585   0.00000  Uiso   1.00
H309   H     0.33103   0.73447   0.67611   0.00000  Uiso   1.00
H310   H     0.76033   0.62656   0.72972   0.00000  Uiso   1.00
H311   H     0.50805   0.71422   0.42138   0.00000  Uiso   1.00
H312   H     0.06070   0.76830   0.69607   0.00000  Uiso   1.00
H313   H     0.96597   0.54076   0.80910   0.00000  Uiso   1.00
O314   O     0.36367   0.65975   0.31637   0.00000  Uiso   1.00
O315   O     0.77679   0.73070   0.67676   0.00000  Uiso   1.00
O316   O     0.96447   0.43217   0.82505   0.00000  Uiso   1.00
N317   N     0.28799   0.60873   0.38019   0.00000  Uiso   1.00
N318   N     0.86974   0.65930   0.63700   0.00000  Uiso   1.00
N319   N     0.71607   0.44657   0.74268   0.00000  Uiso   1.00
N320   N     0.44214   0.68073   0.41907   0.00000  Uiso   1.00
N321   N     0.02389   0.73129   0.67587   0.00000  Uiso   1.00
N322   N     0.87022   0.51856   0.78156   0.00000  Uiso   1.00
C323   C     0.77775   0.06519   0.58319   0.00000  Uiso   1.00
C324   C     0.81827   0.09478   0.53675   0.00000  Uiso   1.00
C325   C     0.76644   0.07956   0.47604   0.00000  Uiso   1.00
C326   C     0.81662   0.11199   0.44100   0.00000  Uiso   1.00
C327   C     0.86449   0.15096   0.36510   0.00000  Uiso   1.00
C328   C     0.70298   0.10872   0.60751   0.00000  Uiso   1.00
C329   C     0.55423   0.10522   0.60632   0.00000  Uiso   1.00
C330   C     0.50738   0.14939   0.63086   0.00000  Uiso   1.00
C331   C     0.37630   0.20998   0.66487   0.00000  Uiso   1.00
C332   C     0.93623   0.05009   0.63663   0.00000  Uiso   1.00
C333   C     0.98360   0.99729   0.65993   0.00000  Uiso   1.00
C334   C     0.13312   0.99210   0.70900   0.00000  Uiso   1.00
C335   C     0.36420   0.96166   0.78822   0.00000  Uiso   1.00
C336   C     0.95903   0.14985   0.62891   0.00000  Uiso   1.00
C337   C     0.91673   0.14076   0.56158   0.00000  Uiso   1.00
C338   C     0.96701   0.17323   0.52662   0.00000  Uiso   1.00
C339   C     0.91527   0.15806   0.46588   0.00000  Uiso   1.00
C340   C     0.80143   0.15471   0.63235   0.00000  Uiso   1.00
C341   C     0.75480   0.19889   0.65690   0.00000  Uiso   1.00
C342   C     0.60602   0.19546   0.65573   0.00000  Uiso   1.00
C343   C     0.03470   0.09608   0.66147   0.00000  Uiso   1.00
C344   C     0.18417   0.09096   0.71051   0.00000  Uiso   1.00
C345   C     0.23176   0.03817   0.73388   0.00000  Uiso   1.00
H346   H     0.70109   0.02939   0.56386   0.00000  Uiso   1.00
H347   H     0.69023   0.04397   0.45684   0.00000  Uiso   1.00
H348   H     0.47807   0.06962   0.58710   0.00000  Uiso   1.00
H349   H     0.90737   0.96172   0.64070   0.00000  Uiso   1.00
H350   H     0.72157   0.08043   0.34913   0.00000  Uiso   1.00
H351   H     0.27423   0.13451   0.62382   0.00000  Uiso   1.00
H352   H     0.17949   0.90697   0.73685   0.00000  Uiso   1.00
H353   H     0.03569   0.18566   0.64824   0.00000  Uiso   1.00
H354   H     0.04320   0.20881   0.54585   0.00000  Uiso   1.00
H355   H     0.83103   0.23447   0.67611   0.00000  Uiso   1.00
H356   H     0.26033   0.12656   0.72972   0.00000  Uiso   1.00
H357   H     0.00805   0.21422   0.42138   0.00000  Uiso   1.00
H358   H     0.56070   0.26830   0.69607   0.00000  Uiso   1.00
H359   H     0.46597   0.04076   0.80910   0.00000  Uiso   1.00
O360   O     0.86367   0.15975   0.31637   0.00000  Uiso   1.00
O361   O     0.27679   0.23070   0.67676   0.00000  Uiso   1.00
O362   O     0.46447   0.93217   0.82505   0.00000  Uiso   1.00
N363   N     0.78799   0.10873   0.38019   0.00000  Uiso   1.00
N364   N     0.36974   0.15930   0.63700   0.00000  Uiso   1.00
N365   N     0.21607   0.94657   0.74268   0.00000  Uiso   1.00
N366   N     0.94214   0.18073   0.41907   0.00000  Uiso   1.00
N367   N     0.52389   0.23129   0.67587   0.00000  Uiso   1.00
N368   N     0.37022   0.01856   0.78156   0.00000  Uiso   1.00
