data_job_04365
_audit_creation_date              2018-12-19
_audit_creation_method            'Materials Studio'
_symmetry_space_group_name_H-M    'P1'
_symmetry_Int_Tables_number       1
_symmetry_cell_setting            triclinic
loop_
_symmetry_equiv_pos_as_xyz
  x,y,z
_cell_length_a                    12.9298
_cell_length_b                    15.2003
_cell_length_c                    11.6816
_cell_angle_alpha                 90.0000
_cell_angle_beta                  89.9975
_cell_angle_gamma                 90.0000
loop_
_atom_site_label
_atom_site_type_symbol
_atom_site_fract_x
_atom_site_fract_y
_atom_site_fract_z
_atom_site_U_iso_or_equiv
_atom_site_adp_type
_atom_site_occupancy
C1     C     0.19136   0.93136   0.11093   0.00000  Uiso   1.00
C2     C     0.29432   0.91551   0.05068   0.00000  Uiso   1.00
C3     C     0.32530   0.83722   0.00007   0.00000  Uiso   1.00
C4     C     0.42240   0.83605   0.94936   0.00000  Uiso   1.00
C5     C     0.57259   0.80010   0.85587   0.00000  Uiso   1.00
C6     C     0.21822   0.96269   0.23133   0.00000  Uiso   1.00
C7     C     0.18519   0.92408   0.33260   0.00000  Uiso   1.00
C8     C     0.21823   0.96263   0.43395   0.00000  Uiso   1.00
C9     C     0.25020   0.99997   0.62091   0.00000  Uiso   1.00
C10    C     0.14198   0.00985   0.05075   0.00000  Uiso   1.00
C11    C     0.04485   0.01090   0.00022   0.00000  Uiso   1.00
C12    C     0.01369   0.08917   0.94956   0.00000  Uiso   1.00
C13    C     0.92730   0.19972   0.85615   0.00000  Uiso   1.00
C14    C     0.30872   0.06849   0.11087   0.00000  Uiso   1.00
C15    C     0.35806   0.98999   0.05065   0.00000  Uiso   1.00
C16    C     0.45515   0.98894   0.00000   0.00000  Uiso   1.00
C17    C     0.48627   0.91067   0.94932   0.00000  Uiso   1.00
C18    C     0.28196   0.03717   0.23130   0.00000  Uiso   1.00
C19    C     0.31504   0.07580   0.33253   0.00000  Uiso   1.00
C20    C     0.28209   0.03725   0.43392   0.00000  Uiso   1.00
C21    C     0.20573   0.08433   0.05071   0.00000  Uiso   1.00
C22    C     0.17471   0.16262   0.00014   0.00000  Uiso   1.00
C23    C     0.07755   0.16379   0.94953   0.00000  Uiso   1.00
H24    H     0.14173   0.87337   0.11097   0.00000  Uiso   1.00
H25    H     0.27594   0.77959   0.00013   0.00000  Uiso   1.00
H26    H     0.13585   0.86644   0.33260   0.00000  Uiso   1.00
H27    H     0.99554   0.95325   0.00026   0.00000  Uiso   1.00
H28    H     0.45287   0.70846   0.87726   0.00000  Uiso   1.00
H29    H     0.15746   0.89161   0.57829   0.00000  Uiso   1.00
H30    H     0.86157   0.07465   0.87750   0.00000  Uiso   1.00
H31    H     0.35836   0.12648   0.11084   0.00000  Uiso   1.00
H32    H     0.50446   0.04659   0.99999   0.00000  Uiso   1.00
H33    H     0.36437   0.13344   0.33247   0.00000  Uiso   1.00
H34    H     0.22406   0.22024   0.00013   0.00000  Uiso   1.00
H35    H     0.63835   0.92517   0.87716   0.00000  Uiso   1.00
H36    H     0.34293   0.10831   0.57819   0.00000  Uiso   1.00
H37    H     0.04705   0.29136   0.87739   0.00000  Uiso   1.00
O38    O     0.63783   0.75969   0.80432   0.00000  Uiso   1.00
O39    O     0.25024   0.99997   0.72405   0.00000  Uiso   1.00
O40    O     0.86205   0.24012   0.80462   0.00000  Uiso   1.00
N41    N     0.47647   0.77043   0.89243   0.00000  Uiso   1.00
N42    N     0.20028   0.94165   0.54785   0.00000  Uiso   1.00
N43    N     0.92364   0.11279   0.89270   0.00000  Uiso   1.00
N44    N     0.57627   0.88704   0.89237   0.00000  Uiso   1.00
N45    N     0.30009   0.05826   0.54780   0.00000  Uiso   1.00
N46    N     0.02345   0.22940   0.89264   0.00000  Uiso   1.00
C47    C     0.81175   0.06658   0.55877   0.00000  Uiso   1.00
C48    C     0.70957   0.08575   0.61900   0.00000  Uiso   1.00
C49    C     0.68212   0.16498   0.66961   0.00000  Uiso   1.00
C50    C     0.58513   0.16930   0.72030   0.00000  Uiso   1.00
C51    C     0.43664   0.21009   0.81377   0.00000  Uiso   1.00
C52    C     0.78353   0.03613   0.43837   0.00000  Uiso   1.00
C53    C     0.81827   0.07364   0.33710   0.00000  Uiso   1.00
C54    C     0.78354   0.03618   0.23575   0.00000  Uiso   1.00
C55    C     0.74994   0.99990   0.04879   0.00000  Uiso   1.00
C56    C     0.85758   0.98655   0.61896   0.00000  Uiso   1.00
C57    C     0.95459   0.98235   0.66951   0.00000  Uiso   1.00
C58    C     0.98221   0.90313   0.72017   0.00000  Uiso   1.00
C59    C     0.06358   0.78986   0.81361   0.00000  Uiso   1.00
C60    C     0.68834   0.93334   0.55882   0.00000  Uiso   1.00
C61    C     0.64254   0.01338   0.61903   0.00000  Uiso   1.00
C62    C     0.54557   0.01758   0.66967   0.00000  Uiso   1.00
C63    C     0.51797   0.09680   0.72034   0.00000  Uiso   1.00
C64    C     0.71650   0.96377   0.43840   0.00000  Uiso   1.00
C65    C     0.68172   0.92624   0.33717   0.00000  Uiso   1.00
C66    C     0.71639   0.96368   0.23577   0.00000  Uiso   1.00
C67    C     0.79054   0.91418   0.61899   0.00000  Uiso   1.00
C68    C     0.81803   0.83495   0.66958   0.00000  Uiso   1.00
C69    C     0.91506   0.83063   0.72020   0.00000  Uiso   1.00
H70    H     0.86394   0.12291   0.55874   0.00000  Uiso   1.00
H71    H     0.73401   0.22097   0.66955   0.00000  Uiso   1.00
H72    H     0.87015   0.12964   0.33711   0.00000  Uiso   1.00
H73    H     0.00644   0.03836   0.66947   0.00000  Uiso   1.00
H74    H     0.56038   0.29778   0.79239   0.00000  Uiso   1.00
H75    H     0.84746   0.10518   0.09141   0.00000  Uiso   1.00
H76    H     0.13486   0.91271   0.79226   0.00000  Uiso   1.00
H77    H     0.63614   0.87700   0.55884   0.00000  Uiso   1.00
H78    H     0.49371   0.96157   0.66968   0.00000  Uiso   1.00
H79    H     0.62985   0.87023   0.33722   0.00000  Uiso   1.00
H80    H     0.76614   0.77896   0.66958   0.00000  Uiso   1.00
H81    H     0.36534   0.08724   0.79248   0.00000  Uiso   1.00
H82    H     0.65243   0.89464   0.09150   0.00000  Uiso   1.00
H83    H     0.93982   0.70217   0.79235   0.00000  Uiso   1.00
O84    O     0.37326   0.25259   0.86531   0.00000  Uiso   1.00
O85    O     0.74992   0.99989   0.94565   0.00000  Uiso   1.00
O86    O     0.12697   0.74738   0.86515   0.00000  Uiso   1.00
N87    N     0.53403   0.23662   0.77722   0.00000  Uiso   1.00
N88    N     0.80242   0.05656   0.12185   0.00000  Uiso   1.00
N89    N     0.07113   0.87661   0.77705   0.00000  Uiso   1.00
N90    N     0.42908   0.12333   0.77728   0.00000  Uiso   1.00
N91    N     0.69747   0.94327   0.12190   0.00000  Uiso   1.00
N92    N     0.96618   0.76332   0.77710   0.00000  Uiso   1.00
C93    C     0.80864   0.43136   0.88907   0.00000  Uiso   1.00
C94    C     0.70568   0.41551   0.94932   0.00000  Uiso   1.00
C95    C     0.67470   0.33722   0.99993   0.00000  Uiso   1.00
C96    C     0.57760   0.33605   0.05064   0.00000  Uiso   1.00
C97    C     0.42741   0.30010   0.14413   0.00000  Uiso   1.00
C98    C     0.78178   0.46269   0.76867   0.00000  Uiso   1.00
C99    C     0.81481   0.42408   0.66740   0.00000  Uiso   1.00
C100   C     0.78177   0.46263   0.56605   0.00000  Uiso   1.00
C101   C     0.74980   0.49997   0.37909   0.00000  Uiso   1.00
C102   C     0.85802   0.50985   0.94925   0.00000  Uiso   1.00
C103   C     0.95515   0.51090   0.99978   0.00000  Uiso   1.00
C104   C     0.98631   0.58917   0.05044   0.00000  Uiso   1.00
C105   C     0.07270   0.69972   0.14385   0.00000  Uiso   1.00
C106   C     0.69128   0.56849   0.88913   0.00000  Uiso   1.00
C107   C     0.64194   0.48999   0.94935   0.00000  Uiso   1.00
C108   C     0.54485   0.48894  -0.00000   0.00000  Uiso   1.00
C109   C     0.51373   0.41067   0.05068   0.00000  Uiso   1.00
C110   C     0.71804   0.53717   0.76870   0.00000  Uiso   1.00
C111   C     0.68496   0.57580   0.66747   0.00000  Uiso   1.00
C112   C     0.71791   0.53725   0.56608   0.00000  Uiso   1.00
C113   C     0.79427   0.58433   0.94929   0.00000  Uiso   1.00
C114   C     0.82529   0.66262   0.99986   0.00000  Uiso   1.00
C115   C     0.92245   0.66379   0.05047   0.00000  Uiso   1.00
H116   H     0.85827   0.37337   0.88903   0.00000  Uiso   1.00
H117   H     0.72406   0.27959   0.99987   0.00000  Uiso   1.00
H118   H     0.86415   0.36644   0.66740   0.00000  Uiso   1.00
H119   H     0.00446   0.45325   0.99974   0.00000  Uiso   1.00
H120   H     0.54713   0.20846   0.12274   0.00000  Uiso   1.00
H121   H     0.84254   0.39161   0.42171   0.00000  Uiso   1.00
H122   H     0.13843   0.57465   0.12250   0.00000  Uiso   1.00
H123   H     0.64164   0.62648   0.88916   0.00000  Uiso   1.00
H124   H     0.49554   0.54659   0.00001   0.00000  Uiso   1.00
H125   H     0.63563   0.63344   0.66753   0.00000  Uiso   1.00
H126   H     0.77594   0.72024   0.99987   0.00000  Uiso   1.00
H127   H     0.36165   0.42517   0.12284   0.00000  Uiso   1.00
H128   H     0.65707   0.60831   0.42181   0.00000  Uiso   1.00
H129   H     0.95295   0.79136   0.12261   0.00000  Uiso   1.00
O130   O     0.36217   0.25969   0.19568   0.00000  Uiso   1.00
O131   O     0.74976   0.49997   0.27595   0.00000  Uiso   1.00
O132   O     0.13795   0.74012   0.19538   0.00000  Uiso   1.00
N133   N     0.52353   0.27043   0.10757   0.00000  Uiso   1.00
N134   N     0.79972   0.44165   0.45215   0.00000  Uiso   1.00
N135   N     0.07636   0.61279   0.10730   0.00000  Uiso   1.00
N136   N     0.42373   0.38704   0.10763   0.00000  Uiso   1.00
N137   N     0.69991   0.55826   0.45220   0.00000  Uiso   1.00
N138   N     0.97655   0.72940   0.10736   0.00000  Uiso   1.00
C139   C     0.18825   0.56658   0.44123   0.00000  Uiso   1.00
C140   C     0.29043   0.58575   0.38100   0.00000  Uiso   1.00
C141   C     0.31788   0.66498   0.33039   0.00000  Uiso   1.00
C142   C     0.41487   0.66930   0.27970   0.00000  Uiso   1.00
C143   C     0.56336   0.71009   0.18623   0.00000  Uiso   1.00
C144   C     0.21647   0.53613   0.56163   0.00000  Uiso   1.00
C145   C     0.18173   0.57364   0.66290   0.00000  Uiso   1.00
C146   C     0.21646   0.53618   0.76425   0.00000  Uiso   1.00
C147   C     0.25006   0.49990   0.95121   0.00000  Uiso   1.00
C148   C     0.14242   0.48655   0.38104   0.00000  Uiso   1.00
C149   C     0.04541   0.48235   0.33049   0.00000  Uiso   1.00
C150   C     0.01779   0.40313   0.27983   0.00000  Uiso   1.00
C151   C     0.93642   0.28986   0.18639   0.00000  Uiso   1.00
C152   C     0.31166   0.43334   0.44118   0.00000  Uiso   1.00
C153   C     0.35746   0.51338   0.38097   0.00000  Uiso   1.00
C154   C     0.45443   0.51758   0.33033   0.00000  Uiso   1.00
C155   C     0.48203   0.59680   0.27966   0.00000  Uiso   1.00
C156   C     0.28350   0.46377   0.56160   0.00000  Uiso   1.00
C157   C     0.31828   0.42624   0.66283   0.00000  Uiso   1.00
C158   C     0.28361   0.46368   0.76423   0.00000  Uiso   1.00
C159   C     0.20946   0.41418   0.38101   0.00000  Uiso   1.00
C160   C     0.18197   0.33495   0.33042   0.00000  Uiso   1.00
C161   C     0.08494   0.33063   0.27980   0.00000  Uiso   1.00
H162   H     0.13606   0.62291   0.44126   0.00000  Uiso   1.00
H163   H     0.26599   0.72097   0.33045   0.00000  Uiso   1.00
H164   H     0.12985   0.62964   0.66289   0.00000  Uiso   1.00
H165   H     0.99356   0.53836   0.33053   0.00000  Uiso   1.00
H166   H     0.43962   0.79778   0.20761   0.00000  Uiso   1.00
H167   H     0.15254   0.60518   0.90859   0.00000  Uiso   1.00
H168   H     0.86514   0.41271   0.20774   0.00000  Uiso   1.00
H169   H     0.36386   0.37700   0.44116   0.00000  Uiso   1.00
H170   H     0.50629   0.46157   0.33032   0.00000  Uiso   1.00
H171   H     0.37015   0.37023   0.66278   0.00000  Uiso   1.00
H172   H     0.23386   0.27896   0.33042   0.00000  Uiso   1.00
H173   H     0.63466   0.58724   0.20752   0.00000  Uiso   1.00
H174   H     0.34757   0.39464   0.90850   0.00000  Uiso   1.00
H175   H     0.06018   0.20217   0.20765   0.00000  Uiso   1.00
O176   O     0.62674   0.75259   0.13469   0.00000  Uiso   1.00
O177   O     0.25008   0.49989   0.05435   0.00000  Uiso   1.00
O178   O     0.87303   0.24738   0.13485   0.00000  Uiso   1.00
N179   N     0.46597   0.73662   0.22278   0.00000  Uiso   1.00
N180   N     0.19758   0.55656   0.87815   0.00000  Uiso   1.00
N181   N     0.92887   0.37661   0.22295   0.00000  Uiso   1.00
N182   N     0.57092   0.62333   0.22272   0.00000  Uiso   1.00
N183   N     0.30253   0.44327   0.87810   0.00000  Uiso   1.00
N184   N     0.03382   0.26332   0.22290   0.00000  Uiso   1.00
