data_job_06440
_audit_creation_date              2018-12-19
_audit_creation_method            'Materials Studio'
_symmetry_space_group_name_H-M    'P1'
_symmetry_Int_Tables_number       1
_symmetry_cell_setting            triclinic
loop_
_symmetry_equiv_pos_as_xyz
  x,y,z
_cell_length_a                    17.4592
_cell_length_b                    17.1758
_cell_length_c                    17.0048
_cell_angle_alpha                 89.2308
_cell_angle_beta                  89.1411
_cell_angle_gamma                 89.2855
loop_
_atom_site_label
_atom_site_type_symbol
_atom_site_fract_x
_atom_site_fract_y
_atom_site_fract_z
_atom_site_U_iso_or_equiv
_atom_site_adp_type
_atom_site_occupancy
C1     C     0.11464   0.52515   0.52442   0.00000  Uiso   1.00
C2     C     0.06212   0.47329   0.57413   0.00000  Uiso   1.00
C3     C     0.06575   0.39259   0.57837   0.00000  Uiso   1.00
C4     C     0.01257   0.35589   0.62725   0.00000  Uiso   1.00
C5     C     0.93935   0.26889   0.69786   0.00000  Uiso   1.00
C6     C     0.06220   0.57425   0.47211   0.00000  Uiso   1.00
C7     C     0.06591   0.57844   0.39058   0.00000  Uiso   1.00
C8     C     0.01280   0.62673   0.35358   0.00000  Uiso   1.00
C9     C     0.93973   0.69651   0.26581   0.00000  Uiso   1.00
C10    C     0.15044   0.58159   0.58132   0.00000  Uiso   1.00
C11    C     0.22834   0.59197   0.59161   0.00000  Uiso   1.00
C12    C     0.24952   0.64645   0.64655   0.00000  Uiso   1.00
C13    C     0.31346   0.72763   0.72834   0.00000  Uiso   1.00
C14    C     0.01375   0.60348   0.60368   0.00000  Uiso   1.00
C15    C     0.00732   0.51584   0.61718   0.00000  Uiso   1.00
C16    C     0.95413   0.47925   0.66606   0.00000  Uiso   1.00
C17    C     0.95768   0.39851   0.67038   0.00000  Uiso   1.00
C18    C     0.00740   0.61679   0.51516   0.00000  Uiso   1.00
C19    C     0.95428   0.66510   0.47827   0.00000  Uiso   1.00
C20    C     0.95790   0.66935   0.39671   0.00000  Uiso   1.00
C21    C     0.09564   0.62414   0.62438   0.00000  Uiso   1.00
C22    C     0.11671   0.67862   0.67930   0.00000  Uiso   1.00
C23    C     0.19463   0.68908   0.68967   0.00000  Uiso   1.00
H24    H     0.15730   0.49203   0.49090   0.00000  Uiso   1.00
H25    H     0.10816   0.35969   0.54504   0.00000  Uiso   1.00
H26    H     0.10832   0.54551   0.35728   0.00000  Uiso   1.00
H27    H     0.27073   0.55903   0.55828   0.00000  Uiso   1.00
H28    H     0.02951   0.23172   0.62403   0.00000  Uiso   1.00
H29    H     0.02986   0.62355   0.22814   0.00000  Uiso   1.00
H30    H     0.37232   0.65207   0.65198   0.00000  Uiso   1.00
H31    H     0.97108   0.63661   0.63719   0.00000  Uiso   1.00
H32    H     0.91173   0.51219   0.69937   0.00000  Uiso   1.00
H33    H     0.91189   0.69801   0.51161   0.00000  Uiso   1.00
H34    H     0.07429   0.71154   0.71261   0.00000  Uiso   1.00
H35    H     0.87007   0.35549   0.74929   0.00000  Uiso   1.00
H36    H     0.87042   0.74734   0.35339   0.00000  Uiso   1.00
H37    H     0.21288   0.77585   0.77723   0.00000  Uiso   1.00
O38    O     0.91408   0.20915   0.72490   0.00000  Uiso   1.00
O39    O     0.91456   0.72324   0.20550   0.00000  Uiso   1.00
O40    O     0.36386   0.76065   0.76158   0.00000  Uiso   1.00
N41    N     0.00014   0.27792   0.64499   0.00000  Uiso   1.00
N42    N     0.00046   0.64426   0.27485   0.00000  Uiso   1.00
N43    N     0.32063   0.67094   0.67109   0.00000  Uiso   1.00
N44    N     0.91434   0.34453   0.71239   0.00000  Uiso   1.00
N45    N     0.91467   0.71086   0.34225   0.00000  Uiso   1.00
N46    N     0.23484   0.73754   0.73849   0.00000  Uiso   1.00
C47    C     0.52697   0.11553   0.52542   0.00000  Uiso   1.00
C48    C     0.57520   0.06218   0.47294   0.00000  Uiso   1.00
C49    C     0.57930   0.06593   0.39141   0.00000  Uiso   1.00
C50    C     0.62673   0.01189   0.35424   0.00000  Uiso   1.00
C51    C     0.69523   0.93750   0.26624   0.00000  Uiso   1.00
C52    C     0.47589   0.06222   0.57513   0.00000  Uiso   1.00
C53    C     0.39650   0.06601   0.57953   0.00000  Uiso   1.00
C54    C     0.36033   0.01201   0.62839   0.00000  Uiso   1.00
C55    C     0.27466   0.93771   0.69908   0.00000  Uiso   1.00
C56    C     0.58253   0.15186   0.58229   0.00000  Uiso   1.00
C57    C     0.59279   0.23102   0.59274   0.00000  Uiso   1.00
C58    C     0.64639   0.25249   0.64765   0.00000  Uiso   1.00
C59    C     0.72630   0.31738   0.72946   0.00000  Uiso   1.00
C60    C     0.60391   0.01288   0.60438   0.00000  Uiso   1.00
C61    C     0.61699   0.00642   0.51583   0.00000  Uiso   1.00
C62    C     0.66443   0.95236   0.47878   0.00000  Uiso   1.00
C63    C     0.66860   0.95604   0.39721   0.00000  Uiso   1.00
C64    C     0.51768   0.00646   0.61802   0.00000  Uiso   1.00
C65    C     0.48163   0.95244   0.66689   0.00000  Uiso   1.00
C66    C     0.40220   0.95615   0.67136   0.00000  Uiso   1.00
C67    C     0.62433   0.09610   0.62518   0.00000  Uiso   1.00
C68    C     0.67792   0.11745   0.68010   0.00000  Uiso   1.00
C69    C     0.68826   0.19663   0.69062   0.00000  Uiso   1.00
H70    H     0.49443   0.15894   0.49203   0.00000  Uiso   1.00
H71    H     0.54694   0.10909   0.35824   0.00000  Uiso   1.00
H72    H     0.36417   0.10917   0.54633   0.00000  Uiso   1.00
H73    H     0.56044   0.27415   0.55954   0.00000  Uiso   1.00
H74    H     0.62358   0.02921   0.22883   0.00000  Uiso   1.00
H75    H     0.23819   0.02940   0.62545   0.00000  Uiso   1.00
H76    H     0.65205   0.37730   0.65330   0.00000  Uiso   1.00
H77    H     0.63645   0.96947   0.63778   0.00000  Uiso   1.00
H78    H     0.69676   0.90922   0.51198   0.00000  Uiso   1.00
H79    H     0.51399   0.90931   0.70008   0.00000  Uiso   1.00
H80    H     0.71025   0.07429   0.71328   0.00000  Uiso   1.00
H81    H     0.74517   0.86699   0.35361   0.00000  Uiso   1.00
H82    H     0.35979   0.86718   0.75024   0.00000  Uiso   1.00
H83    H     0.77365   0.21508   0.77808   0.00000  Uiso   1.00
O84    O     0.72147   0.91186   0.20584   0.00000  Uiso   1.00
O85    O     0.21586   0.91213   0.72621   0.00000  Uiso   1.00
O86    O     0.75884   0.36857   0.76273   0.00000  Uiso   1.00
N87    N     0.64393   0.99931   0.27546   0.00000  Uiso   1.00
N88    N     0.28362   0.99948   0.64627   0.00000  Uiso   1.00
N89    N     0.67053   0.32474   0.67232   0.00000  Uiso   1.00
N90    N     0.70936   0.91202   0.34261   0.00000  Uiso   1.00
N91    N     0.34905   0.91219   0.71342   0.00000  Uiso   1.00
N92    N     0.73596   0.23745   0.73946   0.00000  Uiso   1.00
C93    C     0.52496   0.52547   0.11612   0.00000  Uiso   1.00
C94    C     0.47396   0.57457   0.06233   0.00000  Uiso   1.00
C95    C     0.39457   0.57876   0.06629   0.00000  Uiso   1.00
C96    C     0.35847   0.62703   0.01178   0.00000  Uiso   1.00
C97    C     0.27291   0.69676   0.93682   0.00000  Uiso   1.00
C98    C     0.57319   0.47358   0.06217   0.00000  Uiso   1.00
C99    C     0.57725   0.39287   0.06600   0.00000  Uiso   1.00
C100   C     0.62470   0.35614   0.01136   0.00000  Uiso   1.00
C101   C     0.69325   0.26909   0.93618   0.00000  Uiso   1.00
C102   C     0.58054   0.58190   0.15267   0.00000  Uiso   1.00
C103   C     0.59079   0.59225   0.23261   0.00000  Uiso   1.00
C104   C     0.64445   0.64670   0.25417   0.00000  Uiso   1.00
C105   C     0.72441   0.72783   0.31952   0.00000  Uiso   1.00
C106   C     0.60204   0.60374   0.01225   0.00000  Uiso   1.00
C107   C     0.51583   0.61707   0.00591   0.00000  Uiso   1.00
C108   C     0.47985   0.66535   0.95138   0.00000  Uiso   1.00
C109   C     0.40041   0.66962   0.95526   0.00000  Uiso   1.00
C110   C     0.61506   0.51609   0.00575   0.00000  Uiso   1.00
C111   C     0.66253   0.47946   0.95109   0.00000  Uiso   1.00
C112   C     0.66665   0.39872   0.95484   0.00000  Uiso   1.00
C113   C     0.62241   0.62441   0.09626   0.00000  Uiso   1.00
C114   C     0.67607   0.67884   0.11770   0.00000  Uiso   1.00
C115   C     0.68639   0.68928   0.19765   0.00000  Uiso   1.00
H116   H     0.49236   0.49237   0.16004   0.00000  Uiso   1.00
H117   H     0.36218   0.54585   0.10996   0.00000  Uiso   1.00
H118   H     0.54485   0.35999   0.10967   0.00000  Uiso   1.00
H119   H     0.55838   0.55934   0.27625   0.00000  Uiso   1.00
H120   H     0.23632   0.62386   0.02954   0.00000  Uiso   1.00
H121   H     0.62149   0.23198   0.02895   0.00000  Uiso   1.00
H122   H     0.65004   0.65234   0.38022   0.00000  Uiso   1.00
H123   H     0.63464   0.63683   0.96833   0.00000  Uiso   1.00
H124   H     0.51226   0.69824   0.90773   0.00000  Uiso   1.00
H125   H     0.69492   0.51238   0.90744   0.00000  Uiso   1.00
H126   H     0.70846   0.71173   0.07403   0.00000  Uiso   1.00
H127   H     0.35813   0.74755   0.86540   0.00000  Uiso   1.00
H128   H     0.74330   0.35565   0.86482   0.00000  Uiso   1.00
H129   H     0.77184   0.77602   0.21609   0.00000  Uiso   1.00
O130   O     0.21415   0.72347   0.91104   0.00000  Uiso   1.00
O131   O     0.71949   0.20933   0.91029   0.00000  Uiso   1.00
O132   O     0.75694   0.76085   0.37115   0.00000  Uiso   1.00
N133   N     0.28178   0.64456   0.99923   0.00000  Uiso   1.00
N134   N     0.64188   0.27816   0.99868   0.00000  Uiso   1.00
N135   N     0.66859   0.67116   0.32709   0.00000  Uiso   1.00
N136   N     0.34732   0.71111   0.91091   0.00000  Uiso   1.00
N137   N     0.70743   0.34472   0.91036   0.00000  Uiso   1.00
N138   N     0.73413   0.73771   0.23877   0.00000  Uiso   1.00
C139   C     0.61453   0.02543   0.02521   0.00000  Uiso   1.00
C140   C     0.56211   0.07452   0.97288   0.00000  Uiso   1.00
C141   C     0.56582   0.07867   0.89136   0.00000  Uiso   1.00
C142   C     0.51272   0.12695   0.85434   0.00000  Uiso   1.00
C143   C     0.43964   0.19667   0.76654   0.00000  Uiso   1.00
C144   C     0.56200   0.97359   0.07493   0.00000  Uiso   1.00
C145   C     0.56563   0.89288   0.07920   0.00000  Uiso   1.00
C146   C     0.51244   0.85620   0.12809   0.00000  Uiso   1.00
C147   C     0.43922   0.76923   0.19876   0.00000  Uiso   1.00
C148   C     0.65033   0.08186   0.08212   0.00000  Uiso   1.00
C149   C     0.72823   0.09218   0.09246   0.00000  Uiso   1.00
C150   C     0.74942   0.14664   0.14743   0.00000  Uiso   1.00
C151   C     0.81335   0.22778   0.22926   0.00000  Uiso   1.00
C152   C     0.51364   0.10378   0.10444   0.00000  Uiso   1.00
C153   C     0.50731   0.11708   0.01592   0.00000  Uiso   1.00
C154   C     0.45419   0.16536   0.97902   0.00000  Uiso   1.00
C155   C     0.45782   0.16959   0.89745   0.00000  Uiso   1.00
C156   C     0.50720   0.01614   0.11796   0.00000  Uiso   1.00
C157   C     0.45400   0.97957   0.16686   0.00000  Uiso   1.00
C158   C     0.45754   0.89883   0.17121   0.00000  Uiso   1.00
C159   C     0.59553   0.12442   0.12515   0.00000  Uiso   1.00
C160   C     0.61660   0.17887   0.18012   0.00000  Uiso   1.00
C161   C     0.69452   0.18928   0.19054   0.00000  Uiso   1.00
H162   H     0.65719   0.99228   0.99171   0.00000  Uiso   1.00
H163   H     0.60823   0.04572   0.85808   0.00000  Uiso   1.00
H164   H     0.60804   0.85996   0.04590   0.00000  Uiso   1.00
H165   H     0.77062   0.05923   0.05915   0.00000  Uiso   1.00
H166   H     0.52976   0.12371   0.72890   0.00000  Uiso   1.00
H167   H     0.52939   0.73202   0.12495   0.00000  Uiso   1.00
H168   H     0.87222   0.15222   0.15290   0.00000  Uiso   1.00
H169   H     0.47097   0.13692   0.13795   0.00000  Uiso   1.00
H170   H     0.41179   0.19829   0.01233   0.00000  Uiso   1.00
H171   H     0.41160   0.01253   0.20016   0.00000  Uiso   1.00
H172   H     0.57418   0.21180   0.21341   0.00000  Uiso   1.00
H173   H     0.37032   0.24754   0.85409   0.00000  Uiso   1.00
H174   H     0.36995   0.85585   0.25015   0.00000  Uiso   1.00
H175   H     0.71278   0.27605   0.27810   0.00000  Uiso   1.00
O176   O     0.41446   0.22337   0.70622   0.00000  Uiso   1.00
O177   O     0.41397   0.70949   0.22584   0.00000  Uiso   1.00
O178   O     0.86375   0.26079   0.26250   0.00000  Uiso   1.00
N179   N     0.50037   0.14444   0.77560   0.00000  Uiso   1.00
N180   N     0.50001   0.77824   0.14588   0.00000  Uiso   1.00
N181   N     0.82053   0.17107   0.17202   0.00000  Uiso   1.00
N182   N     0.41458   0.21107   0.84297   0.00000  Uiso   1.00
N183   N     0.41422   0.84487   0.21325   0.00000  Uiso   1.00
N184   N     0.73473   0.23771   0.23939   0.00000  Uiso   1.00
C185   C     0.02694   0.02521   0.61624   0.00000  Uiso   1.00
C186   C     0.07517   0.97330   0.56230   0.00000  Uiso   1.00
C187   C     0.07919   0.89260   0.56614   0.00000  Uiso   1.00
C188   C     0.12663   0.85584   0.51151   0.00000  Uiso   1.00
C189   C     0.19513   0.76877   0.43631   0.00000  Uiso   1.00
C190   C     0.97596   0.07431   0.56243   0.00000  Uiso   1.00
C191   C     0.89656   0.07854   0.56639   0.00000  Uiso   1.00
C192   C     0.86049   0.12682   0.51187   0.00000  Uiso   1.00
C193   C     0.77495   0.19661   0.43692   0.00000  Uiso   1.00
C194   C     0.08252   0.08164   0.65279   0.00000  Uiso   1.00
C195   C     0.09271   0.09205   0.73273   0.00000  Uiso   1.00
C196   C     0.14635   0.14652   0.75429   0.00000  Uiso   1.00
C197   C     0.22627   0.22769   0.81964   0.00000  Uiso   1.00
C198   C     0.10405   0.10345   0.51237   0.00000  Uiso   1.00
C199   C     0.11705   0.01580   0.50589   0.00000  Uiso   1.00
C200   C     0.16451   0.97915   0.45123   0.00000  Uiso   1.00
C201   C     0.16860   0.89841   0.45499   0.00000  Uiso   1.00
C202   C     0.01784   0.11680   0.50602   0.00000  Uiso   1.00
C203   C     0.98187   0.16510   0.45148   0.00000  Uiso   1.00
C204   C     0.90245   0.16939   0.45535   0.00000  Uiso   1.00
C205   C     0.12440   0.12414   0.59638   0.00000  Uiso   1.00
C206   C     0.17803   0.17860   0.61782   0.00000  Uiso   1.00
C207   C     0.18830   0.18909   0.69777   0.00000  Uiso   1.00
H208   H     0.99432   0.99213   0.66016   0.00000  Uiso   1.00
H209   H     0.04676   0.85973   0.60981   0.00000  Uiso   1.00
H210   H     0.86416   0.04566   0.61006   0.00000  Uiso   1.00
H211   H     0.06029   0.05916   0.77637   0.00000  Uiso   1.00
H212   H     0.12335   0.73168   0.52909   0.00000  Uiso   1.00
H213   H     0.73833   0.12373   0.52964   0.00000  Uiso   1.00
H214   H     0.15189   0.15221   0.88035   0.00000  Uiso   1.00
H215   H     0.13665   0.13653   0.46845   0.00000  Uiso   1.00
H216   H     0.19691   0.01205   0.40758   0.00000  Uiso   1.00
H217   H     0.01431   0.19797   0.40784   0.00000  Uiso   1.00
H218   H     0.21043   0.21148   0.57415   0.00000  Uiso   1.00
H219   H     0.24521   0.85531   0.36495   0.00000  Uiso   1.00
H220   H     0.86019   0.24736   0.36551   0.00000  Uiso   1.00
H221   H     0.27376   0.27583   0.71621   0.00000  Uiso   1.00
O222   O     0.22133   0.70900   0.41042   0.00000  Uiso   1.00
O223   O     0.71620   0.22336   0.41116   0.00000  Uiso   1.00
O224   O     0.25879   0.26072   0.87127   0.00000  Uiso   1.00
N225   N     0.14377   0.77786   0.49882   0.00000  Uiso   1.00
N226   N     0.78380   0.14439   0.49933   0.00000  Uiso   1.00
N227   N     0.17043   0.17103   0.82721   0.00000  Uiso   1.00
N228   N     0.20935   0.84438   0.41050   0.00000  Uiso   1.00
N229   N     0.84938   0.21091   0.41101   0.00000  Uiso   1.00
N230   N     0.23601   0.23755   0.73889   0.00000  Uiso   1.00
C231   C     0.02510   0.61552   0.02450   0.00000  Uiso   1.00
C232   C     0.97400   0.56222   0.07421   0.00000  Uiso   1.00
C233   C     0.89461   0.56602   0.07858   0.00000  Uiso   1.00
C234   C     0.85842   0.51202   0.12743   0.00000  Uiso   1.00
C235   C     0.77273   0.43771   0.19805   0.00000  Uiso   1.00
C236   C     0.07333   0.56215   0.97205   0.00000  Uiso   1.00
C237   C     0.07747   0.56590   0.89052   0.00000  Uiso   1.00
C238   C     0.12491   0.51185   0.85337   0.00000  Uiso   1.00
C239   C     0.19347   0.43747   0.76539   0.00000  Uiso   1.00
C240   C     0.08066   0.65184   0.08138   0.00000  Uiso   1.00
C241   C     0.09098   0.73101   0.09176   0.00000  Uiso   1.00
C242   C     0.14460   0.75248   0.14665   0.00000  Uiso   1.00
C243   C     0.22455   0.81736   0.22842   0.00000  Uiso   1.00
C244   C     0.10201   0.51287   0.10350   0.00000  Uiso   1.00
C245   C     0.01578   0.50646   0.11711   0.00000  Uiso   1.00
C246   C     0.97971   0.45245   0.16598   0.00000  Uiso   1.00
C247   C     0.90027   0.45617   0.17042   0.00000  Uiso   1.00
C248   C     0.11511   0.50640   0.01495   0.00000  Uiso   1.00
C249   C     0.16256   0.45233   0.97791   0.00000  Uiso   1.00
C250   C     0.16676   0.45599   0.89635   0.00000  Uiso   1.00
C251   C     0.12244   0.59609   0.12429   0.00000  Uiso   1.00
C252   C     0.17607   0.61744   0.17916   0.00000  Uiso   1.00
C253   C     0.18646   0.69662   0.18964   0.00000  Uiso   1.00
H254   H     0.99258   0.65893   0.99109   0.00000  Uiso   1.00
H255   H     0.86230   0.60917   0.04536   0.00000  Uiso   1.00
H256   H     0.04513   0.60906   0.85733   0.00000  Uiso   1.00
H257   H     0.05864   0.77414   0.05855   0.00000  Uiso   1.00
H258   H     0.73629   0.52940   0.12442   0.00000  Uiso   1.00
H259   H     0.12182   0.52918   0.72795   0.00000  Uiso   1.00
H260   H     0.15030   0.87729   0.15226   0.00000  Uiso   1.00
H261   H     0.13454   0.46946   0.13690   0.00000  Uiso   1.00
H262   H     0.01205   0.40931   0.19917   0.00000  Uiso   1.00
H263   H     0.19488   0.40920   0.01114   0.00000  Uiso   1.00
H264   H     0.20839   0.57428   0.21236   0.00000  Uiso   1.00
H265   H     0.85783   0.36718   0.24926   0.00000  Uiso   1.00
H266   H     0.24337   0.36697   0.85279   0.00000  Uiso   1.00
H267   H     0.27184   0.71507   0.27710   0.00000  Uiso   1.00
O268   O     0.71392   0.41212   0.22515   0.00000  Uiso   1.00
O269   O     0.21974   0.41185   0.70500   0.00000  Uiso   1.00
O270   O     0.25710   0.86855   0.26168   0.00000  Uiso   1.00
N271   N     0.78170   0.49949   0.14527   0.00000  Uiso   1.00
N272   N     0.14215   0.49927   0.77459   0.00000  Uiso   1.00
N273   N     0.16879   0.82473   0.17127   0.00000  Uiso   1.00
N274   N     0.84710   0.41220   0.21244   0.00000  Uiso   1.00
N275   N     0.20755   0.41199   0.84177   0.00000  Uiso   1.00
N276   N     0.23419   0.73744   0.23844   0.00000  Uiso   1.00
