data_job_03605
_audit_creation_date              2018-12-19
_audit_creation_method            'Materials Studio'
_symmetry_space_group_name_H-M    'P1'
_symmetry_Int_Tables_number       1
_symmetry_cell_setting            triclinic
loop_
_symmetry_equiv_pos_as_xyz
  x,y,z
_cell_length_a                    8.3824
_cell_length_b                    24.4362
_cell_length_c                    15.4185
_cell_angle_alpha                 90.0000
_cell_angle_beta                  114.9720
_cell_angle_gamma                 90.0000
loop_
_atom_site_label
_atom_site_type_symbol
_atom_site_fract_x
_atom_site_fract_y
_atom_site_fract_z
_atom_site_U_iso_or_equiv
_atom_site_adp_type
_atom_site_occupancy
C1     C     0.83092   0.60975   0.26194   0.00000  Uiso   1.00
C2     C     0.63455   0.62226   0.22160   0.00000  Uiso   1.00
C3     C     0.53643   0.64836   0.13543   0.00000  Uiso   1.00
C4     C     0.35856   0.65598   0.11127   0.00000  Uiso   1.00
C5     C     0.06535   0.67815   0.03954   0.00000  Uiso   1.00
C6     C     0.91298   0.63631   0.36062   0.00000  Uiso   1.00
C7     C     0.04898   0.67421   0.39133   0.00000  Uiso   1.00
C8     C     0.10551   0.69365   0.48420   0.00000  Uiso   1.00
C9     C     0.24466   0.73760   0.62831   0.00000  Uiso   1.00
C10    C     0.84832   0.54815   0.27923   0.00000  Uiso   1.00
C11    C     0.93000   0.51193   0.24152   0.00000  Uiso   1.00
C12    C     0.93213   0.45715   0.26589   0.00000  Uiso   1.00
C13    C     0.97088   0.36422   0.28363   0.00000  Uiso   1.00
C14    C     0.68950   0.57686   0.37228   0.00000  Uiso   1.00
C15    C     0.55774   0.60440   0.28154   0.00000  Uiso   1.00
C16    C     0.37997   0.61198   0.25750   0.00000  Uiso   1.00
C17    C     0.28160   0.63808   0.17131   0.00000  Uiso   1.00
C18    C     0.83617   0.61845   0.42055   0.00000  Uiso   1.00
C19    C     0.89252   0.63783   0.51340   0.00000  Uiso   1.00
C20    C     0.02856   0.67576   0.54424   0.00000  Uiso   1.00
C21    C     0.77151   0.53029   0.33915   0.00000  Uiso   1.00
C22    C     0.77353   0.47555   0.36359   0.00000  Uiso   1.00
C23    C     0.85518   0.43925   0.32593   0.00000  Uiso   1.00
H24    H     0.89073   0.62365   0.21529   0.00000  Uiso   1.00
H25    H     0.59593   0.66218   0.08908   0.00000  Uiso   1.00
H26    H     0.10841   0.68802   0.34494   0.00000  Uiso   1.00
H27    H     0.98943   0.52577   0.19515   0.00000  Uiso   1.00
H28    H     0.23522   0.69703   0.97559   0.00000  Uiso   1.00
H29    H     0.31586   0.75151   0.51509   0.00000  Uiso   1.00
H30    H     0.06498   0.40936   0.19924   0.00000  Uiso   1.00
H31    H     0.62970   0.56296   0.41894   0.00000  Uiso   1.00
H32    H     0.32056   0.59815   0.30389   0.00000  Uiso   1.00
H33    H     0.83305   0.62400   0.55976   0.00000  Uiso   1.00
H34    H     0.71407   0.46174   0.40997   0.00000  Uiso   1.00
H35    H     0.01173   0.64507   0.14994   0.00000  Uiso   1.00
H36    H     0.09238   0.69955   0.68945   0.00000  Uiso   1.00
H37    H     0.84149   0.35740   0.37360   0.00000  Uiso   1.00
O38    O     0.92484   0.69532   0.98343   0.00000  Uiso   1.00
O39    O     0.34262   0.76678   0.69124   0.00000  Uiso   1.00
O40    O     0.01346   0.31789   0.27685   0.00000  Uiso   1.00
N41    N     0.22504   0.67996   0.03240   0.00000  Uiso   1.00
N42    N     0.23535   0.73091   0.53680   0.00000  Uiso   1.00
N43    N     0.00084   0.41103   0.24153   0.00000  Uiso   1.00
N44    N     0.10478   0.65200   0.12622   0.00000  Uiso   1.00
N45    N     0.11510   0.70294   0.63062   0.00000  Uiso   1.00
N46    N     0.88058   0.38306   0.33535   0.00000  Uiso   1.00
C47    C     0.33092   0.10975   0.26194   0.00000  Uiso   1.00
C48    C     0.13455   0.12226   0.22160   0.00000  Uiso   1.00
C49    C     0.03643   0.14836   0.13543   0.00000  Uiso   1.00
C50    C     0.85856   0.15598   0.11127   0.00000  Uiso   1.00
C51    C     0.56535   0.17815   0.03954   0.00000  Uiso   1.00
C52    C     0.41298   0.13631   0.36062   0.00000  Uiso   1.00
C53    C     0.54898   0.17421   0.39133   0.00000  Uiso   1.00
C54    C     0.60551   0.19365   0.48420   0.00000  Uiso   1.00
C55    C     0.74466   0.23760   0.62831   0.00000  Uiso   1.00
C56    C     0.34832   0.04815   0.27923   0.00000  Uiso   1.00
C57    C     0.43000   0.01193   0.24152   0.00000  Uiso   1.00
C58    C     0.43213   0.95715   0.26589   0.00000  Uiso   1.00
C59    C     0.47088   0.86422   0.28363   0.00000  Uiso   1.00
C60    C     0.18950   0.07686   0.37228   0.00000  Uiso   1.00
C61    C     0.05774   0.10440   0.28154   0.00000  Uiso   1.00
C62    C     0.87997   0.11198   0.25750   0.00000  Uiso   1.00
C63    C     0.78160   0.13808   0.17131   0.00000  Uiso   1.00
C64    C     0.33617   0.11845   0.42055   0.00000  Uiso   1.00
C65    C     0.39252   0.13783   0.51340   0.00000  Uiso   1.00
C66    C     0.52856   0.17576   0.54424   0.00000  Uiso   1.00
C67    C     0.27151   0.03029   0.33915   0.00000  Uiso   1.00
C68    C     0.27353   0.97555   0.36359   0.00000  Uiso   1.00
C69    C     0.35518   0.93925   0.32593   0.00000  Uiso   1.00
H70    H     0.39073   0.12365   0.21529   0.00000  Uiso   1.00
H71    H     0.09593   0.16218   0.08908   0.00000  Uiso   1.00
H72    H     0.60841   0.18802   0.34494   0.00000  Uiso   1.00
H73    H     0.48943   0.02577   0.19515   0.00000  Uiso   1.00
H74    H     0.73522   0.19703   0.97559   0.00000  Uiso   1.00
H75    H     0.81586   0.25151   0.51509   0.00000  Uiso   1.00
H76    H     0.56498   0.90936   0.19924   0.00000  Uiso   1.00
H77    H     0.12970   0.06296   0.41894   0.00000  Uiso   1.00
H78    H     0.82056   0.09815   0.30389   0.00000  Uiso   1.00
H79    H     0.33305   0.12400   0.55976   0.00000  Uiso   1.00
H80    H     0.21407   0.96174   0.40997   0.00000  Uiso   1.00
H81    H     0.51173   0.14507   0.14994   0.00000  Uiso   1.00
H82    H     0.59238   0.19955   0.68945   0.00000  Uiso   1.00
H83    H     0.34149   0.85740   0.37360   0.00000  Uiso   1.00
O84    O     0.42484   0.19532   0.98343   0.00000  Uiso   1.00
O85    O     0.84262   0.26678   0.69124   0.00000  Uiso   1.00
O86    O     0.51346   0.81789   0.27685   0.00000  Uiso   1.00
N87    N     0.72504   0.17996   0.03240   0.00000  Uiso   1.00
N88    N     0.73535   0.23091   0.53680   0.00000  Uiso   1.00
N89    N     0.50084   0.91103   0.24153   0.00000  Uiso   1.00
N90    N     0.60478   0.15200   0.12622   0.00000  Uiso   1.00
N91    N     0.61510   0.20294   0.63062   0.00000  Uiso   1.00
N92    N     0.38058   0.88306   0.33535   0.00000  Uiso   1.00
C93    C     0.83092   0.39025   0.76194   0.00000  Uiso   1.00
C94    C     0.63455   0.37774   0.72160   0.00000  Uiso   1.00
C95    C     0.53643   0.35164   0.63543   0.00000  Uiso   1.00
C96    C     0.35856   0.34402   0.61127   0.00000  Uiso   1.00
C97    C     0.06535   0.32185   0.53954   0.00000  Uiso   1.00
C98    C     0.91298   0.36369   0.86062   0.00000  Uiso   1.00
C99    C     0.04898   0.32579   0.89133   0.00000  Uiso   1.00
C100   C     0.10551   0.30635   0.98420   0.00000  Uiso   1.00
C101   C     0.24466   0.26240   0.12831   0.00000  Uiso   1.00
C102   C     0.84832   0.45185   0.77923   0.00000  Uiso   1.00
C103   C     0.93000   0.48807   0.74152   0.00000  Uiso   1.00
C104   C     0.93213   0.54285   0.76589   0.00000  Uiso   1.00
C105   C     0.97088   0.63578   0.78363   0.00000  Uiso   1.00
C106   C     0.68950   0.42314   0.87228   0.00000  Uiso   1.00
C107   C     0.55774   0.39560   0.78154   0.00000  Uiso   1.00
C108   C     0.37997   0.38802   0.75750   0.00000  Uiso   1.00
C109   C     0.28160   0.36192   0.67131   0.00000  Uiso   1.00
C110   C     0.83617   0.38155   0.92055   0.00000  Uiso   1.00
C111   C     0.89252   0.36217   0.01340   0.00000  Uiso   1.00
C112   C     0.02856   0.32424   0.04424   0.00000  Uiso   1.00
C113   C     0.77151   0.46971   0.83915   0.00000  Uiso   1.00
C114   C     0.77353   0.52445   0.86359   0.00000  Uiso   1.00
C115   C     0.85518   0.56075   0.82593   0.00000  Uiso   1.00
H116   H     0.89073   0.37635   0.71529   0.00000  Uiso   1.00
H117   H     0.59593   0.33782   0.58908   0.00000  Uiso   1.00
H118   H     0.10841   0.31198   0.84494   0.00000  Uiso   1.00
H119   H     0.98943   0.47423   0.69515   0.00000  Uiso   1.00
H120   H     0.23522   0.30297   0.47559   0.00000  Uiso   1.00
H121   H     0.31586   0.24849   0.01509   0.00000  Uiso   1.00
H122   H     0.06498   0.59064   0.69924   0.00000  Uiso   1.00
H123   H     0.62970   0.43704   0.91894   0.00000  Uiso   1.00
H124   H     0.32056   0.40185   0.80389   0.00000  Uiso   1.00
H125   H     0.83305   0.37600   0.05976   0.00000  Uiso   1.00
H126   H     0.71407   0.53826   0.90997   0.00000  Uiso   1.00
H127   H     0.01173   0.35493   0.64994   0.00000  Uiso   1.00
H128   H     0.09238   0.30045   0.18945   0.00000  Uiso   1.00
H129   H     0.84149   0.64260   0.87360   0.00000  Uiso   1.00
O130   O     0.92484   0.30468   0.48343   0.00000  Uiso   1.00
O131   O     0.34262   0.23322   0.19124   0.00000  Uiso   1.00
O132   O     0.01346   0.68211   0.77685   0.00000  Uiso   1.00
N133   N     0.22504   0.32004   0.53240   0.00000  Uiso   1.00
N134   N     0.23535   0.26909   0.03680   0.00000  Uiso   1.00
N135   N     0.00084   0.58897   0.74153   0.00000  Uiso   1.00
N136   N     0.10478   0.34800   0.62622   0.00000  Uiso   1.00
N137   N     0.11510   0.29706   0.13062   0.00000  Uiso   1.00
N138   N     0.88058   0.61694   0.83535   0.00000  Uiso   1.00
C139   C     0.33092   0.89025   0.76194   0.00000  Uiso   1.00
C140   C     0.13455   0.87774   0.72160   0.00000  Uiso   1.00
C141   C     0.03643   0.85164   0.63543   0.00000  Uiso   1.00
C142   C     0.85856   0.84402   0.61127   0.00000  Uiso   1.00
C143   C     0.56535   0.82185   0.53954   0.00000  Uiso   1.00
C144   C     0.41298   0.86369   0.86062   0.00000  Uiso   1.00
C145   C     0.54898   0.82579   0.89133   0.00000  Uiso   1.00
C146   C     0.60551   0.80635   0.98420   0.00000  Uiso   1.00
C147   C     0.74466   0.76240   0.12831   0.00000  Uiso   1.00
C148   C     0.34832   0.95185   0.77923   0.00000  Uiso   1.00
C149   C     0.43000   0.98807   0.74152   0.00000  Uiso   1.00
C150   C     0.43213   0.04285   0.76589   0.00000  Uiso   1.00
C151   C     0.47088   0.13578   0.78363   0.00000  Uiso   1.00
C152   C     0.18950   0.92314   0.87228   0.00000  Uiso   1.00
C153   C     0.05774   0.89560   0.78154   0.00000  Uiso   1.00
C154   C     0.87997   0.88802   0.75750   0.00000  Uiso   1.00
C155   C     0.78160   0.86192   0.67131   0.00000  Uiso   1.00
C156   C     0.33617   0.88155   0.92055   0.00000  Uiso   1.00
C157   C     0.39252   0.86217   0.01340   0.00000  Uiso   1.00
C158   C     0.52856   0.82424   0.04424   0.00000  Uiso   1.00
C159   C     0.27151   0.96971   0.83915   0.00000  Uiso   1.00
C160   C     0.27353   0.02445   0.86359   0.00000  Uiso   1.00
C161   C     0.35518   0.06075   0.82593   0.00000  Uiso   1.00
H162   H     0.39073   0.87635   0.71529   0.00000  Uiso   1.00
H163   H     0.09593   0.83782   0.58908   0.00000  Uiso   1.00
H164   H     0.60841   0.81198   0.84494   0.00000  Uiso   1.00
H165   H     0.48943   0.97423   0.69515   0.00000  Uiso   1.00
H166   H     0.73522   0.80297   0.47559   0.00000  Uiso   1.00
H167   H     0.81586   0.74849   0.01509   0.00000  Uiso   1.00
H168   H     0.56498   0.09064   0.69924   0.00000  Uiso   1.00
H169   H     0.12970   0.93704   0.91894   0.00000  Uiso   1.00
H170   H     0.82056   0.90185   0.80389   0.00000  Uiso   1.00
H171   H     0.33305   0.87600   0.05976   0.00000  Uiso   1.00
H172   H     0.21407   0.03826   0.90997   0.00000  Uiso   1.00
H173   H     0.51173   0.85493   0.64994   0.00000  Uiso   1.00
H174   H     0.59238   0.80045   0.18945   0.00000  Uiso   1.00
H175   H     0.34149   0.14260   0.87360   0.00000  Uiso   1.00
O176   O     0.42484   0.80468   0.48343   0.00000  Uiso   1.00
O177   O     0.84262   0.73322   0.19124   0.00000  Uiso   1.00
O178   O     0.51346   0.18211   0.77685   0.00000  Uiso   1.00
N179   N     0.72504   0.82004   0.53240   0.00000  Uiso   1.00
N180   N     0.73535   0.76909   0.03680   0.00000  Uiso   1.00
N181   N     0.50084   0.08897   0.74153   0.00000  Uiso   1.00
N182   N     0.60478   0.84800   0.62622   0.00000  Uiso   1.00
N183   N     0.61510   0.79706   0.13062   0.00000  Uiso   1.00
N184   N     0.38058   0.11694   0.83535   0.00000  Uiso   1.00
