data_job_02391
_audit_creation_date              2018-12-19
_audit_creation_method            'Materials Studio'
_symmetry_space_group_name_H-M    'P1'
_symmetry_Int_Tables_number       1
_symmetry_cell_setting            triclinic
loop_
_symmetry_equiv_pos_as_xyz
  x,y,z
_cell_length_a                    17.9618
_cell_length_b                    17.1715
_cell_length_c                    16.3257
_cell_angle_alpha                 90.0000
_cell_angle_beta                  90.0000
_cell_angle_gamma                 90.0000
loop_
_atom_site_label
_atom_site_type_symbol
_atom_site_fract_x
_atom_site_fract_y
_atom_site_fract_z
_atom_site_U_iso_or_equiv
_atom_site_adp_type
_atom_site_occupancy
C1     C     0.61729   0.29342   0.80648   0.00000  Uiso   1.00
C2     C     0.63907   0.31374   0.71877   0.00000  Uiso   1.00
C3     C     0.59921   0.36166   0.66620   0.00000  Uiso   1.00
C4     C     0.62844   0.37297   0.58838   0.00000  Uiso   1.00
C5     C     0.65210   0.40987   0.45586   0.00000  Uiso   1.00
C6     C     0.61376   0.20476   0.81018   0.00000  Uiso   1.00
C7     C     0.55263   0.16106   0.83448   0.00000  Uiso   1.00
C8     C     0.56056   0.08063   0.83362   0.00000  Uiso   1.00
C9     C     0.54494   0.94834   0.84307   0.00000  Uiso   1.00
C10    C     0.68317   0.31713   0.85985   0.00000  Uiso   1.00
C11    C     0.68041   0.36789   0.92593   0.00000  Uiso   1.00
C12    C     0.74679   0.38205   0.96689   0.00000  Uiso   1.00
C13    C     0.83895   0.42423   0.05346   0.00000  Uiso   1.00
C14    C     0.74007   0.22830   0.76175   0.00000  Uiso   1.00
C15    C     0.70575   0.27836   0.69447   0.00000  Uiso   1.00
C16    C     0.73506   0.28961   0.61671   0.00000  Uiso   1.00
C17    C     0.69526   0.33754   0.56404   0.00000  Uiso   1.00
C18    C     0.68044   0.16939   0.78588   0.00000  Uiso   1.00
C19    C     0.68847   0.08901   0.78499   0.00000  Uiso   1.00
C20    C     0.62737   0.04519   0.80927   0.00000  Uiso   1.00
C21    C     0.74987   0.28176   0.83555   0.00000  Uiso   1.00
C22    C     0.81626   0.29584   0.87643   0.00000  Uiso   1.00
C23    C     0.81360   0.34661   0.94255   0.00000  Uiso   1.00
H24    H     0.56536   0.32096   0.82540   0.00000  Uiso   1.00
H25    H     0.54760   0.38902   0.68503   0.00000  Uiso   1.00
H26    H     0.50103   0.18845   0.85329   0.00000  Uiso   1.00
H27    H     0.62879   0.39525   0.94471   0.00000  Uiso   1.00
H28    H     0.55731   0.44885   0.51867   0.00000  Uiso   1.00
H29    H     0.45911   0.02595   0.87348   0.00000  Uiso   1.00
H30    H     0.72853   0.46202   0.06627   0.00000  Uiso   1.00
H31    H     0.79199   0.20075   0.74283   0.00000  Uiso   1.00
H32    H     0.78667   0.26222   0.59792   0.00000  Uiso   1.00
H33    H     0.74009   0.06165   0.76618   0.00000  Uiso   1.00
H34    H     0.86785   0.26845   0.85761   0.00000  Uiso   1.00
H35    H     0.75134   0.34594   0.44797   0.00000  Uiso   1.00
H36    H     0.65314   0.92303   0.80279   0.00000  Uiso   1.00
H37    H     0.92256   0.35911   0.99557   0.00000  Uiso   1.00
O38    O     0.64672   0.43998   0.38948   0.00000  Uiso   1.00
O39    O     0.51789   0.88515   0.85499   0.00000  Uiso   1.00
O40    O     0.87136   0.45727   0.10792   0.00000  Uiso   1.00
N41    N     0.60371   0.41621   0.52193   0.00000  Uiso   1.00
N42    N     0.51190   0.02082   0.85364   0.00000  Uiso   1.00
N43    N     0.76378   0.42850   0.03390   0.00000  Uiso   1.00
N44    N     0.70812   0.36083   0.48388   0.00000  Uiso   1.00
N45    N     0.61630   0.96544   0.81560   0.00000  Uiso   1.00
N46    N     0.86818   0.37312   0.99585   0.00000  Uiso   1.00
C47    C     0.88271   0.20658   0.30648   0.00000  Uiso   1.00
C48    C     0.86093   0.18626   0.21877   0.00000  Uiso   1.00
C49    C     0.90079   0.13834   0.16620   0.00000  Uiso   1.00
C50    C     0.87156   0.12703   0.08838   0.00000  Uiso   1.00
C51    C     0.84790   0.09013   0.95586   0.00000  Uiso   1.00
C52    C     0.88624   0.29524   0.31018   0.00000  Uiso   1.00
C53    C     0.94737   0.33894   0.33448   0.00000  Uiso   1.00
C54    C     0.93944   0.41937   0.33362   0.00000  Uiso   1.00
C55    C     0.95506   0.55166   0.34307   0.00000  Uiso   1.00
C56    C     0.81683   0.18287   0.35985   0.00000  Uiso   1.00
C57    C     0.81959   0.13211   0.42593   0.00000  Uiso   1.00
C58    C     0.75321   0.11795   0.46689   0.00000  Uiso   1.00
C59    C     0.66105   0.07577   0.55346   0.00000  Uiso   1.00
C60    C     0.75993   0.27170   0.26175   0.00000  Uiso   1.00
C61    C     0.79425   0.22164   0.19447   0.00000  Uiso   1.00
C62    C     0.76494   0.21039   0.11671   0.00000  Uiso   1.00
C63    C     0.80474   0.16246   0.06404   0.00000  Uiso   1.00
C64    C     0.81956   0.33061   0.28588   0.00000  Uiso   1.00
C65    C     0.81153   0.41099   0.28499   0.00000  Uiso   1.00
C66    C     0.87263   0.45481   0.30927   0.00000  Uiso   1.00
C67    C     0.75013   0.21824   0.33555   0.00000  Uiso   1.00
C68    C     0.68374   0.20416   0.37643   0.00000  Uiso   1.00
C69    C     0.68640   0.15339   0.44255   0.00000  Uiso   1.00
H70    H     0.93464   0.17904   0.32540   0.00000  Uiso   1.00
H71    H     0.95240   0.11098   0.18503   0.00000  Uiso   1.00
H72    H     0.99897   0.31155   0.35329   0.00000  Uiso   1.00
H73    H     0.87121   0.10475   0.44471   0.00000  Uiso   1.00
H74    H     0.94269   0.05115   0.01867   0.00000  Uiso   1.00
H75    H     0.04089   0.47405   0.37348   0.00000  Uiso   1.00
H76    H     0.77147   0.03798   0.56627   0.00000  Uiso   1.00
H77    H     0.70801   0.29925   0.24283   0.00000  Uiso   1.00
H78    H     0.71333   0.23778   0.09792   0.00000  Uiso   1.00
H79    H     0.75991   0.43835   0.26618   0.00000  Uiso   1.00
H80    H     0.63215   0.23155   0.35761   0.00000  Uiso   1.00
H81    H     0.74866   0.15406   0.94797   0.00000  Uiso   1.00
H82    H     0.84686   0.57697   0.30279   0.00000  Uiso   1.00
H83    H     0.57744   0.14089   0.49557   0.00000  Uiso   1.00
O84    O     0.85328   0.06002   0.88948   0.00000  Uiso   1.00
O85    O     0.98211   0.61485   0.35499   0.00000  Uiso   1.00
O86    O     0.62864   0.04273   0.60792   0.00000  Uiso   1.00
N87    N     0.89629   0.08379   0.02193   0.00000  Uiso   1.00
N88    N     0.98810   0.47918   0.35364   0.00000  Uiso   1.00
N89    N     0.73622   0.07150   0.53390   0.00000  Uiso   1.00
N90    N     0.79188   0.13917   0.98388   0.00000  Uiso   1.00
N91    N     0.88370   0.53456   0.31560   0.00000  Uiso   1.00
N92    N     0.63182   0.12688   0.49585   0.00000  Uiso   1.00
C93    C     0.38271   0.29342   0.69352   0.00000  Uiso   1.00
C94    C     0.36093   0.31374   0.78123   0.00000  Uiso   1.00
C95    C     0.40079   0.36166   0.83380   0.00000  Uiso   1.00
C96    C     0.37156   0.37297   0.91162   0.00000  Uiso   1.00
C97    C     0.34790   0.40987   0.04414   0.00000  Uiso   1.00
C98    C     0.38624   0.20476   0.68982   0.00000  Uiso   1.00
C99    C     0.44737   0.16106   0.66552   0.00000  Uiso   1.00
C100   C     0.43944   0.08063   0.66638   0.00000  Uiso   1.00
C101   C     0.45506   0.94834   0.65693   0.00000  Uiso   1.00
C102   C     0.31683   0.31713   0.64015   0.00000  Uiso   1.00
C103   C     0.31959   0.36789   0.57407   0.00000  Uiso   1.00
C104   C     0.25321   0.38205   0.53311   0.00000  Uiso   1.00
C105   C     0.16105   0.42423   0.44654   0.00000  Uiso   1.00
C106   C     0.25993   0.22830   0.73825   0.00000  Uiso   1.00
C107   C     0.29425   0.27836   0.80553   0.00000  Uiso   1.00
C108   C     0.26494   0.28961   0.88329   0.00000  Uiso   1.00
C109   C     0.30474   0.33754   0.93596   0.00000  Uiso   1.00
C110   C     0.31956   0.16939   0.71412   0.00000  Uiso   1.00
C111   C     0.31153   0.08901   0.71501   0.00000  Uiso   1.00
C112   C     0.37263   0.04519   0.69073   0.00000  Uiso   1.00
C113   C     0.25013   0.28176   0.66445   0.00000  Uiso   1.00
C114   C     0.18374   0.29584   0.62357   0.00000  Uiso   1.00
C115   C     0.18640   0.34661   0.55745   0.00000  Uiso   1.00
H116   H     0.43464   0.32096   0.67460   0.00000  Uiso   1.00
H117   H     0.45240   0.38902   0.81497   0.00000  Uiso   1.00
H118   H     0.49897   0.18845   0.64671   0.00000  Uiso   1.00
H119   H     0.37121   0.39525   0.55529   0.00000  Uiso   1.00
H120   H     0.44269   0.44885   0.98133   0.00000  Uiso   1.00
H121   H     0.54089   0.02595   0.62652   0.00000  Uiso   1.00
H122   H     0.27147   0.46202   0.43373   0.00000  Uiso   1.00
H123   H     0.20801   0.20075   0.75717   0.00000  Uiso   1.00
H124   H     0.21333   0.26222   0.90208   0.00000  Uiso   1.00
H125   H     0.25991   0.06165   0.73382   0.00000  Uiso   1.00
H126   H     0.13215   0.26845   0.64239   0.00000  Uiso   1.00
H127   H     0.24866   0.34594   0.05203   0.00000  Uiso   1.00
H128   H     0.34686   0.92303   0.69721   0.00000  Uiso   1.00
H129   H     0.07744   0.35911   0.50443   0.00000  Uiso   1.00
O130   O     0.35328   0.43998   0.11052   0.00000  Uiso   1.00
O131   O     0.48211   0.88515   0.64501   0.00000  Uiso   1.00
O132   O     0.12864   0.45727   0.39208   0.00000  Uiso   1.00
N133   N     0.39629   0.41621   0.97807   0.00000  Uiso   1.00
N134   N     0.48810   0.02082   0.64636   0.00000  Uiso   1.00
N135   N     0.23622   0.42850   0.46610   0.00000  Uiso   1.00
N136   N     0.29188   0.36083   0.01612   0.00000  Uiso   1.00
N137   N     0.38370   0.96544   0.68440   0.00000  Uiso   1.00
N138   N     0.13182   0.37312   0.50415   0.00000  Uiso   1.00
C139   C     0.11729   0.20658   0.19352   0.00000  Uiso   1.00
C140   C     0.13907   0.18626   0.28123   0.00000  Uiso   1.00
C141   C     0.09921   0.13834   0.33380   0.00000  Uiso   1.00
C142   C     0.12844   0.12703   0.41162   0.00000  Uiso   1.00
C143   C     0.15210   0.09013   0.54414   0.00000  Uiso   1.00
C144   C     0.11376   0.29524   0.18982   0.00000  Uiso   1.00
C145   C     0.05263   0.33894   0.16552   0.00000  Uiso   1.00
C146   C     0.06056   0.41937   0.16638   0.00000  Uiso   1.00
C147   C     0.04494   0.55166   0.15693   0.00000  Uiso   1.00
C148   C     0.18317   0.18287   0.14015   0.00000  Uiso   1.00
C149   C     0.18041   0.13211   0.07407   0.00000  Uiso   1.00
C150   C     0.24679   0.11795   0.03311   0.00000  Uiso   1.00
C151   C     0.33895   0.07577   0.94654   0.00000  Uiso   1.00
C152   C     0.24007   0.27170   0.23825   0.00000  Uiso   1.00
C153   C     0.20575   0.22164   0.30553   0.00000  Uiso   1.00
C154   C     0.23506   0.21039   0.38329   0.00000  Uiso   1.00
C155   C     0.19526   0.16246   0.43596   0.00000  Uiso   1.00
C156   C     0.18044   0.33061   0.21412   0.00000  Uiso   1.00
C157   C     0.18847   0.41099   0.21501   0.00000  Uiso   1.00
C158   C     0.12737   0.45481   0.19073   0.00000  Uiso   1.00
C159   C     0.24987   0.21824   0.16445   0.00000  Uiso   1.00
C160   C     0.31626   0.20416   0.12357   0.00000  Uiso   1.00
C161   C     0.31360   0.15339   0.05745   0.00000  Uiso   1.00
H162   H     0.06536   0.17904   0.17460   0.00000  Uiso   1.00
H163   H     0.04760   0.11098   0.31497   0.00000  Uiso   1.00
H164   H     0.00103   0.31155   0.14671   0.00000  Uiso   1.00
H165   H     0.12879   0.10475   0.05529   0.00000  Uiso   1.00
H166   H     0.05731   0.05115   0.48133   0.00000  Uiso   1.00
H167   H     0.95911   0.47405   0.12652   0.00000  Uiso   1.00
H168   H     0.22853   0.03798   0.93373   0.00000  Uiso   1.00
H169   H     0.29199   0.29925   0.25717   0.00000  Uiso   1.00
H170   H     0.28667   0.23778   0.40208   0.00000  Uiso   1.00
H171   H     0.24009   0.43835   0.23382   0.00000  Uiso   1.00
H172   H     0.36785   0.23155   0.14239   0.00000  Uiso   1.00
H173   H     0.25134   0.15406   0.55203   0.00000  Uiso   1.00
H174   H     0.15314   0.57697   0.19721   0.00000  Uiso   1.00
H175   H     0.42256   0.14089   0.00443   0.00000  Uiso   1.00
O176   O     0.14672   0.06002   0.61052   0.00000  Uiso   1.00
O177   O     0.01789   0.61485   0.14501   0.00000  Uiso   1.00
O178   O     0.37136   0.04273   0.89208   0.00000  Uiso   1.00
N179   N     0.10371   0.08379   0.47807   0.00000  Uiso   1.00
N180   N     0.01190   0.47918   0.14636   0.00000  Uiso   1.00
N181   N     0.26378   0.07150   0.96610   0.00000  Uiso   1.00
N182   N     0.20812   0.13917   0.51612   0.00000  Uiso   1.00
N183   N     0.11630   0.53456   0.18440   0.00000  Uiso   1.00
N184   N     0.36818   0.12688   0.00415   0.00000  Uiso   1.00
C185   C     0.38271   0.70658   0.19352   0.00000  Uiso   1.00
C186   C     0.36093   0.68626   0.28123   0.00000  Uiso   1.00
C187   C     0.40079   0.63834   0.33380   0.00000  Uiso   1.00
C188   C     0.37156   0.62703   0.41162   0.00000  Uiso   1.00
C189   C     0.34790   0.59013   0.54414   0.00000  Uiso   1.00
C190   C     0.38624   0.79524   0.18982   0.00000  Uiso   1.00
C191   C     0.44737   0.83894   0.16552   0.00000  Uiso   1.00
C192   C     0.43944   0.91937   0.16638   0.00000  Uiso   1.00
C193   C     0.45506   0.05166   0.15693   0.00000  Uiso   1.00
C194   C     0.31683   0.68287   0.14015   0.00000  Uiso   1.00
C195   C     0.31959   0.63211   0.07407   0.00000  Uiso   1.00
C196   C     0.25321   0.61795   0.03311   0.00000  Uiso   1.00
C197   C     0.16105   0.57577   0.94654   0.00000  Uiso   1.00
C198   C     0.25993   0.77170   0.23825   0.00000  Uiso   1.00
C199   C     0.29425   0.72164   0.30553   0.00000  Uiso   1.00
C200   C     0.26494   0.71039   0.38329   0.00000  Uiso   1.00
C201   C     0.30474   0.66246   0.43596   0.00000  Uiso   1.00
C202   C     0.31956   0.83061   0.21412   0.00000  Uiso   1.00
C203   C     0.31153   0.91099   0.21501   0.00000  Uiso   1.00
C204   C     0.37263   0.95481   0.19073   0.00000  Uiso   1.00
C205   C     0.25013   0.71824   0.16445   0.00000  Uiso   1.00
C206   C     0.18374   0.70416   0.12357   0.00000  Uiso   1.00
C207   C     0.18640   0.65339   0.05745   0.00000  Uiso   1.00
H208   H     0.43464   0.67904   0.17460   0.00000  Uiso   1.00
H209   H     0.45240   0.61098   0.31497   0.00000  Uiso   1.00
H210   H     0.49897   0.81155   0.14671   0.00000  Uiso   1.00
H211   H     0.37121   0.60475   0.05529   0.00000  Uiso   1.00
H212   H     0.44269   0.55115   0.48133   0.00000  Uiso   1.00
H213   H     0.54089   0.97405   0.12652   0.00000  Uiso   1.00
H214   H     0.27147   0.53798   0.93373   0.00000  Uiso   1.00
H215   H     0.20801   0.79925   0.25717   0.00000  Uiso   1.00
H216   H     0.21333   0.73778   0.40208   0.00000  Uiso   1.00
H217   H     0.25991   0.93835   0.23382   0.00000  Uiso   1.00
H218   H     0.13215   0.73155   0.14239   0.00000  Uiso   1.00
H219   H     0.24866   0.65406   0.55203   0.00000  Uiso   1.00
H220   H     0.34686   0.07697   0.19721   0.00000  Uiso   1.00
H221   H     0.07744   0.64089   0.00443   0.00000  Uiso   1.00
O222   O     0.35328   0.56002   0.61052   0.00000  Uiso   1.00
O223   O     0.48211   0.11485   0.14501   0.00000  Uiso   1.00
O224   O     0.12864   0.54273   0.89208   0.00000  Uiso   1.00
N225   N     0.39629   0.58379   0.47807   0.00000  Uiso   1.00
N226   N     0.48810   0.97918   0.14636   0.00000  Uiso   1.00
N227   N     0.23622   0.57150   0.96610   0.00000  Uiso   1.00
N228   N     0.29188   0.63917   0.51612   0.00000  Uiso   1.00
N229   N     0.38370   0.03456   0.18440   0.00000  Uiso   1.00
N230   N     0.13182   0.62688   0.00415   0.00000  Uiso   1.00
C231   C     0.11729   0.79342   0.69352   0.00000  Uiso   1.00
C232   C     0.13907   0.81374   0.78123   0.00000  Uiso   1.00
C233   C     0.09921   0.86166   0.83380   0.00000  Uiso   1.00
C234   C     0.12844   0.87297   0.91162   0.00000  Uiso   1.00
C235   C     0.15210   0.90987   0.04414   0.00000  Uiso   1.00
C236   C     0.11376   0.70476   0.68982   0.00000  Uiso   1.00
C237   C     0.05263   0.66106   0.66552   0.00000  Uiso   1.00
C238   C     0.06056   0.58063   0.66638   0.00000  Uiso   1.00
C239   C     0.04494   0.44834   0.65693   0.00000  Uiso   1.00
C240   C     0.18317   0.81713   0.64015   0.00000  Uiso   1.00
C241   C     0.18041   0.86789   0.57407   0.00000  Uiso   1.00
C242   C     0.24679   0.88205   0.53311   0.00000  Uiso   1.00
C243   C     0.33895   0.92423   0.44654   0.00000  Uiso   1.00
C244   C     0.24007   0.72830   0.73825   0.00000  Uiso   1.00
C245   C     0.20575   0.77836   0.80553   0.00000  Uiso   1.00
C246   C     0.23506   0.78961   0.88329   0.00000  Uiso   1.00
C247   C     0.19526   0.83754   0.93596   0.00000  Uiso   1.00
C248   C     0.18044   0.66939   0.71412   0.00000  Uiso   1.00
C249   C     0.18847   0.58901   0.71501   0.00000  Uiso   1.00
C250   C     0.12737   0.54519   0.69073   0.00000  Uiso   1.00
C251   C     0.24987   0.78176   0.66445   0.00000  Uiso   1.00
C252   C     0.31626   0.79584   0.62357   0.00000  Uiso   1.00
C253   C     0.31360   0.84661   0.55745   0.00000  Uiso   1.00
H254   H     0.06536   0.82096   0.67460   0.00000  Uiso   1.00
H255   H     0.04760   0.88902   0.81497   0.00000  Uiso   1.00
H256   H     0.00103   0.68845   0.64671   0.00000  Uiso   1.00
H257   H     0.12879   0.89525   0.55529   0.00000  Uiso   1.00
H258   H     0.05731   0.94885   0.98133   0.00000  Uiso   1.00
H259   H     0.95911   0.52595   0.62652   0.00000  Uiso   1.00
H260   H     0.22853   0.96202   0.43373   0.00000  Uiso   1.00
H261   H     0.29199   0.70075   0.75717   0.00000  Uiso   1.00
H262   H     0.28667   0.76222   0.90208   0.00000  Uiso   1.00
H263   H     0.24009   0.56165   0.73382   0.00000  Uiso   1.00
H264   H     0.36785   0.76845   0.64239   0.00000  Uiso   1.00
H265   H     0.25134   0.84594   0.05203   0.00000  Uiso   1.00
H266   H     0.15314   0.42303   0.69721   0.00000  Uiso   1.00
H267   H     0.42256   0.85911   0.50443   0.00000  Uiso   1.00
O268   O     0.14672   0.93998   0.11052   0.00000  Uiso   1.00
O269   O     0.01789   0.38515   0.64501   0.00000  Uiso   1.00
O270   O     0.37136   0.95727   0.39208   0.00000  Uiso   1.00
N271   N     0.10371   0.91621   0.97807   0.00000  Uiso   1.00
N272   N     0.01190   0.52082   0.64636   0.00000  Uiso   1.00
N273   N     0.26378   0.92850   0.46610   0.00000  Uiso   1.00
N274   N     0.20812   0.86083   0.01612   0.00000  Uiso   1.00
N275   N     0.11630   0.46544   0.68440   0.00000  Uiso   1.00
N276   N     0.36818   0.87312   0.50415   0.00000  Uiso   1.00
C277   C     0.61729   0.70658   0.30648   0.00000  Uiso   1.00
C278   C     0.63907   0.68626   0.21877   0.00000  Uiso   1.00
C279   C     0.59921   0.63834   0.16620   0.00000  Uiso   1.00
C280   C     0.62844   0.62703   0.08838   0.00000  Uiso   1.00
C281   C     0.65210   0.59013   0.95586   0.00000  Uiso   1.00
C282   C     0.61376   0.79524   0.31018   0.00000  Uiso   1.00
C283   C     0.55263   0.83894   0.33448   0.00000  Uiso   1.00
C284   C     0.56056   0.91937   0.33362   0.00000  Uiso   1.00
C285   C     0.54494   0.05166   0.34307   0.00000  Uiso   1.00
C286   C     0.68317   0.68287   0.35985   0.00000  Uiso   1.00
C287   C     0.68041   0.63211   0.42593   0.00000  Uiso   1.00
C288   C     0.74679   0.61795   0.46689   0.00000  Uiso   1.00
C289   C     0.83895   0.57577   0.55346   0.00000  Uiso   1.00
C290   C     0.74007   0.77170   0.26175   0.00000  Uiso   1.00
C291   C     0.70575   0.72164   0.19447   0.00000  Uiso   1.00
C292   C     0.73506   0.71039   0.11671   0.00000  Uiso   1.00
C293   C     0.69526   0.66246   0.06404   0.00000  Uiso   1.00
C294   C     0.68044   0.83061   0.28588   0.00000  Uiso   1.00
C295   C     0.68847   0.91099   0.28499   0.00000  Uiso   1.00
C296   C     0.62737   0.95481   0.30927   0.00000  Uiso   1.00
C297   C     0.74987   0.71824   0.33555   0.00000  Uiso   1.00
C298   C     0.81626   0.70416   0.37643   0.00000  Uiso   1.00
C299   C     0.81360   0.65339   0.44255   0.00000  Uiso   1.00
H300   H     0.56536   0.67904   0.32540   0.00000  Uiso   1.00
H301   H     0.54760   0.61098   0.18503   0.00000  Uiso   1.00
H302   H     0.50103   0.81155   0.35329   0.00000  Uiso   1.00
H303   H     0.62879   0.60475   0.44471   0.00000  Uiso   1.00
H304   H     0.55731   0.55115   0.01867   0.00000  Uiso   1.00
H305   H     0.45911   0.97405   0.37348   0.00000  Uiso   1.00
H306   H     0.72853   0.53798   0.56627   0.00000  Uiso   1.00
H307   H     0.79199   0.79925   0.24283   0.00000  Uiso   1.00
H308   H     0.78667   0.73778   0.09792   0.00000  Uiso   1.00
H309   H     0.74009   0.93835   0.26618   0.00000  Uiso   1.00
H310   H     0.86785   0.73155   0.35761   0.00000  Uiso   1.00
H311   H     0.75134   0.65406   0.94797   0.00000  Uiso   1.00
H312   H     0.65314   0.07697   0.30279   0.00000  Uiso   1.00
H313   H     0.92256   0.64089   0.49557   0.00000  Uiso   1.00
O314   O     0.64672   0.56002   0.88948   0.00000  Uiso   1.00
O315   O     0.51789   0.11485   0.35499   0.00000  Uiso   1.00
O316   O     0.87136   0.54273   0.60792   0.00000  Uiso   1.00
N317   N     0.60371   0.58379   0.02193   0.00000  Uiso   1.00
N318   N     0.51190   0.97918   0.35364   0.00000  Uiso   1.00
N319   N     0.76378   0.57150   0.53390   0.00000  Uiso   1.00
N320   N     0.70812   0.63917   0.98388   0.00000  Uiso   1.00
N321   N     0.61630   0.03456   0.31560   0.00000  Uiso   1.00
N322   N     0.86818   0.62688   0.49585   0.00000  Uiso   1.00
C323   C     0.88271   0.79342   0.80648   0.00000  Uiso   1.00
C324   C     0.86093   0.81374   0.71877   0.00000  Uiso   1.00
C325   C     0.90079   0.86166   0.66620   0.00000  Uiso   1.00
C326   C     0.87156   0.87297   0.58838   0.00000  Uiso   1.00
C327   C     0.84790   0.90987   0.45586   0.00000  Uiso   1.00
C328   C     0.88624   0.70476   0.81018   0.00000  Uiso   1.00
C329   C     0.94737   0.66106   0.83448   0.00000  Uiso   1.00
C330   C     0.93944   0.58063   0.83362   0.00000  Uiso   1.00
C331   C     0.95506   0.44834   0.84307   0.00000  Uiso   1.00
C332   C     0.81683   0.81713   0.85985   0.00000  Uiso   1.00
C333   C     0.81959   0.86789   0.92593   0.00000  Uiso   1.00
C334   C     0.75321   0.88205   0.96689   0.00000  Uiso   1.00
C335   C     0.66105   0.92423   0.05346   0.00000  Uiso   1.00
C336   C     0.75993   0.72830   0.76175   0.00000  Uiso   1.00
C337   C     0.79425   0.77836   0.69447   0.00000  Uiso   1.00
C338   C     0.76494   0.78961   0.61671   0.00000  Uiso   1.00
C339   C     0.80474   0.83754   0.56404   0.00000  Uiso   1.00
C340   C     0.81956   0.66939   0.78588   0.00000  Uiso   1.00
C341   C     0.81153   0.58901   0.78499   0.00000  Uiso   1.00
C342   C     0.87263   0.54519   0.80927   0.00000  Uiso   1.00
C343   C     0.75013   0.78176   0.83555   0.00000  Uiso   1.00
C344   C     0.68374   0.79584   0.87643   0.00000  Uiso   1.00
C345   C     0.68640   0.84661   0.94255   0.00000  Uiso   1.00
H346   H     0.93464   0.82096   0.82540   0.00000  Uiso   1.00
H347   H     0.95240   0.88902   0.68503   0.00000  Uiso   1.00
H348   H     0.99897   0.68845   0.85329   0.00000  Uiso   1.00
H349   H     0.87121   0.89525   0.94471   0.00000  Uiso   1.00
H350   H     0.94269   0.94885   0.51867   0.00000  Uiso   1.00
H351   H     0.04089   0.52595   0.87348   0.00000  Uiso   1.00
H352   H     0.77147   0.96202   0.06627   0.00000  Uiso   1.00
H353   H     0.70801   0.70075   0.74283   0.00000  Uiso   1.00
H354   H     0.71333   0.76222   0.59792   0.00000  Uiso   1.00
H355   H     0.75991   0.56165   0.76618   0.00000  Uiso   1.00
H356   H     0.63215   0.76845   0.85761   0.00000  Uiso   1.00
H357   H     0.74866   0.84594   0.44797   0.00000  Uiso   1.00
H358   H     0.84686   0.42303   0.80279   0.00000  Uiso   1.00
H359   H     0.57744   0.85911   0.99557   0.00000  Uiso   1.00
O360   O     0.85328   0.93998   0.38948   0.00000  Uiso   1.00
O361   O     0.98211   0.38515   0.85499   0.00000  Uiso   1.00
O362   O     0.62864   0.95727   0.10792   0.00000  Uiso   1.00
N363   N     0.89629   0.91621   0.52193   0.00000  Uiso   1.00
N364   N     0.98810   0.52082   0.85364   0.00000  Uiso   1.00
N365   N     0.73622   0.92850   0.03390   0.00000  Uiso   1.00
N366   N     0.79188   0.86083   0.48388   0.00000  Uiso   1.00
N367   N     0.88370   0.46544   0.81560   0.00000  Uiso   1.00
N368   N     0.63182   0.87312   0.99585   0.00000  Uiso   1.00
