data_job_00221
_audit_creation_date              2018-12-19
_audit_creation_method            'Materials Studio'
_symmetry_space_group_name_H-M    'P1'
_symmetry_Int_Tables_number       1
_symmetry_cell_setting            triclinic
loop_
_symmetry_equiv_pos_as_xyz
  x,y,z
_cell_length_a                    24.4501
_cell_length_b                    16.8173
_cell_length_c                    12.2034
_cell_angle_alpha                 90.0000
_cell_angle_beta                  90.0000
_cell_angle_gamma                 90.0000
loop_
_atom_site_label
_atom_site_type_symbol
_atom_site_fract_x
_atom_site_fract_y
_atom_site_fract_z
_atom_site_U_iso_or_equiv
_atom_site_adp_type
_atom_site_occupancy
C1     C     0.81426   0.91834   0.91129   0.00000  Uiso   1.00
C2     C     0.79900   0.83365   0.94384   0.00000  Uiso   1.00
C3     C     0.74670   0.80161   0.94201   0.00000  Uiso   1.00
C4     C     0.74125   0.72297   0.97490   0.00000  Uiso   1.00
C5     C     0.71066   0.59832   0.02039   0.00000  Uiso   1.00
C6     C     0.84330   0.95412   0.01028   0.00000  Uiso   1.00
C7     C     0.82826   0.02337   0.06430   0.00000  Uiso   1.00
C8     C     0.86010   0.04615   0.15311   0.00000  Uiso   1.00
C9     C     0.89832   0.10856   0.30170   0.00000  Uiso   1.00
C10    C     0.85757   0.91061   0.82203   0.00000  Uiso   1.00
C11    C     0.85454   0.94328   0.71777   0.00000  Uiso   1.00
C12    C     0.89841   0.92944   0.64810   0.00000  Uiso   1.00
C13    C     0.95879   0.92428   0.50440   0.00000  Uiso   1.00
C14    C     0.89757   0.83568   0.97294   0.00000  Uiso   1.00
C15    C     0.84425   0.78876   0.97733   0.00000  Uiso   1.00
C16    C     0.83887   0.71015   0.01022   0.00000  Uiso   1.00
C17    C     0.78658   0.67799   0.00844   0.00000  Uiso   1.00
C18    C     0.88855   0.90923   0.04377   0.00000  Uiso   1.00
C19    C     0.92043   0.93192   0.13251   0.00000  Uiso   1.00
C20    C     0.90544   0.00118   0.18666   0.00000  Uiso   1.00
C21    C     0.90282   0.86571   0.85551   0.00000  Uiso   1.00
C22    C     0.94671   0.85182   0.78598   0.00000  Uiso   1.00
C23    C     0.94375   0.88446   0.68164   0.00000  Uiso   1.00
H24    H     0.77903   0.95330   0.88523   0.00000  Uiso   1.00
H25    H     0.71169   0.83637   0.91610   0.00000  Uiso   1.00
H26    H     0.79324   0.05811   0.03836   0.00000  Uiso   1.00
H27    H     0.81952   0.97802   0.69189   0.00000  Uiso   1.00
H28    H     0.65698   0.68695   0.96514   0.00000  Uiso   1.00
H29    H     0.82894   0.15450   0.22291   0.00000  Uiso   1.00
H30    H     0.88436   0.98563   0.49230   0.00000  Uiso   1.00
H31    H     0.93280   0.80073   0.99902   0.00000  Uiso   1.00
H32    H     0.87390   0.67542   0.03613   0.00000  Uiso   1.00
H33    H     0.95545   0.89716   0.15840   0.00000  Uiso   1.00
H34    H     0.98172   0.81708   0.81192   0.00000  Uiso   1.00
H35    H     0.78864   0.55632   0.06256   0.00000  Uiso   1.00
H36    H     0.96060   0.02387   0.32033   0.00000  Uiso   1.00
H37    H     0.01601   0.85500   0.58973   0.00000  Uiso   1.00
O38    O     0.68128   0.54196   0.03625   0.00000  Uiso   1.00
O39    O     0.90690   0.15538   0.37442   0.00000  Uiso   1.00
O40    O     0.97959   0.93382   0.41588   0.00000  Uiso   1.00
N41    N     0.69605   0.67339   0.98295   0.00000  Uiso   1.00
N42    N     0.85682   0.11052   0.22397   0.00000  Uiso   1.00
N43    N     0.90863   0.95266   0.54092   0.00000  Uiso   1.00
N44    N     0.76690   0.60310   0.03537   0.00000  Uiso   1.00
N45    N     0.92766   0.04023   0.27639   0.00000  Uiso   1.00
N46    N     0.97948   0.88237   0.59334   0.00000  Uiso   1.00
C47    C     0.68574   0.08166   0.91129   0.00000  Uiso   1.00
C48    C     0.70100   0.16635   0.94384   0.00000  Uiso   1.00
C49    C     0.75330   0.19839   0.94201   0.00000  Uiso   1.00
C50    C     0.75875   0.27703   0.97490   0.00000  Uiso   1.00
C51    C     0.78934   0.40168   0.02039   0.00000  Uiso   1.00
C52    C     0.65670   0.04588   0.01028   0.00000  Uiso   1.00
C53    C     0.67174   0.97663   0.06430   0.00000  Uiso   1.00
C54    C     0.63990   0.95385   0.15311   0.00000  Uiso   1.00
C55    C     0.60168   0.89144   0.30170   0.00000  Uiso   1.00
C56    C     0.64243   0.08939   0.82203   0.00000  Uiso   1.00
C57    C     0.64546   0.05672   0.71777   0.00000  Uiso   1.00
C58    C     0.60159   0.07056   0.64810   0.00000  Uiso   1.00
C59    C     0.54121   0.07572   0.50440   0.00000  Uiso   1.00
C60    C     0.60243   0.16432   0.97294   0.00000  Uiso   1.00
C61    C     0.65575   0.21124   0.97733   0.00000  Uiso   1.00
C62    C     0.66113   0.28985   0.01022   0.00000  Uiso   1.00
C63    C     0.71342   0.32201   0.00844   0.00000  Uiso   1.00
C64    C     0.61145   0.09077   0.04377   0.00000  Uiso   1.00
C65    C     0.57957   0.06808   0.13251   0.00000  Uiso   1.00
C66    C     0.59456   0.99882   0.18666   0.00000  Uiso   1.00
C67    C     0.59718   0.13429   0.85551   0.00000  Uiso   1.00
C68    C     0.55329   0.14818   0.78598   0.00000  Uiso   1.00
C69    C     0.55625   0.11554   0.68164   0.00000  Uiso   1.00
H70    H     0.72097   0.04670   0.88523   0.00000  Uiso   1.00
H71    H     0.78831   0.16363   0.91610   0.00000  Uiso   1.00
H72    H     0.70676   0.94189   0.03836   0.00000  Uiso   1.00
H73    H     0.68048   0.02198   0.69189   0.00000  Uiso   1.00
H74    H     0.84302   0.31305   0.96514   0.00000  Uiso   1.00
H75    H     0.67106   0.84550   0.22291   0.00000  Uiso   1.00
H76    H     0.61564   0.01437   0.49230   0.00000  Uiso   1.00
H77    H     0.56720   0.19927   0.99902   0.00000  Uiso   1.00
H78    H     0.62610   0.32458   0.03613   0.00000  Uiso   1.00
H79    H     0.54455   0.10284   0.15840   0.00000  Uiso   1.00
H80    H     0.51828   0.18292   0.81192   0.00000  Uiso   1.00
H81    H     0.71136   0.44368   0.06256   0.00000  Uiso   1.00
H82    H     0.53940   0.97613   0.32033   0.00000  Uiso   1.00
H83    H     0.48399   0.14500   0.58973   0.00000  Uiso   1.00
O84    O     0.81872   0.45804   0.03625   0.00000  Uiso   1.00
O85    O     0.59310   0.84462   0.37442   0.00000  Uiso   1.00
O86    O     0.52041   0.06618   0.41588   0.00000  Uiso   1.00
N87    N     0.80395   0.32661   0.98295   0.00000  Uiso   1.00
N88    N     0.64318   0.88948   0.22397   0.00000  Uiso   1.00
N89    N     0.59137   0.04734   0.54092   0.00000  Uiso   1.00
N90    N     0.73310   0.39690   0.03537   0.00000  Uiso   1.00
N91    N     0.57234   0.95977   0.27639   0.00000  Uiso   1.00
N92    N     0.52052   0.11763   0.59334   0.00000  Uiso   1.00
C93    C     0.68574   0.41834   0.58871   0.00000  Uiso   1.00
C94    C     0.70100   0.33365   0.55616   0.00000  Uiso   1.00
C95    C     0.75330   0.30161   0.55799   0.00000  Uiso   1.00
C96    C     0.75875   0.22297   0.52510   0.00000  Uiso   1.00
C97    C     0.78934   0.09832   0.47961   0.00000  Uiso   1.00
C98    C     0.65670   0.45412   0.48972   0.00000  Uiso   1.00
C99    C     0.67174   0.52337   0.43570   0.00000  Uiso   1.00
C100   C     0.63990   0.54615   0.34689   0.00000  Uiso   1.00
C101   C     0.60168   0.60856   0.19830   0.00000  Uiso   1.00
C102   C     0.64243   0.41061   0.67797   0.00000  Uiso   1.00
C103   C     0.64546   0.44328   0.78223   0.00000  Uiso   1.00
C104   C     0.60159   0.42944   0.85190   0.00000  Uiso   1.00
C105   C     0.54121   0.42428   0.99560   0.00000  Uiso   1.00
C106   C     0.60243   0.33568   0.52706   0.00000  Uiso   1.00
C107   C     0.65575   0.28876   0.52267   0.00000  Uiso   1.00
C108   C     0.66113   0.21015   0.48978   0.00000  Uiso   1.00
C109   C     0.71342   0.17799   0.49156   0.00000  Uiso   1.00
C110   C     0.61145   0.40923   0.45623   0.00000  Uiso   1.00
C111   C     0.57957   0.43192   0.36749   0.00000  Uiso   1.00
C112   C     0.59456   0.50118   0.31334   0.00000  Uiso   1.00
C113   C     0.59718   0.36571   0.64449   0.00000  Uiso   1.00
C114   C     0.55329   0.35182   0.71402   0.00000  Uiso   1.00
C115   C     0.55625   0.38446   0.81836   0.00000  Uiso   1.00
H116   H     0.72097   0.45330   0.61477   0.00000  Uiso   1.00
H117   H     0.78831   0.33637   0.58390   0.00000  Uiso   1.00
H118   H     0.70676   0.55811   0.46164   0.00000  Uiso   1.00
H119   H     0.68048   0.47802   0.80811   0.00000  Uiso   1.00
H120   H     0.84302   0.18695   0.53486   0.00000  Uiso   1.00
H121   H     0.67106   0.65450   0.27709   0.00000  Uiso   1.00
H122   H     0.61564   0.48563   0.00770   0.00000  Uiso   1.00
H123   H     0.56720   0.30073   0.50098   0.00000  Uiso   1.00
H124   H     0.62610   0.17542   0.46387   0.00000  Uiso   1.00
H125   H     0.54455   0.39716   0.34160   0.00000  Uiso   1.00
H126   H     0.51828   0.31708   0.68808   0.00000  Uiso   1.00
H127   H     0.71136   0.05632   0.43744   0.00000  Uiso   1.00
H128   H     0.53940   0.52387   0.17967   0.00000  Uiso   1.00
H129   H     0.48399   0.35500   0.91027   0.00000  Uiso   1.00
O130   O     0.81872   0.04196   0.46375   0.00000  Uiso   1.00
O131   O     0.59310   0.65538   0.12558   0.00000  Uiso   1.00
O132   O     0.52041   0.43382   0.08412   0.00000  Uiso   1.00
N133   N     0.80395   0.17339   0.51705   0.00000  Uiso   1.00
N134   N     0.64318   0.61052   0.27603   0.00000  Uiso   1.00
N135   N     0.59137   0.45266   0.95908   0.00000  Uiso   1.00
N136   N     0.73310   0.10310   0.46463   0.00000  Uiso   1.00
N137   N     0.57234   0.54023   0.22361   0.00000  Uiso   1.00
N138   N     0.52052   0.38237   0.90666   0.00000  Uiso   1.00
C139   C     0.81426   0.58166   0.58871   0.00000  Uiso   1.00
C140   C     0.79900   0.66635   0.55616   0.00000  Uiso   1.00
C141   C     0.74670   0.69839   0.55799   0.00000  Uiso   1.00
C142   C     0.74125   0.77703   0.52510   0.00000  Uiso   1.00
C143   C     0.71066   0.90168   0.47961   0.00000  Uiso   1.00
C144   C     0.84330   0.54588   0.48972   0.00000  Uiso   1.00
C145   C     0.82826   0.47663   0.43570   0.00000  Uiso   1.00
C146   C     0.86010   0.45385   0.34689   0.00000  Uiso   1.00
C147   C     0.89832   0.39144   0.19830   0.00000  Uiso   1.00
C148   C     0.85757   0.58939   0.67797   0.00000  Uiso   1.00
C149   C     0.85454   0.55672   0.78223   0.00000  Uiso   1.00
C150   C     0.89841   0.57056   0.85190   0.00000  Uiso   1.00
C151   C     0.95879   0.57572   0.99560   0.00000  Uiso   1.00
C152   C     0.89757   0.66432   0.52706   0.00000  Uiso   1.00
C153   C     0.84425   0.71124   0.52267   0.00000  Uiso   1.00
C154   C     0.83887   0.78985   0.48978   0.00000  Uiso   1.00
C155   C     0.78658   0.82201   0.49156   0.00000  Uiso   1.00
C156   C     0.88855   0.59077   0.45623   0.00000  Uiso   1.00
C157   C     0.92043   0.56808   0.36749   0.00000  Uiso   1.00
C158   C     0.90544   0.49882   0.31334   0.00000  Uiso   1.00
C159   C     0.90282   0.63429   0.64449   0.00000  Uiso   1.00
C160   C     0.94671   0.64818   0.71402   0.00000  Uiso   1.00
C161   C     0.94375   0.61554   0.81836   0.00000  Uiso   1.00
H162   H     0.77903   0.54670   0.61477   0.00000  Uiso   1.00
H163   H     0.71169   0.66363   0.58390   0.00000  Uiso   1.00
H164   H     0.79324   0.44189   0.46164   0.00000  Uiso   1.00
H165   H     0.81952   0.52198   0.80811   0.00000  Uiso   1.00
H166   H     0.65698   0.81305   0.53486   0.00000  Uiso   1.00
H167   H     0.82894   0.34550   0.27709   0.00000  Uiso   1.00
H168   H     0.88436   0.51437   0.00770   0.00000  Uiso   1.00
H169   H     0.93280   0.69927   0.50098   0.00000  Uiso   1.00
H170   H     0.87390   0.82458   0.46387   0.00000  Uiso   1.00
H171   H     0.95545   0.60284   0.34160   0.00000  Uiso   1.00
H172   H     0.98172   0.68292   0.68808   0.00000  Uiso   1.00
H173   H     0.78864   0.94368   0.43744   0.00000  Uiso   1.00
H174   H     0.96060   0.47613   0.17967   0.00000  Uiso   1.00
H175   H     0.01601   0.64500   0.91027   0.00000  Uiso   1.00
O176   O     0.68128   0.95804   0.46375   0.00000  Uiso   1.00
O177   O     0.90690   0.34462   0.12558   0.00000  Uiso   1.00
O178   O     0.97959   0.56618   0.08412   0.00000  Uiso   1.00
N179   N     0.69605   0.82661   0.51705   0.00000  Uiso   1.00
N180   N     0.85682   0.38948   0.27603   0.00000  Uiso   1.00
N181   N     0.90863   0.54734   0.95908   0.00000  Uiso   1.00
N182   N     0.76690   0.89690   0.46463   0.00000  Uiso   1.00
N183   N     0.92766   0.45977   0.22361   0.00000  Uiso   1.00
N184   N     0.97948   0.61763   0.90666   0.00000  Uiso   1.00
C185   C     0.18574   0.08166   0.08871   0.00000  Uiso   1.00
C186   C     0.20100   0.16635   0.05616   0.00000  Uiso   1.00
C187   C     0.25330   0.19839   0.05799   0.00000  Uiso   1.00
C188   C     0.25875   0.27703   0.02510   0.00000  Uiso   1.00
C189   C     0.28934   0.40168   0.97961   0.00000  Uiso   1.00
C190   C     0.15670   0.04588   0.98972   0.00000  Uiso   1.00
C191   C     0.17174   0.97663   0.93570   0.00000  Uiso   1.00
C192   C     0.13990   0.95385   0.84689   0.00000  Uiso   1.00
C193   C     0.10168   0.89144   0.69830   0.00000  Uiso   1.00
C194   C     0.14243   0.08939   0.17797   0.00000  Uiso   1.00
C195   C     0.14546   0.05672   0.28223   0.00000  Uiso   1.00
C196   C     0.10159   0.07056   0.35190   0.00000  Uiso   1.00
C197   C     0.04121   0.07572   0.49560   0.00000  Uiso   1.00
C198   C     0.10243   0.16432   0.02706   0.00000  Uiso   1.00
C199   C     0.15575   0.21124   0.02267   0.00000  Uiso   1.00
C200   C     0.16113   0.28985   0.98978   0.00000  Uiso   1.00
C201   C     0.21342   0.32201   0.99156   0.00000  Uiso   1.00
C202   C     0.11145   0.09077   0.95623   0.00000  Uiso   1.00
C203   C     0.07957   0.06808   0.86749   0.00000  Uiso   1.00
C204   C     0.09456   0.99882   0.81334   0.00000  Uiso   1.00
C205   C     0.09718   0.13429   0.14449   0.00000  Uiso   1.00
C206   C     0.05329   0.14818   0.21402   0.00000  Uiso   1.00
C207   C     0.05625   0.11554   0.31836   0.00000  Uiso   1.00
H208   H     0.22097   0.04670   0.11477   0.00000  Uiso   1.00
H209   H     0.28831   0.16363   0.08390   0.00000  Uiso   1.00
H210   H     0.20676   0.94189   0.96164   0.00000  Uiso   1.00
H211   H     0.18048   0.02198   0.30811   0.00000  Uiso   1.00
H212   H     0.34302   0.31305   0.03486   0.00000  Uiso   1.00
H213   H     0.17106   0.84550   0.77709   0.00000  Uiso   1.00
H214   H     0.11564   0.01437   0.50770   0.00000  Uiso   1.00
H215   H     0.06720   0.19927   0.00098   0.00000  Uiso   1.00
H216   H     0.12610   0.32458   0.96387   0.00000  Uiso   1.00
H217   H     0.04455   0.10284   0.84160   0.00000  Uiso   1.00
H218   H     0.01828   0.18292   0.18808   0.00000  Uiso   1.00
H219   H     0.21136   0.44368   0.93744   0.00000  Uiso   1.00
H220   H     0.03940   0.97613   0.67967   0.00000  Uiso   1.00
H221   H     0.98399   0.14500   0.41027   0.00000  Uiso   1.00
O222   O     0.31872   0.45804   0.96375   0.00000  Uiso   1.00
O223   O     0.09310   0.84462   0.62558   0.00000  Uiso   1.00
O224   O     0.02041   0.06618   0.58412   0.00000  Uiso   1.00
N225   N     0.30395   0.32661   0.01705   0.00000  Uiso   1.00
N226   N     0.14318   0.88948   0.77603   0.00000  Uiso   1.00
N227   N     0.09137   0.04734   0.45908   0.00000  Uiso   1.00
N228   N     0.23310   0.39690   0.96463   0.00000  Uiso   1.00
N229   N     0.07234   0.95977   0.72361   0.00000  Uiso   1.00
N230   N     0.02052   0.11763   0.40666   0.00000  Uiso   1.00
C231   C     0.31426   0.91834   0.08871   0.00000  Uiso   1.00
C232   C     0.29900   0.83365   0.05616   0.00000  Uiso   1.00
C233   C     0.24670   0.80161   0.05799   0.00000  Uiso   1.00
C234   C     0.24125   0.72297   0.02510   0.00000  Uiso   1.00
C235   C     0.21066   0.59832   0.97961   0.00000  Uiso   1.00
C236   C     0.34330   0.95412   0.98972   0.00000  Uiso   1.00
C237   C     0.32826   0.02337   0.93570   0.00000  Uiso   1.00
C238   C     0.36010   0.04615   0.84689   0.00000  Uiso   1.00
C239   C     0.39832   0.10856   0.69830   0.00000  Uiso   1.00
C240   C     0.35757   0.91061   0.17797   0.00000  Uiso   1.00
C241   C     0.35454   0.94328   0.28223   0.00000  Uiso   1.00
C242   C     0.39841   0.92944   0.35190   0.00000  Uiso   1.00
C243   C     0.45879   0.92428   0.49560   0.00000  Uiso   1.00
C244   C     0.39757   0.83568   0.02706   0.00000  Uiso   1.00
C245   C     0.34425   0.78876   0.02267   0.00000  Uiso   1.00
C246   C     0.33887   0.71015   0.98978   0.00000  Uiso   1.00
C247   C     0.28658   0.67799   0.99156   0.00000  Uiso   1.00
C248   C     0.38855   0.90923   0.95623   0.00000  Uiso   1.00
C249   C     0.42043   0.93192   0.86749   0.00000  Uiso   1.00
C250   C     0.40544   0.00118   0.81334   0.00000  Uiso   1.00
C251   C     0.40282   0.86571   0.14449   0.00000  Uiso   1.00
C252   C     0.44671   0.85182   0.21402   0.00000  Uiso   1.00
C253   C     0.44375   0.88446   0.31836   0.00000  Uiso   1.00
H254   H     0.27903   0.95330   0.11477   0.00000  Uiso   1.00
H255   H     0.21169   0.83637   0.08390   0.00000  Uiso   1.00
H256   H     0.29324   0.05811   0.96164   0.00000  Uiso   1.00
H257   H     0.31952   0.97802   0.30811   0.00000  Uiso   1.00
H258   H     0.15698   0.68695   0.03486   0.00000  Uiso   1.00
H259   H     0.32894   0.15450   0.77709   0.00000  Uiso   1.00
H260   H     0.38436   0.98563   0.50770   0.00000  Uiso   1.00
H261   H     0.43280   0.80073   0.00098   0.00000  Uiso   1.00
H262   H     0.37390   0.67542   0.96387   0.00000  Uiso   1.00
H263   H     0.45545   0.89716   0.84160   0.00000  Uiso   1.00
H264   H     0.48172   0.81708   0.18808   0.00000  Uiso   1.00
H265   H     0.28864   0.55632   0.93744   0.00000  Uiso   1.00
H266   H     0.46060   0.02387   0.67967   0.00000  Uiso   1.00
H267   H     0.51601   0.85500   0.41027   0.00000  Uiso   1.00
O268   O     0.18128   0.54196   0.96375   0.00000  Uiso   1.00
O269   O     0.40690   0.15538   0.62558   0.00000  Uiso   1.00
O270   O     0.47959   0.93382   0.58412   0.00000  Uiso   1.00
N271   N     0.19605   0.67339   0.01705   0.00000  Uiso   1.00
N272   N     0.35682   0.11052   0.77603   0.00000  Uiso   1.00
N273   N     0.40863   0.95266   0.45908   0.00000  Uiso   1.00
N274   N     0.26690   0.60310   0.96463   0.00000  Uiso   1.00
N275   N     0.42766   0.04023   0.72361   0.00000  Uiso   1.00
N276   N     0.47948   0.88237   0.40666   0.00000  Uiso   1.00
C277   C     0.31426   0.58166   0.41129   0.00000  Uiso   1.00
C278   C     0.29900   0.66635   0.44384   0.00000  Uiso   1.00
C279   C     0.24670   0.69839   0.44201   0.00000  Uiso   1.00
C280   C     0.24125   0.77703   0.47490   0.00000  Uiso   1.00
C281   C     0.21066   0.90168   0.52039   0.00000  Uiso   1.00
C282   C     0.34330   0.54588   0.51028   0.00000  Uiso   1.00
C283   C     0.32826   0.47663   0.56430   0.00000  Uiso   1.00
C284   C     0.36010   0.45385   0.65311   0.00000  Uiso   1.00
C285   C     0.39832   0.39144   0.80170   0.00000  Uiso   1.00
C286   C     0.35757   0.58939   0.32203   0.00000  Uiso   1.00
C287   C     0.35454   0.55672   0.21777   0.00000  Uiso   1.00
C288   C     0.39841   0.57056   0.14810   0.00000  Uiso   1.00
C289   C     0.45879   0.57572   0.00440   0.00000  Uiso   1.00
C290   C     0.39757   0.66432   0.47294   0.00000  Uiso   1.00
C291   C     0.34425   0.71124   0.47733   0.00000  Uiso   1.00
C292   C     0.33887   0.78985   0.51022   0.00000  Uiso   1.00
C293   C     0.28658   0.82201   0.50844   0.00000  Uiso   1.00
C294   C     0.38855   0.59077   0.54377   0.00000  Uiso   1.00
C295   C     0.42043   0.56808   0.63251   0.00000  Uiso   1.00
C296   C     0.40544   0.49882   0.68666   0.00000  Uiso   1.00
C297   C     0.40282   0.63429   0.35551   0.00000  Uiso   1.00
C298   C     0.44671   0.64818   0.28598   0.00000  Uiso   1.00
C299   C     0.44375   0.61554   0.18164   0.00000  Uiso   1.00
H300   H     0.27903   0.54670   0.38523   0.00000  Uiso   1.00
H301   H     0.21169   0.66363   0.41610   0.00000  Uiso   1.00
H302   H     0.29324   0.44189   0.53836   0.00000  Uiso   1.00
H303   H     0.31952   0.52198   0.19189   0.00000  Uiso   1.00
H304   H     0.15698   0.81305   0.46514   0.00000  Uiso   1.00
H305   H     0.32894   0.34550   0.72291   0.00000  Uiso   1.00
H306   H     0.38436   0.51437   0.99230   0.00000  Uiso   1.00
H307   H     0.43280   0.69927   0.49902   0.00000  Uiso   1.00
H308   H     0.37390   0.82458   0.53613   0.00000  Uiso   1.00
H309   H     0.45545   0.60284   0.65840   0.00000  Uiso   1.00
H310   H     0.48172   0.68292   0.31192   0.00000  Uiso   1.00
H311   H     0.28864   0.94368   0.56256   0.00000  Uiso   1.00
H312   H     0.46060   0.47613   0.82033   0.00000  Uiso   1.00
H313   H     0.51601   0.64500   0.08973   0.00000  Uiso   1.00
O314   O     0.18128   0.95804   0.53625   0.00000  Uiso   1.00
O315   O     0.40690   0.34462   0.87442   0.00000  Uiso   1.00
O316   O     0.47959   0.56618   0.91588   0.00000  Uiso   1.00
N317   N     0.19605   0.82661   0.48295   0.00000  Uiso   1.00
N318   N     0.35682   0.38948   0.72397   0.00000  Uiso   1.00
N319   N     0.40863   0.54734   0.04092   0.00000  Uiso   1.00
N320   N     0.26690   0.89690   0.53537   0.00000  Uiso   1.00
N321   N     0.42766   0.45977   0.77639   0.00000  Uiso   1.00
N322   N     0.47948   0.61763   0.09334   0.00000  Uiso   1.00
C323   C     0.18574   0.41834   0.41129   0.00000  Uiso   1.00
C324   C     0.20100   0.33365   0.44384   0.00000  Uiso   1.00
C325   C     0.25330   0.30161   0.44201   0.00000  Uiso   1.00
C326   C     0.25875   0.22297   0.47490   0.00000  Uiso   1.00
C327   C     0.28934   0.09832   0.52039   0.00000  Uiso   1.00
C328   C     0.15670   0.45412   0.51028   0.00000  Uiso   1.00
C329   C     0.17174   0.52337   0.56430   0.00000  Uiso   1.00
C330   C     0.13990   0.54615   0.65311   0.00000  Uiso   1.00
C331   C     0.10168   0.60856   0.80170   0.00000  Uiso   1.00
C332   C     0.14243   0.41061   0.32203   0.00000  Uiso   1.00
C333   C     0.14546   0.44328   0.21777   0.00000  Uiso   1.00
C334   C     0.10159   0.42944   0.14810   0.00000  Uiso   1.00
C335   C     0.04121   0.42428   0.00440   0.00000  Uiso   1.00
C336   C     0.10243   0.33568   0.47294   0.00000  Uiso   1.00
C337   C     0.15575   0.28876   0.47733   0.00000  Uiso   1.00
C338   C     0.16113   0.21015   0.51022   0.00000  Uiso   1.00
C339   C     0.21342   0.17799   0.50844   0.00000  Uiso   1.00
C340   C     0.11145   0.40923   0.54377   0.00000  Uiso   1.00
C341   C     0.07957   0.43192   0.63251   0.00000  Uiso   1.00
C342   C     0.09456   0.50118   0.68666   0.00000  Uiso   1.00
C343   C     0.09718   0.36571   0.35551   0.00000  Uiso   1.00
C344   C     0.05329   0.35182   0.28598   0.00000  Uiso   1.00
C345   C     0.05625   0.38446   0.18164   0.00000  Uiso   1.00
H346   H     0.22097   0.45330   0.38523   0.00000  Uiso   1.00
H347   H     0.28831   0.33637   0.41610   0.00000  Uiso   1.00
H348   H     0.20676   0.55811   0.53836   0.00000  Uiso   1.00
H349   H     0.18048   0.47802   0.19189   0.00000  Uiso   1.00
H350   H     0.34302   0.18695   0.46514   0.00000  Uiso   1.00
H351   H     0.17106   0.65450   0.72291   0.00000  Uiso   1.00
H352   H     0.11564   0.48563   0.99230   0.00000  Uiso   1.00
H353   H     0.06720   0.30073   0.49902   0.00000  Uiso   1.00
H354   H     0.12610   0.17542   0.53613   0.00000  Uiso   1.00
H355   H     0.04455   0.39716   0.65840   0.00000  Uiso   1.00
H356   H     0.01828   0.31708   0.31192   0.00000  Uiso   1.00
H357   H     0.21136   0.05632   0.56256   0.00000  Uiso   1.00
H358   H     0.03940   0.52387   0.82033   0.00000  Uiso   1.00
H359   H     0.98399   0.35500   0.08973   0.00000  Uiso   1.00
O360   O     0.31872   0.04196   0.53625   0.00000  Uiso   1.00
O361   O     0.09310   0.65538   0.87442   0.00000  Uiso   1.00
O362   O     0.02041   0.43382   0.91588   0.00000  Uiso   1.00
N363   N     0.30395   0.17339   0.48295   0.00000  Uiso   1.00
N364   N     0.14318   0.61052   0.72397   0.00000  Uiso   1.00
N365   N     0.09137   0.45266   0.04092   0.00000  Uiso   1.00
N366   N     0.23310   0.10310   0.53537   0.00000  Uiso   1.00
N367   N     0.07234   0.54023   0.77639   0.00000  Uiso   1.00
N368   N     0.02052   0.38237   0.09334   0.00000  Uiso   1.00
