data_job_02486
_audit_creation_date              2018-12-19
_audit_creation_method            'Materials Studio'
_symmetry_space_group_name_H-M    'P1'
_symmetry_Int_Tables_number       1
_symmetry_cell_setting            triclinic
loop_
_symmetry_equiv_pos_as_xyz
  x,y,z
_cell_length_a                    37.9907
_cell_length_b                    7.6029
_cell_length_c                    23.6550
_cell_angle_alpha                 90.0000
_cell_angle_beta                  35.8221
_cell_angle_gamma                 90.0000
loop_
_atom_site_label
_atom_site_type_symbol
_atom_site_fract_x
_atom_site_fract_y
_atom_site_fract_z
_atom_site_U_iso_or_equiv
_atom_site_adp_type
_atom_site_occupancy
C1     C     0.68260   0.71734   0.47056   0.00000  Uiso   1.00
C2     C     0.65984   0.56719   0.53720   0.00000  Uiso   1.00
C3     C     0.63307   0.58517   0.62474   0.00000  Uiso   1.00
C4     C     0.61536   0.43173   0.67493   0.00000  Uiso   1.00
C5     C     0.57872   0.22374   0.78387   0.00000  Uiso   1.00
C6     C     0.74869   0.67789   0.37285   0.00000  Uiso   1.00
C7     C     0.79662   0.78896   0.32220   0.00000  Uiso   1.00
C8     C     0.85369   0.72871   0.23403   0.00000  Uiso   1.00
C9     C     0.95499   0.69264   0.08778   0.00000  Uiso   1.00
C10    C     0.65033   0.69827   0.45603   0.00000  Uiso   1.00
C11    C     0.61557   0.82650   0.47530   0.00000  Uiso   1.00
C12    C     0.58985   0.78342   0.45713   0.00000  Uiso   1.00
C13    C     0.53842   0.77899   0.44004   0.00000  Uiso   1.00
C14    C     0.69875   0.41285   0.40401   0.00000  Uiso   1.00
C15    C     0.66862   0.40181   0.50105   0.00000  Uiso   1.00
C16    C     0.65094   0.24829   0.55111   0.00000  Uiso   1.00
C17    C     0.62414   0.26604   0.63872   0.00000  Uiso   1.00
C18    C     0.75746   0.51251   0.33670   0.00000  Uiso   1.00
C19    C     0.81448   0.45208   0.24857   0.00000  Uiso   1.00
C20    C     0.86248   0.56303   0.19781   0.00000  Uiso   1.00
C21    C     0.65910   0.53289   0.41988   0.00000  Uiso   1.00
C22    C     0.63343   0.48961   0.40168   0.00000  Uiso   1.00
C23    C     0.59863   0.61774   0.42092   0.00000  Uiso   1.00
H24    H     0.67577   0.84610   0.49870   0.00000  Uiso   1.00
H25    H     0.62630   0.71319   0.65269   0.00000  Uiso   1.00
H26    H     0.78982   0.91695   0.35019   0.00000  Uiso   1.00
H27    H     0.60879   0.95447   0.50327   0.00000  Uiso   1.00
H28    H     0.57534   0.49288   0.80745   0.00000  Uiso   1.00
H29    H     0.92011   0.92255   0.16961   0.00000  Uiso   1.00
H30    H     0.53840   0.00168   0.49240   0.00000  Uiso   1.00
H31    H     0.70558   0.28409   0.37587   0.00000  Uiso   1.00
H32    H     0.65773   0.12033   0.52312   0.00000  Uiso   1.00
H33    H     0.82125   0.32409   0.22062   0.00000  Uiso   1.00
H34    H     0.64023   0.36161   0.37370   0.00000  Uiso   1.00
H35    H     0.60085   0.01170   0.70229   0.00000  Uiso   1.00
H36    H     0.94563   0.44138   0.06444   0.00000  Uiso   1.00
H37    H     0.56391   0.52049   0.38724   0.00000  Uiso   1.00
O38    O     0.55610   0.15470   0.85394   0.00000  Uiso   1.00
O39    O     0.00844   0.71843   0.01710   0.00000  Uiso   1.00
O40    O     0.50763   0.82223   0.44061   0.00000  Uiso   1.00
N41    N     0.58789   0.40211   0.76251   0.00000  Uiso   1.00
N42    N     0.91024   0.80382   0.16616   0.00000  Uiso   1.00
N43    N     0.55338   0.87781   0.46793   0.00000  Uiso   1.00
N44    N     0.60162   0.14319   0.70592   0.00000  Uiso   1.00
N45    N     0.92397   0.54490   0.10958   0.00000  Uiso   1.00
N46    N     0.56711   0.61889   0.41134   0.00000  Uiso   1.00
C47    C     0.31740   0.21734   0.02944   0.00000  Uiso   1.00
C48    C     0.34016   0.06719   0.96280   0.00000  Uiso   1.00
C49    C     0.36693   0.08517   0.87526   0.00000  Uiso   1.00
C50    C     0.38464   0.93173   0.82507   0.00000  Uiso   1.00
C51    C     0.42128   0.72374   0.71613   0.00000  Uiso   1.00
C52    C     0.25131   0.17789   0.12715   0.00000  Uiso   1.00
C53    C     0.20338   0.28896   0.17780   0.00000  Uiso   1.00
C54    C     0.14631   0.22871   0.26597   0.00000  Uiso   1.00
C55    C     0.04501   0.19264   0.41222   0.00000  Uiso   1.00
C56    C     0.34967   0.19827   0.04397   0.00000  Uiso   1.00
C57    C     0.38443   0.32650   0.02470   0.00000  Uiso   1.00
C58    C     0.41015   0.28342   0.04287   0.00000  Uiso   1.00
C59    C     0.46158   0.27899   0.05996   0.00000  Uiso   1.00
C60    C     0.30125   0.91285   0.09599   0.00000  Uiso   1.00
C61    C     0.33138   0.90181   0.99895   0.00000  Uiso   1.00
C62    C     0.34906   0.74829   0.94889   0.00000  Uiso   1.00
C63    C     0.37586   0.76604   0.86128   0.00000  Uiso   1.00
C64    C     0.24254   0.01251   0.16330   0.00000  Uiso   1.00
C65    C     0.18552   0.95208   0.25143   0.00000  Uiso   1.00
C66    C     0.13752   0.06303   0.30219   0.00000  Uiso   1.00
C67    C     0.34090   0.03289   0.08012   0.00000  Uiso   1.00
C68    C     0.36657   0.98961   0.09832   0.00000  Uiso   1.00
C69    C     0.40137   0.11774   0.07908   0.00000  Uiso   1.00
H70    H     0.32423   0.34610   0.00130   0.00000  Uiso   1.00
H71    H     0.37370   0.21319   0.84731   0.00000  Uiso   1.00
H72    H     0.21018   0.41695   0.14981   0.00000  Uiso   1.00
H73    H     0.39121   0.45447   0.99673   0.00000  Uiso   1.00
H74    H     0.42466   0.99288   0.69255   0.00000  Uiso   1.00
H75    H     0.07989   0.42255   0.33039   0.00000  Uiso   1.00
H76    H     0.46160   0.50168   0.00760   0.00000  Uiso   1.00
H77    H     0.29442   0.78409   0.12413   0.00000  Uiso   1.00
H78    H     0.34227   0.62033   0.97688   0.00000  Uiso   1.00
H79    H     0.17875   0.82409   0.27938   0.00000  Uiso   1.00
H80    H     0.35977   0.86161   0.12630   0.00000  Uiso   1.00
H81    H     0.39915   0.51170   0.79771   0.00000  Uiso   1.00
H82    H     0.05437   0.94138   0.43556   0.00000  Uiso   1.00
H83    H     0.43609   0.02049   0.11276   0.00000  Uiso   1.00
O84    O     0.44390   0.65470   0.64606   0.00000  Uiso   1.00
O85    O     0.99156   0.21843   0.48290   0.00000  Uiso   1.00
O86    O     0.49237   0.32223   0.05939   0.00000  Uiso   1.00
N87    N     0.41211   0.90211   0.73749   0.00000  Uiso   1.00
N88    N     0.08976   0.30382   0.33384   0.00000  Uiso   1.00
N89    N     0.44662   0.37781   0.03207   0.00000  Uiso   1.00
N90    N     0.39838   0.64319   0.79408   0.00000  Uiso   1.00
N91    N     0.07603   0.04490   0.39042   0.00000  Uiso   1.00
N92    N     0.43289   0.11889   0.08866   0.00000  Uiso   1.00
C93    C     0.31740   0.28266   0.52944   0.00000  Uiso   1.00
C94    C     0.34016   0.43281   0.46280   0.00000  Uiso   1.00
C95    C     0.36693   0.41483   0.37526   0.00000  Uiso   1.00
C96    C     0.38464   0.56827   0.32507   0.00000  Uiso   1.00
C97    C     0.42128   0.77626   0.21613   0.00000  Uiso   1.00
C98    C     0.25131   0.32211   0.62715   0.00000  Uiso   1.00
C99    C     0.20338   0.21104   0.67780   0.00000  Uiso   1.00
C100   C     0.14631   0.27129   0.76597   0.00000  Uiso   1.00
C101   C     0.04501   0.30736   0.91222   0.00000  Uiso   1.00
C102   C     0.34967   0.30173   0.54397   0.00000  Uiso   1.00
C103   C     0.38443   0.17350   0.52470   0.00000  Uiso   1.00
C104   C     0.41015   0.21658   0.54287   0.00000  Uiso   1.00
C105   C     0.46158   0.22101   0.55996   0.00000  Uiso   1.00
C106   C     0.30125   0.58715   0.59599   0.00000  Uiso   1.00
C107   C     0.33138   0.59819   0.49895   0.00000  Uiso   1.00
C108   C     0.34906   0.75171   0.44889   0.00000  Uiso   1.00
C109   C     0.37586   0.73396   0.36128   0.00000  Uiso   1.00
C110   C     0.24254   0.48749   0.66330   0.00000  Uiso   1.00
C111   C     0.18552   0.54792   0.75143   0.00000  Uiso   1.00
C112   C     0.13752   0.43697   0.80219   0.00000  Uiso   1.00
C113   C     0.34090   0.46711   0.58012   0.00000  Uiso   1.00
C114   C     0.36657   0.51039   0.59832   0.00000  Uiso   1.00
C115   C     0.40137   0.38226   0.57908   0.00000  Uiso   1.00
H116   H     0.32423   0.15390   0.50130   0.00000  Uiso   1.00
H117   H     0.37370   0.28681   0.34731   0.00000  Uiso   1.00
H118   H     0.21018   0.08305   0.64981   0.00000  Uiso   1.00
H119   H     0.39121   0.04553   0.49673   0.00000  Uiso   1.00
H120   H     0.42466   0.50712   0.19255   0.00000  Uiso   1.00
H121   H     0.07989   0.07745   0.83039   0.00000  Uiso   1.00
H122   H     0.46160   0.99832   0.50760   0.00000  Uiso   1.00
H123   H     0.29442   0.71591   0.62413   0.00000  Uiso   1.00
H124   H     0.34227   0.87967   0.47688   0.00000  Uiso   1.00
H125   H     0.17875   0.67591   0.77938   0.00000  Uiso   1.00
H126   H     0.35977   0.63839   0.62630   0.00000  Uiso   1.00
H127   H     0.39915   0.98830   0.29771   0.00000  Uiso   1.00
H128   H     0.05437   0.55862   0.93556   0.00000  Uiso   1.00
H129   H     0.43609   0.47951   0.61276   0.00000  Uiso   1.00
O130   O     0.44390   0.84530   0.14606   0.00000  Uiso   1.00
O131   O     0.99156   0.28157   0.98290   0.00000  Uiso   1.00
O132   O     0.49237   0.17777   0.55939   0.00000  Uiso   1.00
N133   N     0.41211   0.59789   0.23749   0.00000  Uiso   1.00
N134   N     0.08976   0.19618   0.83384   0.00000  Uiso   1.00
N135   N     0.44662   0.12219   0.53207   0.00000  Uiso   1.00
N136   N     0.39838   0.85681   0.29408   0.00000  Uiso   1.00
N137   N     0.07603   0.45510   0.89042   0.00000  Uiso   1.00
N138   N     0.43289   0.38111   0.58866   0.00000  Uiso   1.00
C139   C     0.68260   0.78266   0.97056   0.00000  Uiso   1.00
C140   C     0.65984   0.93281   0.03720   0.00000  Uiso   1.00
C141   C     0.63307   0.91483   0.12474   0.00000  Uiso   1.00
C142   C     0.61536   0.06827   0.17493   0.00000  Uiso   1.00
C143   C     0.57872   0.27626   0.28387   0.00000  Uiso   1.00
C144   C     0.74869   0.82211   0.87285   0.00000  Uiso   1.00
C145   C     0.79662   0.71104   0.82220   0.00000  Uiso   1.00
C146   C     0.85369   0.77129   0.73403   0.00000  Uiso   1.00
C147   C     0.95499   0.80736   0.58778   0.00000  Uiso   1.00
C148   C     0.65033   0.80173   0.95603   0.00000  Uiso   1.00
C149   C     0.61557   0.67350   0.97530   0.00000  Uiso   1.00
C150   C     0.58985   0.71658   0.95713   0.00000  Uiso   1.00
C151   C     0.53842   0.72101   0.94004   0.00000  Uiso   1.00
C152   C     0.69875   0.08715   0.90401   0.00000  Uiso   1.00
C153   C     0.66862   0.09819   0.00105   0.00000  Uiso   1.00
C154   C     0.65094   0.25171   0.05111   0.00000  Uiso   1.00
C155   C     0.62414   0.23396   0.13872   0.00000  Uiso   1.00
C156   C     0.75746   0.98749   0.83670   0.00000  Uiso   1.00
C157   C     0.81448   0.04792   0.74857   0.00000  Uiso   1.00
C158   C     0.86248   0.93697   0.69781   0.00000  Uiso   1.00
C159   C     0.65910   0.96711   0.91988   0.00000  Uiso   1.00
C160   C     0.63343   0.01039   0.90168   0.00000  Uiso   1.00
C161   C     0.59863   0.88226   0.92092   0.00000  Uiso   1.00
H162   H     0.67577   0.65390   0.99870   0.00000  Uiso   1.00
H163   H     0.62630   0.78681   0.15269   0.00000  Uiso   1.00
H164   H     0.78982   0.58305   0.85019   0.00000  Uiso   1.00
H165   H     0.60879   0.54553   0.00327   0.00000  Uiso   1.00
H166   H     0.57534   0.00712   0.30745   0.00000  Uiso   1.00
H167   H     0.92011   0.57745   0.66961   0.00000  Uiso   1.00
H168   H     0.53840   0.49832   0.99240   0.00000  Uiso   1.00
H169   H     0.70558   0.21591   0.87587   0.00000  Uiso   1.00
H170   H     0.65773   0.37967   0.02312   0.00000  Uiso   1.00
H171   H     0.82125   0.17591   0.72062   0.00000  Uiso   1.00
H172   H     0.64023   0.13839   0.87370   0.00000  Uiso   1.00
H173   H     0.60085   0.48830   0.20229   0.00000  Uiso   1.00
H174   H     0.94563   0.05862   0.56444   0.00000  Uiso   1.00
H175   H     0.56391   0.97951   0.88724   0.00000  Uiso   1.00
O176   O     0.55610   0.34530   0.35394   0.00000  Uiso   1.00
O177   O     0.00844   0.78157   0.51710   0.00000  Uiso   1.00
O178   O     0.50763   0.67777   0.94061   0.00000  Uiso   1.00
N179   N     0.58789   0.09789   0.26251   0.00000  Uiso   1.00
N180   N     0.91024   0.69618   0.66616   0.00000  Uiso   1.00
N181   N     0.55338   0.62219   0.96793   0.00000  Uiso   1.00
N182   N     0.60162   0.35681   0.20592   0.00000  Uiso   1.00
N183   N     0.92397   0.95510   0.60958   0.00000  Uiso   1.00
N184   N     0.56711   0.88111   0.91134   0.00000  Uiso   1.00
