data_job_06550
_audit_creation_date              2018-12-19
_audit_creation_method            'Materials Studio'
_symmetry_space_group_name_H-M    'P1'
_symmetry_Int_Tables_number       1
_symmetry_cell_setting            triclinic
loop_
_symmetry_equiv_pos_as_xyz
  x,y,z
_cell_length_a                    18.9734
_cell_length_b                    23.1695
_cell_length_c                    21.6980
_cell_angle_alpha                 110.6240
_cell_angle_beta                  74.2144
_cell_angle_gamma                 101.5070
loop_
_atom_site_label
_atom_site_type_symbol
_atom_site_fract_x
_atom_site_fract_y
_atom_site_fract_z
_atom_site_U_iso_or_equiv
_atom_site_adp_type
_atom_site_occupancy
C1     C     0.13907   0.77656   0.09278   0.00000  Uiso   1.00
C2     C     0.12717   0.80919   0.16872   0.00000  Uiso   1.00
C3     C     0.17990   0.84833   0.20238   0.00000  Uiso   1.00
C4     C     0.15812   0.87359   0.27197   0.00000  Uiso   1.00
C5     C     0.15059   0.92627   0.38462   0.00000  Uiso   1.00
C6     C     0.11817   0.70747   0.08368   0.00000  Uiso   1.00
C7     C     0.16332   0.66109   0.04584   0.00000  Uiso   1.00
C8     C     0.13396   0.60072   0.04384   0.00000  Uiso   1.00
C9     C     0.11243   0.49548   0.02442   0.00000  Uiso   1.00
C10    C     0.08112   0.79607   0.06961   0.00000  Uiso   1.00
C11    C     0.09513   0.82417   0.01993   0.00000  Uiso   1.00
C12    C     0.03457   0.83839   0.00607   0.00000  Uiso   1.00
C13    C     0.95553   0.87071   0.96481   0.00000  Uiso   1.00
C14    C     0.00663   0.75183   0.15649   0.00000  Uiso   1.00
C15    C     0.05523   0.79575   0.20332   0.00000  Uiso   1.00
C16    C     0.03337   0.82097   0.27288   0.00000  Uiso   1.00
C17    C     0.08605   0.86014   0.30664   0.00000  Uiso   1.00
C18    C     0.04623   0.69404   0.11828   0.00000  Uiso   1.00
C19    C     0.01679   0.63373   0.11633   0.00000  Uiso   1.00
C20    C     0.06189   0.58727   0.07850   0.00000  Uiso   1.00
C21    C     0.00918   0.78264   0.10422   0.00000  Uiso   1.00
C22    C     0.94859   0.79681   0.09042   0.00000  Uiso   1.00
C23    C     0.96250   0.82493   0.04073   0.00000  Uiso   1.00
H24    H     0.19508   0.78701   0.06584   0.00000  Uiso   1.00
H25    H     0.23557   0.85870   0.17558   0.00000  Uiso   1.00
H26    H     0.21899   0.67149   0.01906   0.00000  Uiso   1.00
H27    H     0.15080   0.83455   0.99316   0.00000  Uiso   1.00
H28    H     0.24874   0.93225   0.31252   0.00000  Uiso   1.00
H29    H     0.21377   0.53750   0.98247   0.00000  Uiso   1.00
H30    H     0.06999   0.88134   0.92784   0.00000  Uiso   1.00
H31    H     0.95062   0.74137   0.18344   0.00000  Uiso   1.00
H32    H     0.97769   0.81057   0.29964   0.00000  Uiso   1.00
H33    H     0.96112   0.62335   0.14312   0.00000  Uiso   1.00
H34    H     0.89293   0.78641   0.11721   0.00000  Uiso   1.00
H35    H     0.03944   0.89317   0.41322   0.00000  Uiso   1.00
H36    H     0.00448   0.49842   0.08315   0.00000  Uiso   1.00
H37    H     0.86069   0.84227   0.02853   0.00000  Uiso   1.00
O38    O     0.16632   0.95903   0.43719   0.00000  Uiso   1.00
O39    O     0.12044   0.44114   0.00416   0.00000  Uiso   1.00
O40    O     0.93180   0.89226   0.93250   0.00000  Uiso   1.00
N41    N     0.19576   0.91357   0.32027   0.00000  Uiso   1.00
N42    N     0.16308   0.54450   0.01170   0.00000  Uiso   1.00
N43    N     0.02865   0.86595   0.96061   0.00000  Uiso   1.00
N44    N     0.08314   0.89254   0.37445   0.00000  Uiso   1.00
N45    N     0.05045   0.52348   0.06588   0.00000  Uiso   1.00
N46    N     0.91603   0.84492   0.01480   0.00000  Uiso   1.00
C47    C     0.06818   0.92652   0.80828   0.00000  Uiso   1.00
C48    C     0.12997   0.95826   0.84563   0.00000  Uiso   1.00
C49    C     0.12071   0.99297   0.91347   0.00000  Uiso   1.00
C50    C     0.18421   0.01820   0.93808   0.00000  Uiso   1.00
C51    C     0.26948   0.06891   0.00243   0.00000  Uiso   1.00
C52    C     0.08293   0.95157   0.74916   0.00000  Uiso   1.00
C53    C     0.03411   0.98065   0.73588   0.00000  Uiso   1.00
C54    C     0.05801   0.00024   0.67927   0.00000  Uiso   1.00
C55    C     0.07023   0.04053   0.59381   0.00000  Uiso   1.00
C56    C     0.08019   0.85812   0.77734   0.00000  Uiso   1.00
C57    C     0.02907   0.80863   0.78774   0.00000  Uiso   1.00
C58    C     0.05066   0.74954   0.75485   0.00000  Uiso   1.00
C59    C     0.05864   0.64474   0.71314   0.00000  Uiso   1.00
C60    C     0.19741   0.90958   0.73137   0.00000  Uiso   1.00
C61    C     0.20017   0.94906   0.80385   0.00000  Uiso   1.00
C62    C     0.26370   0.97424   0.82837   0.00000  Uiso   1.00
C63    C     0.25453   0.00899   0.89623   0.00000  Uiso   1.00
C64    C     0.15312   0.94237   0.70738   0.00000  Uiso   1.00
C65    C     0.17709   0.96192   0.65078   0.00000  Uiso   1.00
C66    C     0.12833   0.99103   0.63742   0.00000  Uiso   1.00
C67    C     0.15039   0.84892   0.73556   0.00000  Uiso   1.00
C68    C     0.17206   0.78990   0.70264   0.00000  Uiso   1.00
C69    C     0.12098   0.74033   0.71299   0.00000  Uiso   1.00
H70    H     0.01353   0.93368   0.84080   0.00000  Uiso   1.00
H71    H     0.06638   0.00008   0.94578   0.00000  Uiso   1.00
H72    H     0.97979   0.98776   0.76821   0.00000  Uiso   1.00
H73    H     0.97476   0.81576   0.82007   0.00000  Uiso   1.00
H74    H     0.15593   0.06967   0.04374   0.00000  Uiso   1.00
H75    H     0.97335   0.04367   0.66931   0.00000  Uiso   1.00
H76    H     0.96273   0.68098   0.77866   0.00000  Uiso   1.00
H77    H     0.25206   0.90242   0.69884   0.00000  Uiso   1.00
H78    H     0.31801   0.96712   0.79603   0.00000  Uiso   1.00
H79    H     0.23142   0.95479   0.61846   0.00000  Uiso   1.00
H80    H     0.22638   0.78280   0.67032   0.00000  Uiso   1.00
H81    H     0.36017   0.04292   0.92220   0.00000  Uiso   1.00
H82    H     0.17758   0.01691   0.54777   0.00000  Uiso   1.00
H83    H     0.16696   0.65422   0.65712   0.00000  Uiso   1.00
O84    O     0.29713   0.09943   0.04946   0.00000  Uiso   1.00
O85    O     0.05757   0.06530   0.55822   0.00000  Uiso   1.00
O86    O     0.04365   0.58947   0.70169   0.00000  Uiso   1.00
N87    N     0.19495   0.05449   0.00180   0.00000  Uiso   1.00
N88    N     0.02425   0.03018   0.65174   0.00000  Uiso   1.00
N89    N     0.01431   0.69110   0.75396   0.00000  Uiso   1.00
N90    N     0.30485   0.04009   0.93640   0.00000  Uiso   1.00
N91    N     0.13414   0.01579   0.58634   0.00000  Uiso   1.00
N92    N     0.12421   0.67670   0.68856   0.00000  Uiso   1.00
C93    C     0.67769   0.18461   0.16675   0.00000  Uiso   1.00
C94    C     0.71795   0.24728   0.16184   0.00000  Uiso   1.00
C95    C     0.79366   0.26087   0.14212   0.00000  Uiso   1.00
C96    C     0.81971   0.32096   0.14092   0.00000  Uiso   1.00
C97    C     0.88952   0.41146   0.13060   0.00000  Uiso   1.00
C98    C     0.63248   0.19697   0.23900   0.00000  Uiso   1.00
C99    C     0.63633   0.16824   0.28416   0.00000  Uiso   1.00
C100   C     0.59042   0.18597   0.34790   0.00000  Uiso   1.00
C101   C     0.52750   0.19832   0.45736   0.00000  Uiso   1.00
C102   C     0.62207   0.16617   0.12198   0.00000  Uiso   1.00
C103   C     0.61716   0.11154   0.06876   0.00000  Uiso   1.00
C104   C     0.56247   0.10334   0.03399   0.00000  Uiso   1.00
C105   C     0.48340   0.06787   0.96177   0.00000  Uiso   1.00
C106   C     0.58930   0.26717   0.19966   0.00000  Uiso   1.00
C107   C     0.66993   0.29212   0.17971   0.00000  Uiso   1.00
C108   C     0.69587   0.35221   0.17854   0.00000  Uiso   1.00
C109   C     0.77161   0.36589   0.15883   0.00000  Uiso   1.00
C110   C     0.58447   0.24181   0.25687   0.00000  Uiso   1.00
C111   C     0.53854   0.25958   0.32057   0.00000  Uiso   1.00
C112   C     0.54232   0.23090   0.36581   0.00000  Uiso   1.00
C113   C     0.57406   0.21101   0.13985   0.00000  Uiso   1.00
C114   C     0.51937   0.20289   0.10517   0.00000  Uiso   1.00
C115   C     0.51437   0.14826   0.05190   0.00000  Uiso   1.00
H116   H     0.71507   0.14970   0.15284   0.00000  Uiso   1.00
H117   H     0.83080   0.22615   0.12830   0.00000  Uiso   1.00
H118   H     0.67348   0.13353   0.27030   0.00000  Uiso   1.00
H119   H     0.65432   0.07685   0.05494   0.00000  Uiso   1.00
H120   H     0.93794   0.33070   0.10900   0.00000  Uiso   1.00
H121   H     0.60621   0.13539   0.40842   0.00000  Uiso   1.00
H122   H     0.56580   0.01586   0.95428   0.00000  Uiso   1.00
H123   H     0.55192   0.30209   0.21358   0.00000  Uiso   1.00
H124   H     0.65870   0.38691   0.19237   0.00000  Uiso   1.00
H125   H     0.50139   0.29429   0.33438   0.00000  Uiso   1.00
H126   H     0.48222   0.23760   0.11902   0.00000  Uiso   1.00
H127   H     0.79826   0.46118   0.16101   0.00000  Uiso   1.00
H128   H     0.46653   0.26587   0.46043   0.00000  Uiso   1.00
H129   H     0.42612   0.14633   0.00629   0.00000  Uiso   1.00
O130   O     0.94129   0.44899   0.11998   0.00000  Uiso   1.00
O131   O     0.50607   0.19275   0.51280   0.00000  Uiso   1.00
O132   O     0.45305   0.03592   0.91698   0.00000  Uiso   1.00
N133   N     0.89041   0.34976   0.12414   0.00000  Uiso   1.00
N134   N     0.58028   0.16717   0.40408   0.00000  Uiso   1.00
N135   N     0.54248   0.05541   0.97951   0.00000  Uiso   1.00
N136   N     0.81525   0.41997   0.15212   0.00000  Uiso   1.00
N137   N     0.50512   0.23738   0.43207   0.00000  Uiso   1.00
N138   N     0.46732   0.12561   0.00750   0.00000  Uiso   1.00
C139   C     0.61140   0.74919   0.17457   0.00000  Uiso   1.00
C140   C     0.60858   0.81830   0.21243   0.00000  Uiso   1.00
C141   C     0.62225   0.84890   0.27641   0.00000  Uiso   1.00
C142   C     0.61689   0.91224   0.30225   0.00000  Uiso   1.00
C143   C     0.61534   0.01476   0.36663   0.00000  Uiso   1.00
C144   C     0.66632   0.74484   0.10754   0.00000  Uiso   1.00
C145   C     0.72852   0.71366   0.08332   0.00000  Uiso   1.00
C146   C     0.77175   0.71515   0.02086   0.00000  Uiso   1.00
C147   C     0.85981   0.70358   0.92237   0.00000  Uiso   1.00
C148   C     0.53613   0.72424   0.15724   0.00000  Uiso   1.00
C149   C     0.48887   0.67572   0.17478   0.00000  Uiso   1.00
C150   C     0.42249   0.65987   0.15414   0.00000  Uiso   1.00
C151   C     0.30841   0.61631   0.13281   0.00000  Uiso   1.00
C152   C     0.57757   0.80728   0.10671   0.00000  Uiso   1.00
C153   C     0.59021   0.84985   0.17557   0.00000  Uiso   1.00
C154   C     0.58482   0.91317   0.20132   0.00000  Uiso   1.00
C155   C     0.59847   0.94385   0.26533   0.00000  Uiso   1.00
C156   C     0.64795   0.77639   0.07068   0.00000  Uiso   1.00
C157   C     0.69109   0.77793   0.00823   0.00000  Uiso   1.00
C158   C     0.75334   0.74677   0.98393   0.00000  Uiso   1.00
C159   C     0.51775   0.75579   0.12037   0.00000  Uiso   1.00
C160   C     0.45144   0.74000   0.09970   0.00000  Uiso   1.00
C161   C     0.40409   0.69148   0.11721   0.00000  Uiso   1.00
H162   H     0.62571   0.72462   0.20327   0.00000  Uiso   1.00
H163   H     0.63648   0.82446   0.30492   0.00000  Uiso   1.00
H164   H     0.74272   0.68924   0.11186   0.00000  Uiso   1.00
H165   H     0.50311   0.65132   0.20331   0.00000  Uiso   1.00
H166   H     0.64033   0.94907   0.40135   0.00000  Uiso   1.00
H167   H     0.86434   0.66393   0.99426   0.00000  Uiso   1.00
H168   H     0.35907   0.58396   0.18710   0.00000  Uiso   1.00
H169   H     0.56327   0.83185   0.07800   0.00000  Uiso   1.00
H170   H     0.57060   0.93758   0.17278   0.00000  Uiso   1.00
H171   H     0.67685   0.80235   0.97972   0.00000  Uiso   1.00
H172   H     0.43724   0.76443   0.07117   0.00000  Uiso   1.00
H173   H     0.58687   0.04088   0.29410   0.00000  Uiso   1.00
H174   H     0.81088   0.75573   0.88701   0.00000  Uiso   1.00
H175   H     0.30561   0.67577   0.07985   0.00000  Uiso   1.00
O176   O     0.61958   0.06259   0.41232   0.00000  Uiso   1.00
O177   O     0.91346   0.68849   0.87823   0.00000  Uiso   1.00
O178   O     0.25056   0.58358   0.13123   0.00000  Uiso   1.00
N179   N     0.62673   0.95617   0.36311   0.00000  Uiso   1.00
N180   N     0.83617   0.68958   0.98251   0.00000  Uiso   1.00
N181   N     0.36379   0.61481   0.16278   0.00000  Uiso   1.00
N182   N     0.59796   0.00557   0.30540   0.00000  Uiso   1.00
N183   N     0.80740   0.73899   0.92480   0.00000  Uiso   1.00
N184   N     0.33503   0.66421   0.10507   0.00000  Uiso   1.00
C185   C     0.70261   0.25439   0.67408   0.00000  Uiso   1.00
C186   C     0.78618   0.26402   0.66542   0.00000  Uiso   1.00
C187   C     0.82435   0.29874   0.71536   0.00000  Uiso   1.00
C188   C     0.90072   0.30185   0.69735   0.00000  Uiso   1.00
C189   C     0.02487   0.32142   0.69391   0.00000  Uiso   1.00
C190   C     0.68101   0.18434   0.65302   0.00000  Uiso   1.00
C191   C     0.63073   0.15206   0.69253   0.00000  Uiso   1.00
C192   C     0.61856   0.08809   0.66408   0.00000  Uiso   1.00
C193   C     0.57939   0.98395   0.64136   0.00000  Uiso   1.00
C194   C     0.68709   0.27629   0.62102   0.00000  Uiso   1.00
C195   C     0.64191   0.32131   0.63361   0.00000  Uiso   1.00
C196   C     0.63485   0.33475   0.57821   0.00000  Uiso   1.00
C197   C     0.60512   0.37338   0.50580   0.00000  Uiso   1.00
C198   C     0.77037   0.19818   0.55330   0.00000  Uiso   1.00
C199   C     0.82298   0.23349   0.59982   0.00000  Uiso   1.00
C200   C     0.89932   0.23654   0.58173   0.00000  Uiso   1.00
C201   C     0.93759   0.27126   0.63163   0.00000  Uiso   1.00
C202   C     0.71781   0.15380   0.58742   0.00000  Uiso   1.00
C203   C     0.70570   0.08986   0.55890   0.00000  Uiso   1.00
C204   C     0.65543   0.05750   0.59836   0.00000  Uiso   1.00
C205   C     0.72389   0.24576   0.55541   0.00000  Uiso   1.00
C206   C     0.71689   0.25912   0.49998   0.00000  Uiso   1.00
C207   C     0.67172   0.30416   0.51249   0.00000  Uiso   1.00
H208   H     0.67396   0.27816   0.72515   0.00000  Uiso   1.00
H209   H     0.79584   0.32236   0.76613   0.00000  Uiso   1.00
H210   H     0.60225   0.17570   0.74329   0.00000  Uiso   1.00
H211   H     0.61344   0.34493   0.68438   0.00000  Uiso   1.00
H212   H     0.94721   0.35787   0.78263   0.00000  Uiso   1.00
H213   H     0.53900   0.04865   0.73448   0.00000  Uiso   1.00
H214   H     0.56258   0.40550   0.61026   0.00000  Uiso   1.00
H215   H     0.79903   0.17440   0.50222   0.00000  Uiso   1.00
H216   H     0.92778   0.21291   0.53096   0.00000  Uiso   1.00
H217   H     0.73419   0.06625   0.50813   0.00000  Uiso   1.00
H218   H     0.74538   0.23548   0.44922   0.00000  Uiso   1.00
H219   H     0.05429   0.26904   0.59176   0.00000  Uiso   1.00
H220   H     0.64608   0.95981   0.54361   0.00000  Uiso   1.00
H221   H     0.66967   0.31666   0.41939   0.00000  Uiso   1.00
O222   O     0.08319   0.34064   0.71013   0.00000  Uiso   1.00
O223   O     0.54763   0.93495   0.64696   0.00000  Uiso   1.00
O224   O     0.57857   0.40313   0.48398   0.00000  Uiso   1.00
N225   N     0.95474   0.33169   0.73376   0.00000  Uiso   1.00
N226   N     0.57310   0.04258   0.68875   0.00000  Uiso   1.00
N227   N     0.59513   0.37620   0.57261   0.00000  Uiso   1.00
N228   N     0.01236   0.28389   0.63106   0.00000  Uiso   1.00
N229   N     0.63072   0.99478   0.58605   0.00000  Uiso   1.00
N230   N     0.65275   0.32840   0.46990   0.00000  Uiso   1.00
C231   C     0.38413   0.40522   0.70720   0.00000  Uiso   1.00
C232   C     0.37159   0.42108   0.78351   0.00000  Uiso   1.00
C233   C     0.42606   0.44218   0.82053   0.00000  Uiso   1.00
C234   C     0.40333   0.45410   0.88987   0.00000  Uiso   1.00
C235   C     0.39520   0.48012   0.00364   0.00000  Uiso   1.00
C236   C     0.33698   0.44506   0.69577   0.00000  Uiso   1.00
C237   C     0.36235   0.48632   0.65902   0.00000  Uiso   1.00
C238   C     0.31046   0.51841   0.65449   0.00000  Uiso   1.00
C239   C     0.24859   0.58163   0.63200   0.00000  Uiso   1.00
C240   C     0.34975   0.33829   0.68158   0.00000  Uiso   1.00
C241   C     0.38585   0.28978   0.63287   0.00000  Uiso   1.00
C242   C     0.34472   0.23198   0.61638   0.00000  Uiso   1.00
C243   C     0.30268   0.12942   0.57185   0.00000  Uiso   1.00
C244   C     0.24688   0.38885   0.76450   0.00000  Uiso   1.00
C245   C     0.29704   0.41219   0.81464   0.00000  Uiso   1.00
C246   C     0.27421   0.42407   0.88394   0.00000  Uiso   1.00
C247   C     0.32864   0.44519   0.92105   0.00000  Uiso   1.00
C248   C     0.26243   0.43617   0.72690   0.00000  Uiso   1.00
C249   C     0.21050   0.46821   0.72242   0.00000  Uiso   1.00
C250   C     0.23578   0.50951   0.68567   0.00000  Uiso   1.00
C251   C     0.27520   0.32940   0.71270   0.00000  Uiso   1.00
C252   C     0.23400   0.27167   0.69628   0.00000  Uiso   1.00
C253   C     0.27003   0.22307   0.64756   0.00000  Uiso   1.00
H254   H     0.44216   0.41214   0.68296   0.00000  Uiso   1.00
H255   H     0.48375   0.44907   0.79643   0.00000  Uiso   1.00
H256   H     0.42004   0.49319   0.63493   0.00000  Uiso   1.00
H257   H     0.44354   0.29668   0.60880   0.00000  Uiso   1.00
H258   H     0.49698   0.48610   0.93595   0.00000  Uiso   1.00
H259   H     0.36263   0.57912   0.59541   0.00000  Uiso   1.00
H260   H     0.41220   0.16474   0.54030   0.00000  Uiso   1.00
H261   H     0.18883   0.38193   0.78873   0.00000  Uiso   1.00
H262   H     0.21652   0.41719   0.90801   0.00000  Uiso   1.00
H263   H     0.15281   0.46132   0.74651   0.00000  Uiso   1.00
H264   H     0.17631   0.26481   0.72038   0.00000  Uiso   1.00
H265   H     0.28009   0.46024   0.02652   0.00000  Uiso   1.00
H266   H     0.14574   0.55325   0.68597   0.00000  Uiso   1.00
H267   H     0.19530   0.13887   0.63086   0.00000  Uiso   1.00
O268   O     0.41131   0.49693   0.05779   0.00000  Uiso   1.00
O269   O     0.23506   0.61896   0.61100   0.00000  Uiso   1.00
O270   O     0.30009   0.07530   0.53870   0.00000  Uiso   1.00
N271   N     0.44213   0.47516   0.94090   0.00000  Uiso   1.00
N272   N     0.31653   0.56214   0.62252   0.00000  Uiso   1.00
N273   N     0.36287   0.17473   0.57098   0.00000  Uiso   1.00
N274   N     0.32543   0.46124   0.98963   0.00000  Uiso   1.00
N275   N     0.19983   0.54822   0.67125   0.00000  Uiso   1.00
N276   N     0.24616   0.16081   0.61971   0.00000  Uiso   1.00
C277   C     0.86093   0.22344   0.90722   0.00000  Uiso   1.00
C278   C     0.87283   0.19081   0.83128   0.00000  Uiso   1.00
C279   C     0.82010   0.15167   0.79762   0.00000  Uiso   1.00
C280   C     0.84188   0.12641   0.72803   0.00000  Uiso   1.00
C281   C     0.84941   0.07373   0.61538   0.00000  Uiso   1.00
C282   C     0.88183   0.29253   0.91632   0.00000  Uiso   1.00
C283   C     0.83668   0.33891   0.95416   0.00000  Uiso   1.00
C284   C     0.86604   0.39928   0.95616   0.00000  Uiso   1.00
C285   C     0.88757   0.50452   0.97558   0.00000  Uiso   1.00
C286   C     0.91888   0.20393   0.93039   0.00000  Uiso   1.00
C287   C     0.90487   0.17583   0.98007   0.00000  Uiso   1.00
C288   C     0.96543   0.16161   0.99393   0.00000  Uiso   1.00
C289   C     0.04447   0.12929   0.03519   0.00000  Uiso   1.00
C290   C     0.99337   0.24817   0.84351   0.00000  Uiso   1.00
C291   C     0.94477   0.20425   0.79668   0.00000  Uiso   1.00
C292   C     0.96663   0.17903   0.72712   0.00000  Uiso   1.00
C293   C     0.91395   0.13986   0.69336   0.00000  Uiso   1.00
C294   C     0.95377   0.30596   0.88172   0.00000  Uiso   1.00
C295   C     0.98321   0.36627   0.88367   0.00000  Uiso   1.00
C296   C     0.93811   0.41273   0.92150   0.00000  Uiso   1.00
C297   C     0.99082   0.21736   0.89578   0.00000  Uiso   1.00
C298   C     0.05141   0.20319   0.90958   0.00000  Uiso   1.00
C299   C     0.03750   0.17507   0.95927   0.00000  Uiso   1.00
H300   H     0.80492   0.21299   0.93416   0.00000  Uiso   1.00
H301   H     0.76443   0.14130   0.82442   0.00000  Uiso   1.00
H302   H     0.78101   0.32851   0.98094   0.00000  Uiso   1.00
H303   H     0.84920   0.16545   0.00684   0.00000  Uiso   1.00
H304   H     0.75126   0.06775   0.68748   0.00000  Uiso   1.00
H305   H     0.78623   0.46250   0.01753   0.00000  Uiso   1.00
H306   H     0.93001   0.11866   0.07216   0.00000  Uiso   1.00
H307   H     0.04938   0.25863   0.81656   0.00000  Uiso   1.00
H308   H     0.02231   0.18943   0.70036   0.00000  Uiso   1.00
H309   H     0.03888   0.37665   0.85688   0.00000  Uiso   1.00
H310   H     0.10707   0.21359   0.88279   0.00000  Uiso   1.00
H311   H     0.96056   0.10683   0.58678   0.00000  Uiso   1.00
H312   H     0.99552   0.50158   0.91685   0.00000  Uiso   1.00
H313   H     0.13931   0.15773   0.97147   0.00000  Uiso   1.00
O314   O     0.83368   0.04097   0.56281   0.00000  Uiso   1.00
O315   O     0.87956   0.55886   0.99584   0.00000  Uiso   1.00
O316   O     0.06820   0.10774   0.06750   0.00000  Uiso   1.00
N317   N     0.80424   0.08643   0.67973   0.00000  Uiso   1.00
N318   N     0.83692   0.45550   0.98830   0.00000  Uiso   1.00
N319   N     0.97135   0.13405   0.03939   0.00000  Uiso   1.00
N320   N     0.91686   0.10746   0.62555   0.00000  Uiso   1.00
N321   N     0.94955   0.47652   0.93412   0.00000  Uiso   1.00
N322   N     0.08397   0.15508   0.98520   0.00000  Uiso   1.00
C323   C     0.93182   0.07348   0.19172   0.00000  Uiso   1.00
C324   C     0.87003   0.04174   0.15437   0.00000  Uiso   1.00
C325   C     0.87929   0.00703   0.08653   0.00000  Uiso   1.00
C326   C     0.81579   0.98180   0.06192   0.00000  Uiso   1.00
C327   C     0.73052   0.93109   0.99757   0.00000  Uiso   1.00
C328   C     0.91707   0.04843   0.25084   0.00000  Uiso   1.00
C329   C     0.96589   0.01935   0.26412   0.00000  Uiso   1.00
C330   C     0.94199   0.99976   0.32073   0.00000  Uiso   1.00
C331   C     0.92977   0.95947   0.40619   0.00000  Uiso   1.00
C332   C     0.91981   0.14188   0.22266   0.00000  Uiso   1.00
C333   C     0.97093   0.19137   0.21226   0.00000  Uiso   1.00
C334   C     0.94934   0.25046   0.24515   0.00000  Uiso   1.00
C335   C     0.94136   0.35526   0.28686   0.00000  Uiso   1.00
C336   C     0.80259   0.09042   0.26863   0.00000  Uiso   1.00
C337   C     0.79983   0.05094   0.19615   0.00000  Uiso   1.00
C338   C     0.73630   0.02576   0.17163   0.00000  Uiso   1.00
C339   C     0.74547   0.99101   0.10377   0.00000  Uiso   1.00
C340   C     0.84688   0.05763   0.29262   0.00000  Uiso   1.00
C341   C     0.82291   0.03808   0.34922   0.00000  Uiso   1.00
C342   C     0.87167   0.00897   0.36258   0.00000  Uiso   1.00
C343   C     0.84961   0.15108   0.26444   0.00000  Uiso   1.00
C344   C     0.82794   0.21010   0.29736   0.00000  Uiso   1.00
C345   C     0.87902   0.25967   0.28701   0.00000  Uiso   1.00
H346   H     0.98647   0.06632   0.15920   0.00000  Uiso   1.00
H347   H     0.93362   0.99992   0.05422   0.00000  Uiso   1.00
H348   H     0.02021   0.01224   0.23179   0.00000  Uiso   1.00
H349   H     0.02524   0.18424   0.17993   0.00000  Uiso   1.00
H350   H     0.84407   0.93033   0.95626   0.00000  Uiso   1.00
H351   H     0.02665   0.95633   0.33069   0.00000  Uiso   1.00
H352   H     0.03727   0.31902   0.22134   0.00000  Uiso   1.00
H353   H     0.74794   0.09758   0.30116   0.00000  Uiso   1.00
H354   H     0.68199   0.03288   0.20397   0.00000  Uiso   1.00
H355   H     0.76858   0.04521   0.38154   0.00000  Uiso   1.00
H356   H     0.77362   0.21720   0.32968   0.00000  Uiso   1.00
H357   H     0.63983   0.95708   0.07780   0.00000  Uiso   1.00
H358   H     0.82242   0.98309   0.45223   0.00000  Uiso   1.00
H359   H     0.83304   0.34578   0.34288   0.00000  Uiso   1.00
O360   O     0.70287   0.90057   0.95054   0.00000  Uiso   1.00
O361   O     0.94243   0.93470   0.44178   0.00000  Uiso   1.00
O362   O     0.95635   0.41053   0.29831   0.00000  Uiso   1.00
N363   N     0.80505   0.94551   0.99820   0.00000  Uiso   1.00
N364   N     0.97575   0.96982   0.34826   0.00000  Uiso   1.00
N365   N     0.98569   0.30890   0.24604   0.00000  Uiso   1.00
N366   N     0.69515   0.95991   0.06360   0.00000  Uiso   1.00
N367   N     0.86586   0.98421   0.41366   0.00000  Uiso   1.00
N368   N     0.87579   0.32330   0.31144   0.00000  Uiso   1.00
C369   C     0.32231   0.81539   0.83325   0.00000  Uiso   1.00
C370   C     0.28205   0.75272   0.83816   0.00000  Uiso   1.00
C371   C     0.20634   0.73913   0.85788   0.00000  Uiso   1.00
C372   C     0.18029   0.67904   0.85908   0.00000  Uiso   1.00
C373   C     0.11048   0.58854   0.86940   0.00000  Uiso   1.00
C374   C     0.36752   0.80303   0.76100   0.00000  Uiso   1.00
C375   C     0.36367   0.83176   0.71584   0.00000  Uiso   1.00
C376   C     0.40958   0.81403   0.65210   0.00000  Uiso   1.00
C377   C     0.47250   0.80168   0.54264   0.00000  Uiso   1.00
C378   C     0.37793   0.83383   0.87802   0.00000  Uiso   1.00
C379   C     0.38284   0.88846   0.93124   0.00000  Uiso   1.00
C380   C     0.43753   0.89666   0.96601   0.00000  Uiso   1.00
C381   C     0.51660   0.93213   0.03823   0.00000  Uiso   1.00
C382   C     0.41070   0.73283   0.80034   0.00000  Uiso   1.00
C383   C     0.33007   0.70788   0.82029   0.00000  Uiso   1.00
C384   C     0.30413   0.64779   0.82146   0.00000  Uiso   1.00
C385   C     0.22839   0.63411   0.84117   0.00000  Uiso   1.00
C386   C     0.41553   0.75819   0.74313   0.00000  Uiso   1.00
C387   C     0.46146   0.74042   0.67943   0.00000  Uiso   1.00
C388   C     0.45768   0.76910   0.63419   0.00000  Uiso   1.00
C389   C     0.42594   0.78899   0.86015   0.00000  Uiso   1.00
C390   C     0.48063   0.79711   0.89483   0.00000  Uiso   1.00
C391   C     0.48563   0.85174   0.94810   0.00000  Uiso   1.00
H392   H     0.28493   0.85030   0.84716   0.00000  Uiso   1.00
H393   H     0.16920   0.77385   0.87170   0.00000  Uiso   1.00
H394   H     0.32652   0.86647   0.72970   0.00000  Uiso   1.00
H395   H     0.34568   0.92315   0.94506   0.00000  Uiso   1.00
H396   H     0.06206   0.66930   0.89100   0.00000  Uiso   1.00
H397   H     0.39379   0.86461   0.59158   0.00000  Uiso   1.00
H398   H     0.43420   0.98414   0.04572   0.00000  Uiso   1.00
H399   H     0.44808   0.69791   0.78642   0.00000  Uiso   1.00
H400   H     0.34130   0.61309   0.80763   0.00000  Uiso   1.00
H401   H     0.49861   0.70571   0.66562   0.00000  Uiso   1.00
H402   H     0.51778   0.76240   0.88098   0.00000  Uiso   1.00
H403   H     0.20174   0.53882   0.83899   0.00000  Uiso   1.00
H404   H     0.53347   0.73413   0.53957   0.00000  Uiso   1.00
H405   H     0.57388   0.85367   0.99371   0.00000  Uiso   1.00
O406   O     0.05871   0.55101   0.88002   0.00000  Uiso   1.00
O407   O     0.49393   0.80725   0.48720   0.00000  Uiso   1.00
O408   O     0.54695   0.96408   0.08302   0.00000  Uiso   1.00
N409   N     0.10959   0.65024   0.87586   0.00000  Uiso   1.00
N410   N     0.41972   0.83283   0.59592   0.00000  Uiso   1.00
N411   N     0.45752   0.94459   0.02049   0.00000  Uiso   1.00
N412   N     0.18475   0.58003   0.84788   0.00000  Uiso   1.00
N413   N     0.49488   0.76262   0.56793   0.00000  Uiso   1.00
N414   N     0.53268   0.87439   0.99250   0.00000  Uiso   1.00
C415   C     0.38860   0.25081   0.82543   0.00000  Uiso   1.00
C416   C     0.39142   0.18170   0.78757   0.00000  Uiso   1.00
C417   C     0.37775   0.15110   0.72359   0.00000  Uiso   1.00
C418   C     0.38311   0.08776   0.69775   0.00000  Uiso   1.00
C419   C     0.38466   0.98524   0.63337   0.00000  Uiso   1.00
C420   C     0.33368   0.25516   0.89246   0.00000  Uiso   1.00
C421   C     0.27148   0.28634   0.91668   0.00000  Uiso   1.00
C422   C     0.22825   0.28485   0.97914   0.00000  Uiso   1.00
C423   C     0.14019   0.29642   0.07763   0.00000  Uiso   1.00
C424   C     0.46387   0.27576   0.84276   0.00000  Uiso   1.00
C425   C     0.51113   0.32428   0.82522   0.00000  Uiso   1.00
C426   C     0.57751   0.34013   0.84586   0.00000  Uiso   1.00
C427   C     0.69159   0.38369   0.86719   0.00000  Uiso   1.00
C428   C     0.42243   0.19272   0.89329   0.00000  Uiso   1.00
C429   C     0.40979   0.15015   0.82443   0.00000  Uiso   1.00
C430   C     0.41518   0.08683   0.79868   0.00000  Uiso   1.00
C431   C     0.40153   0.05615   0.73467   0.00000  Uiso   1.00
C432   C     0.35205   0.22361   0.92932   0.00000  Uiso   1.00
C433   C     0.30891   0.22207   0.99177   0.00000  Uiso   1.00
C434   C     0.24666   0.25323   0.01607   0.00000  Uiso   1.00
C435   C     0.48225   0.24421   0.87963   0.00000  Uiso   1.00
C436   C     0.54856   0.26000   0.90030   0.00000  Uiso   1.00
C437   C     0.59591   0.30852   0.88279   0.00000  Uiso   1.00
H438   H     0.37429   0.27538   0.79673   0.00000  Uiso   1.00
H439   H     0.36352   0.17554   0.69508   0.00000  Uiso   1.00
H440   H     0.25728   0.31076   0.88814   0.00000  Uiso   1.00
H441   H     0.49689   0.34868   0.79669   0.00000  Uiso   1.00
H442   H     0.35967   0.05093   0.59865   0.00000  Uiso   1.00
H443   H     0.13566   0.33607   0.00574   0.00000  Uiso   1.00
H444   H     0.64093   0.41604   0.81290   0.00000  Uiso   1.00
H445   H     0.43673   0.16815   0.92200   0.00000  Uiso   1.00
H446   H     0.42940   0.06242   0.82722   0.00000  Uiso   1.00
H447   H     0.32315   0.19765   0.02028   0.00000  Uiso   1.00
H448   H     0.56276   0.23557   0.92883   0.00000  Uiso   1.00
H449   H     0.41313   0.95912   0.70590   0.00000  Uiso   1.00
H450   H     0.18912   0.24427   0.11299   0.00000  Uiso   1.00
H451   H     0.69439   0.32423   0.92015   0.00000  Uiso   1.00
O452   O     0.38042   0.93741   0.58768   0.00000  Uiso   1.00
O453   O     0.08654   0.31151   0.12177   0.00000  Uiso   1.00
O454   O     0.74944   0.41642   0.86877   0.00000  Uiso   1.00
N455   N     0.37327   0.04383   0.63689   0.00000  Uiso   1.00
N456   N     0.16383   0.31042   0.01749   0.00000  Uiso   1.00
N457   N     0.63621   0.38519   0.83722   0.00000  Uiso   1.00
N458   N     0.40204   0.99443   0.69460   0.00000  Uiso   1.00
N459   N     0.19260   0.26101   0.07520   0.00000  Uiso   1.00
N460   N     0.66497   0.33579   0.89493   0.00000  Uiso   1.00
C461   C     0.29739   0.74561   0.32592   0.00000  Uiso   1.00
C462   C     0.21382   0.73598   0.33458   0.00000  Uiso   1.00
C463   C     0.17565   0.70126   0.28464   0.00000  Uiso   1.00
C464   C     0.09928   0.69815   0.30265   0.00000  Uiso   1.00
C465   C     0.97513   0.67858   0.30609   0.00000  Uiso   1.00
C466   C     0.31899   0.81566   0.34698   0.00000  Uiso   1.00
C467   C     0.36927   0.84794   0.30747   0.00000  Uiso   1.00
C468   C     0.38144   0.91191   0.33592   0.00000  Uiso   1.00
C469   C     0.42061   0.01605   0.35864   0.00000  Uiso   1.00
C470   C     0.31291   0.72371   0.37898   0.00000  Uiso   1.00
C471   C     0.35809   0.67869   0.36639   0.00000  Uiso   1.00
C472   C     0.36515   0.66525   0.42179   0.00000  Uiso   1.00
C473   C     0.39488   0.62662   0.49420   0.00000  Uiso   1.00
C474   C     0.22963   0.80182   0.44670   0.00000  Uiso   1.00
C475   C     0.17702   0.76651   0.40018   0.00000  Uiso   1.00
C476   C     0.10068   0.76346   0.41827   0.00000  Uiso   1.00
C477   C     0.06241   0.72874   0.36837   0.00000  Uiso   1.00
C478   C     0.28219   0.84620   0.41258   0.00000  Uiso   1.00
C479   C     0.29430   0.91014   0.44110   0.00000  Uiso   1.00
C480   C     0.34457   0.94250   0.40164   0.00000  Uiso   1.00
C481   C     0.27611   0.75424   0.44459   0.00000  Uiso   1.00
C482   C     0.28311   0.74088   0.50002   0.00000  Uiso   1.00
C483   C     0.32828   0.69584   0.48751   0.00000  Uiso   1.00
H484   H     0.32604   0.72184   0.27485   0.00000  Uiso   1.00
H485   H     0.20416   0.67764   0.23387   0.00000  Uiso   1.00
H486   H     0.39775   0.82430   0.25671   0.00000  Uiso   1.00
H487   H     0.38656   0.65507   0.31562   0.00000  Uiso   1.00
H488   H     0.05279   0.64213   0.21737   0.00000  Uiso   1.00
H489   H     0.46100   0.95135   0.26552   0.00000  Uiso   1.00
H490   H     0.43742   0.59450   0.38974   0.00000  Uiso   1.00
H491   H     0.20097   0.82560   0.49778   0.00000  Uiso   1.00
H492   H     0.07222   0.78709   0.46904   0.00000  Uiso   1.00
H493   H     0.26581   0.93375   0.49187   0.00000  Uiso   1.00
H494   H     0.25462   0.76452   0.55078   0.00000  Uiso   1.00
H495   H     0.94571   0.73096   0.40824   0.00000  Uiso   1.00
H496   H     0.35392   0.04019   0.45639   0.00000  Uiso   1.00
H497   H     0.33033   0.68334   0.58061   0.00000  Uiso   1.00
O498   O     0.91681   0.65936   0.28987   0.00000  Uiso   1.00
O499   O     0.45237   0.06505   0.35304   0.00000  Uiso   1.00
O500   O     0.42143   0.59687   0.51602   0.00000  Uiso   1.00
N501   N     0.04526   0.66831   0.26624   0.00000  Uiso   1.00
N502   N     0.42690   0.95742   0.31125   0.00000  Uiso   1.00
N503   N     0.40487   0.62380   0.42739   0.00000  Uiso   1.00
N504   N     0.98764   0.71611   0.36894   0.00000  Uiso   1.00
N505   N     0.36928   0.00522   0.41395   0.00000  Uiso   1.00
N506   N     0.34725   0.67160   0.53010   0.00000  Uiso   1.00
C507   C     0.61587   0.59478   0.29280   0.00000  Uiso   1.00
C508   C     0.62841   0.57892   0.21649   0.00000  Uiso   1.00
C509   C     0.57394   0.55782   0.17947   0.00000  Uiso   1.00
C510   C     0.59667   0.54590   0.11013   0.00000  Uiso   1.00
C511   C     0.60480   0.51988   0.99636   0.00000  Uiso   1.00
C512   C     0.66302   0.55494   0.30423   0.00000  Uiso   1.00
C513   C     0.63765   0.51368   0.34098   0.00000  Uiso   1.00
C514   C     0.68954   0.48159   0.34551   0.00000  Uiso   1.00
C515   C     0.75141   0.41837   0.36800   0.00000  Uiso   1.00
C516   C     0.65025   0.66171   0.31842   0.00000  Uiso   1.00
C517   C     0.61415   0.71022   0.36713   0.00000  Uiso   1.00
C518   C     0.65528   0.76802   0.38362   0.00000  Uiso   1.00
C519   C     0.69732   0.87058   0.42815   0.00000  Uiso   1.00
C520   C     0.75312   0.61115   0.23550   0.00000  Uiso   1.00
C521   C     0.70296   0.58781   0.18536   0.00000  Uiso   1.00
C522   C     0.72579   0.57593   0.11606   0.00000  Uiso   1.00
C523   C     0.67136   0.55481   0.07895   0.00000  Uiso   1.00
C524   C     0.73757   0.56383   0.27310   0.00000  Uiso   1.00
C525   C     0.78950   0.53179   0.27758   0.00000  Uiso   1.00
C526   C     0.76422   0.49049   0.31433   0.00000  Uiso   1.00
C527   C     0.72480   0.67060   0.28730   0.00000  Uiso   1.00
C528   C     0.76600   0.72833   0.30372   0.00000  Uiso   1.00
C529   C     0.72997   0.77693   0.35244   0.00000  Uiso   1.00
H530   H     0.55784   0.58786   0.31704   0.00000  Uiso   1.00
H531   H     0.51625   0.55093   0.20357   0.00000  Uiso   1.00
H532   H     0.57996   0.50681   0.36507   0.00000  Uiso   1.00
H533   H     0.55646   0.70332   0.39120   0.00000  Uiso   1.00
H534   H     0.50302   0.51390   0.06405   0.00000  Uiso   1.00
H535   H     0.63737   0.42088   0.40459   0.00000  Uiso   1.00
H536   H     0.58780   0.83526   0.45970   0.00000  Uiso   1.00
H537   H     0.81117   0.61807   0.21127   0.00000  Uiso   1.00
H538   H     0.78348   0.58281   0.09199   0.00000  Uiso   1.00
H539   H     0.84719   0.53868   0.25349   0.00000  Uiso   1.00
H540   H     0.82369   0.73519   0.27962   0.00000  Uiso   1.00
H541   H     0.71991   0.53976   0.97348   0.00000  Uiso   1.00
H542   H     0.85426   0.44675   0.31403   0.00000  Uiso   1.00
H543   H     0.80470   0.86113   0.36914   0.00000  Uiso   1.00
O544   O     0.58869   0.50307   0.94221   0.00000  Uiso   1.00
O545   O     0.76494   0.38104   0.38900   0.00000  Uiso   1.00
O546   O     0.69991   0.92470   0.46130   0.00000  Uiso   1.00
N547   N     0.55787   0.52484   0.05910   0.00000  Uiso   1.00
N548   N     0.68347   0.43786   0.37748   0.00000  Uiso   1.00
N549   N     0.63713   0.82527   0.42902   0.00000  Uiso   1.00
N550   N     0.67457   0.53876   0.01037   0.00000  Uiso   1.00
N551   N     0.80017   0.45178   0.32875   0.00000  Uiso   1.00
N552   N     0.75384   0.83919   0.38029   0.00000  Uiso   1.00
