data_job_05527
_audit_creation_date              2018-12-19
_audit_creation_method            'Materials Studio'
_symmetry_space_group_name_H-M    'P1'
_symmetry_Int_Tables_number       1
_symmetry_cell_setting            triclinic
loop_
_symmetry_equiv_pos_as_xyz
  x,y,z
_cell_length_a                    24.6350
_cell_length_b                    24.6350
_cell_length_c                    9.4231
_cell_angle_alpha                 89.7682
_cell_angle_beta                  89.7648
_cell_angle_gamma                 89.9998
loop_
_atom_site_label
_atom_site_type_symbol
_atom_site_fract_x
_atom_site_fract_y
_atom_site_fract_z
_atom_site_U_iso_or_equiv
_atom_site_adp_type
_atom_site_occupancy
C1     C     0.98408   0.75456   0.07507   0.00000  Uiso   1.00
C2     C     0.99051   0.80337   0.97636   0.00000  Uiso   1.00
C3     C     0.03793   0.83269   0.95461   0.00000  Uiso   1.00
C4     C     0.03547   0.87598   0.86004   0.00000  Uiso   1.00
C5     C     0.05278   0.94973   0.71750   0.00000  Uiso   1.00
C6     C     0.93807   0.76884   0.17704   0.00000  Uiso   1.00
C7     C     0.94141   0.76913   0.32403   0.00000  Uiso   1.00
C8     C     0.89479   0.78334   0.39840   0.00000  Uiso   1.00
C9     C     0.83068   0.80345   0.56742   0.00000  Uiso   1.00
C10    C     0.96285   0.70844   0.98324   0.00000  Uiso   1.00
C11    C     0.98702   0.65793   0.96730   0.00000  Uiso   1.00
C12    C     0.96127   0.62128   0.87852   0.00000  Uiso   1.00
C13    C     0.93564   0.54760   0.74664   0.00000  Uiso   1.00
C14    C     0.89535   0.77929   0.94580   0.00000  Uiso   1.00
C15    C     0.94231   0.81680   0.90615   0.00000  Uiso   1.00
C16    C     0.93978   0.86005   0.81158   0.00000  Uiso   1.00
C17    C     0.98719   0.88943   0.78970   0.00000  Uiso   1.00
C18    C     0.88988   0.78227   0.10684   0.00000  Uiso   1.00
C19    C     0.84325   0.79648   0.18100   0.00000  Uiso   1.00
C20    C     0.84651   0.79680   0.32806   0.00000  Uiso   1.00
C21    C     0.91466   0.72186   0.91302   0.00000  Uiso   1.00
C22    C     0.88886   0.68529   0.82427   0.00000  Uiso   1.00
C23    C     0.91299   0.63473   0.80818   0.00000  Uiso   1.00
H24    H     0.02159   0.74411   0.12975   0.00000  Uiso   1.00
H25    H     0.07522   0.82229   0.00898   0.00000  Uiso   1.00
H26    H     0.97870   0.75873   0.37833   0.00000  Uiso   1.00
H27    H     0.02431   0.64755   0.02165   0.00000  Uiso   1.00
H28    H     0.11342   0.91490   0.84416   0.00000  Uiso   1.00
H29    H     0.90990   0.78086   0.62297   0.00000  Uiso   1.00
H30    H     0.00608   0.54642   0.87083   0.00000  Uiso   1.00
H31    H     0.85784   0.78975   0.89114   0.00000  Uiso   1.00
H32    H     0.90248   0.87043   0.75727   0.00000  Uiso   1.00
H33    H     0.80596   0.80687   0.12663   0.00000  Uiso   1.00
H34    H     0.85157   0.69569   0.76995   0.00000  Uiso   1.00
H35    H     0.97322   0.95397   0.63987   0.00000  Uiso   1.00
H36    H     0.76970   0.81993   0.41868   0.00000  Uiso   1.00
H37    H     0.86588   0.58549   0.66654   0.00000  Uiso   1.00
O38    O     0.07563   0.98670   0.65829   0.00000  Uiso   1.00
O39    O     0.80863   0.81084   0.68006   0.00000  Uiso   1.00
O40    O     0.93482   0.50326   0.69327   0.00000  Uiso   1.00
N41    N     0.07430   0.91302   0.81443   0.00000  Uiso   1.00
N42    N     0.88402   0.78771   0.54257   0.00000  Uiso   1.00
N43    N     0.97394   0.56852   0.83942   0.00000  Uiso   1.00
N44    N     0.99886   0.93404   0.70450   0.00000  Uiso   1.00
N45    N     0.80858   0.80873   0.43264   0.00000  Uiso   1.00
N46    N     0.89850   0.58954   0.72949   0.00000  Uiso   1.00
C47    C     0.01224   0.24479   0.08293   0.00000  Uiso   1.00
C48    C     0.00570   0.19609   0.98509   0.00000  Uiso   1.00
C49    C     0.95818   0.16694   0.96464   0.00000  Uiso   1.00
C50    C     0.96056   0.12372   0.87071   0.00000  Uiso   1.00
C51    C     0.94308   0.05015   0.72963   0.00000  Uiso   1.00
C52    C     0.05814   0.23028   0.18432   0.00000  Uiso   1.00
C53    C     0.05472   0.22989   0.33137   0.00000  Uiso   1.00
C54    C     0.10124   0.21546   0.40514   0.00000  Uiso   1.00
C55    C     0.16519   0.19500   0.57337   0.00000  Uiso   1.00
C56    C     0.03367   0.29092   0.98999   0.00000  Uiso   1.00
C57    C     0.00968   0.34152   0.97368   0.00000  Uiso   1.00
C58    C     0.03561   0.37815   0.88387   0.00000  Uiso   1.00
C59    C     0.06157   0.45185   0.75037   0.00000  Uiso   1.00
C60    C     0.10095   0.21987   0.95249   0.00000  Uiso   1.00
C61    C     0.05388   0.18255   0.91425   0.00000  Uiso   1.00
C62    C     0.05633   0.13937   0.82032   0.00000  Uiso   1.00
C63    C     0.00883   0.11016   0.79973   0.00000  Uiso   1.00
C64    C     0.10632   0.21674   0.11348   0.00000  Uiso   1.00
C65    C     0.15286   0.20231   0.18706   0.00000  Uiso   1.00
C66    C     0.14951   0.20190   0.33417   0.00000  Uiso   1.00
C67    C     0.08185   0.27739   0.91914   0.00000  Uiso   1.00
C68    C     0.10783   0.31395   0.82936   0.00000  Uiso   1.00
C69    C     0.08388   0.36459   0.81290   0.00000  Uiso   1.00
H70    H     0.97473   0.25533   0.13809   0.00000  Uiso   1.00
H71    H     0.92090   0.17743   0.01950   0.00000  Uiso   1.00
H72    H     0.01742   0.24037   0.38616   0.00000  Uiso   1.00
H73    H     0.97240   0.35199   0.02852   0.00000  Uiso   1.00
H74    H     0.88248   0.08508   0.85680   0.00000  Uiso   1.00
H75    H     0.08601   0.21781   0.62994   0.00000  Uiso   1.00
H76    H     0.99106   0.45318   0.87579   0.00000  Uiso   1.00
H77    H     0.13846   0.20933   0.89734   0.00000  Uiso   1.00
H78    H     0.09362   0.12890   0.76552   0.00000  Uiso   1.00
H79    H     0.19014   0.19184   0.13219   0.00000  Uiso   1.00
H80    H     0.14512   0.30346   0.77455   0.00000  Uiso   1.00
H81    H     0.02267   0.04569   0.65067   0.00000  Uiso   1.00
H82    H     0.22619   0.17843   0.42382   0.00000  Uiso   1.00
H83    H     0.13124   0.41379   0.66965   0.00000  Uiso   1.00
O84    O     0.92013   0.01330   0.67140   0.00000  Uiso   1.00
O85    O     0.18715   0.18745   0.68574   0.00000  Uiso   1.00
O86    O     0.06257   0.49624   0.69629   0.00000  Uiso   1.00
N87    N     0.92163   0.08685   0.82636   0.00000  Uiso   1.00
N88    N     0.11191   0.21094   0.54920   0.00000  Uiso   1.00
N89    N     0.02314   0.43099   0.84416   0.00000  Uiso   1.00
N90    N     0.99706   0.06566   0.71544   0.00000  Uiso   1.00
N91    N     0.18734   0.18975   0.43828   0.00000  Uiso   1.00
N92    N     0.09858   0.40980   0.73324   0.00000  Uiso   1.00
C93    C     0.48286   0.74424   0.42179   0.00000  Uiso   1.00
C94    C     0.48985   0.69617   0.52254   0.00000  Uiso   1.00
C95    C     0.53754   0.66736   0.54403   0.00000  Uiso   1.00
C96    C     0.53558   0.62471   0.64069   0.00000  Uiso   1.00
C97    C     0.55371   0.55208   0.78606   0.00000  Uiso   1.00
C98    C     0.43678   0.72891   0.32210   0.00000  Uiso   1.00
C99    C     0.43985   0.72764   0.17505   0.00000  Uiso   1.00
C100   C     0.39321   0.71256   0.10298   0.00000  Uiso   1.00
C101   C     0.32894   0.69081   0.93715   0.00000  Uiso   1.00
C102   C     0.46145   0.79083   0.51216   0.00000  Uiso   1.00
C103   C     0.48526   0.84163   0.52489   0.00000  Uiso   1.00
C104   C     0.45940   0.87869   0.61282   0.00000  Uiso   1.00
C105   C     0.43344   0.95308   0.74209   0.00000  Uiso   1.00
C106   C     0.39457   0.71974   0.55524   0.00000  Uiso   1.00
C107   C     0.44189   0.68287   0.59503   0.00000  Uiso   1.00
C108   C     0.43986   0.64025   0.69168   0.00000  Uiso   1.00
C109   C     0.48754   0.61138   0.71331   0.00000  Uiso   1.00
C110   C     0.38882   0.71561   0.39458   0.00000  Uiso   1.00
C111   C     0.34217   0.70053   0.32271   0.00000  Uiso   1.00
C112   C     0.34517   0.69923   0.17559   0.00000  Uiso   1.00
C113   C     0.41350   0.77753   0.58465   0.00000  Uiso   1.00
C114   C     0.38759   0.81452   0.67256   0.00000  Uiso   1.00
C115   C     0.41135   0.86536   0.68543   0.00000  Uiso   1.00
H116   H     0.52019   0.75460   0.36534   0.00000  Uiso   1.00
H117   H     0.57464   0.67767   0.48790   0.00000  Uiso   1.00
H118   H     0.47696   0.73794   0.11899   0.00000  Uiso   1.00
H119   H     0.52237   0.85191   0.46878   0.00000  Uiso   1.00
H120   H     0.61385   0.58649   0.65571   0.00000  Uiso   1.00
H121   H     0.40789   0.71361   0.87783   0.00000  Uiso   1.00
H122   H     0.50365   0.95394   0.61544   0.00000  Uiso   1.00
H123   H     0.35724   0.70938   0.61167   0.00000  Uiso   1.00
H124   H     0.40274   0.62996   0.74776   0.00000  Uiso   1.00
H125   H     0.30506   0.69024   0.37884   0.00000  Uiso   1.00
H126   H     0.35048   0.80421   0.72863   0.00000  Uiso   1.00
H127   H     0.47433   0.54777   0.86661   0.00000  Uiso   1.00
H128   H     0.26837   0.67489   0.08873   0.00000  Uiso   1.00
H129   H     0.36413   0.91522   0.82634   0.00000  Uiso   1.00
O130   O     0.57696   0.51570   0.84620   0.00000  Uiso   1.00
O131   O     0.30674   0.68248   0.82565   0.00000  Uiso   1.00
O132   O     0.43238   0.99778   0.79338   0.00000  Uiso   1.00
N133   N     0.57477   0.58828   0.68669   0.00000  Uiso   1.00
N134   N     0.38221   0.70712   0.95942   0.00000  Uiso   1.00
N135   N     0.47173   0.93181   0.64899   0.00000  Uiso   1.00
N136   N     0.49970   0.56745   0.80018   0.00000  Uiso   1.00
N137   N     0.30714   0.68629   0.07291   0.00000  Uiso   1.00
N138   N     0.39666   0.91098   0.76248   0.00000  Uiso   1.00
C139   C     0.51101   0.25400   0.44802   0.00000  Uiso   1.00
C140   C     0.50503   0.30342   0.54374   0.00000  Uiso   1.00
C141   C     0.45778   0.33307   0.56443   0.00000  Uiso   1.00
C142   C     0.46066   0.37691   0.65621   0.00000  Uiso   1.00
C143   C     0.44401   0.45159   0.79437   0.00000  Uiso   1.00
C144   C     0.55683   0.26745   0.34441   0.00000  Uiso   1.00
C145   C     0.55313   0.26686   0.19750   0.00000  Uiso   1.00
C146   C     0.59962   0.28042   0.12148   0.00000  Uiso   1.00
C147   C     0.66341   0.29922   0.95016   0.00000  Uiso   1.00
C148   C     0.53227   0.20835   0.54238   0.00000  Uiso   1.00
C149   C     0.50792   0.15805   0.56189   0.00000  Uiso   1.00
C150   C     0.53374   0.12184   0.65253   0.00000  Uiso   1.00
C151   C     0.55938   0.04887   0.78859   0.00000  Uiso   1.00
C152   C     0.60015   0.27913   0.57423   0.00000  Uiso   1.00
C153   C     0.55345   0.31707   0.61229   0.00000  Uiso   1.00
C154   C     0.55640   0.36087   0.70407   0.00000  Uiso   1.00
C155   C     0.50916   0.39059   0.72490   0.00000  Uiso   1.00
C156   C     0.60525   0.28110   0.41295   0.00000  Uiso   1.00
C157   C     0.65176   0.29466   0.33714   0.00000  Uiso   1.00
C158   C     0.64813   0.29409   0.19015   0.00000  Uiso   1.00
C159   C     0.58068   0.22200   0.61093   0.00000  Uiso   1.00
C160   C     0.60655   0.18586   0.70154   0.00000  Uiso   1.00
C161   C     0.58225   0.13551   0.72120   0.00000  Uiso   1.00
H162   H     0.47332   0.24337   0.39464   0.00000  Uiso   1.00
H163   H     0.42032   0.32250   0.51135   0.00000  Uiso   1.00
H164   H     0.51566   0.25629   0.14448   0.00000  Uiso   1.00
H165   H     0.47046   0.14750   0.50883   0.00000  Uiso   1.00
H166   H     0.38291   0.41625   0.67094   0.00000  Uiso   1.00
H167   H     0.58395   0.27664   0.89737   0.00000  Uiso   1.00
H168   H     0.48863   0.04723   0.66566   0.00000  Uiso   1.00
H169   H     0.63785   0.28975   0.62760   0.00000  Uiso   1.00
H170   H     0.59388   0.37143   0.75711   0.00000  Uiso   1.00
H171   H     0.68922   0.30522   0.39023   0.00000  Uiso   1.00
H172   H     0.64402   0.19643   0.75457   0.00000  Uiso   1.00
H173   H     0.52378   0.45597   0.87040   0.00000  Uiso   1.00
H174   H     0.72482   0.31635   0.09682   0.00000  Uiso   1.00
H175   H     0.62950   0.08694   0.86512   0.00000  Uiso   1.00
O176   O     0.42146   0.48901   0.85162   0.00000  Uiso   1.00
O177   O     0.68521   0.30583   0.83673   0.00000  Uiso   1.00
O178   O     0.56015   0.00485   0.84471   0.00000  Uiso   1.00
N179   N     0.42210   0.41439   0.70013   0.00000  Uiso   1.00
N180   N     0.61005   0.28386   0.97689   0.00000  Uiso   1.00
N181   N     0.52095   0.06938   0.69515   0.00000  Uiso   1.00
N182   N     0.49790   0.43576   0.80746   0.00000  Uiso   1.00
N183   N     0.68585   0.30523   0.08422   0.00000  Uiso   1.00
N184   N     0.59675   0.09075   0.80248   0.00000  Uiso   1.00
C185   C     0.75208   0.01295   0.94797   0.00000  Uiso   1.00
C186   C     0.80150   0.00699   0.04370   0.00000  Uiso   1.00
C187   C     0.83117   0.95975   0.06440   0.00000  Uiso   1.00
C188   C     0.87501   0.96265   0.15618   0.00000  Uiso   1.00
C189   C     0.94969   0.94604   0.29435   0.00000  Uiso   1.00
C190   C     0.76553   0.05877   0.84435   0.00000  Uiso   1.00
C191   C     0.76494   0.05506   0.69744   0.00000  Uiso   1.00
C192   C     0.77849   0.10155   0.62142   0.00000  Uiso   1.00
C193   C     0.79727   0.16534   0.45010   0.00000  Uiso   1.00
C194   C     0.70642   0.03419   0.04232   0.00000  Uiso   1.00
C195   C     0.65613   0.00983   0.06184   0.00000  Uiso   1.00
C196   C     0.61991   0.03564   0.15247   0.00000  Uiso   1.00
C197   C     0.54693   0.06127   0.28852   0.00000  Uiso   1.00
C198   C     0.77718   0.10211   0.07417   0.00000  Uiso   1.00
C199   C     0.81513   0.05542   0.11224   0.00000  Uiso   1.00
C200   C     0.85893   0.05839   0.20403   0.00000  Uiso   1.00
C201   C     0.88866   0.01116   0.22486   0.00000  Uiso   1.00
C202   C     0.77916   0.10719   0.91289   0.00000  Uiso   1.00
C203   C     0.79270   0.15370   0.83707   0.00000  Uiso   1.00
C204   C     0.79214   0.15007   0.69009   0.00000  Uiso   1.00
C205   C     0.72005   0.08262   0.11087   0.00000  Uiso   1.00
C206   C     0.68390   0.10847   0.20147   0.00000  Uiso   1.00
C207   C     0.63356   0.08416   0.22113   0.00000  Uiso   1.00
H208   H     0.74147   0.97525   0.89459   0.00000  Uiso   1.00
H209   H     0.82061   0.92228   0.01132   0.00000  Uiso   1.00
H210   H     0.75438   0.01758   0.64443   0.00000  Uiso   1.00
H211   H     0.64560   0.97236   0.00878   0.00000  Uiso   1.00
H212   H     0.91438   0.88492   0.17093   0.00000  Uiso   1.00
H213   H     0.77471   0.08587   0.39731   0.00000  Uiso   1.00
H214   H     0.54531   0.99051   0.16560   0.00000  Uiso   1.00
H215   H     0.78779   0.13981   0.12753   0.00000  Uiso   1.00
H216   H     0.86947   0.09587   0.25706   0.00000  Uiso   1.00
H217   H     0.80324   0.19117   0.89015   0.00000  Uiso   1.00
H218   H     0.69446   0.14595   0.25450   0.00000  Uiso   1.00
H219   H     0.95404   0.02581   0.37037   0.00000  Uiso   1.00
H220   H     0.81437   0.22676   0.59674   0.00000  Uiso   1.00
H221   H     0.58497   0.13140   0.36504   0.00000  Uiso   1.00
O222   O     0.98712   0.92350   0.35161   0.00000  Uiso   1.00
O223   O     0.80387   0.18714   0.33665   0.00000  Uiso   1.00
O224   O     0.50291   0.06202   0.34464   0.00000  Uiso   1.00
N225   N     0.91249   0.92411   0.20011   0.00000  Uiso   1.00
N226   N     0.78193   0.11198   0.47683   0.00000  Uiso   1.00
N227   N     0.56745   0.02283   0.19509   0.00000  Uiso   1.00
N228   N     0.93383   0.99992   0.30743   0.00000  Uiso   1.00
N229   N     0.80327   0.18779   0.58414   0.00000  Uiso   1.00
N230   N     0.58879   0.09864   0.30240   0.00000  Uiso   1.00
C231   C     0.24232   0.98480   0.92183   0.00000  Uiso   1.00
C232   C     0.19426   0.99181   0.02258   0.00000  Uiso   1.00
C233   C     0.16546   0.03951   0.04406   0.00000  Uiso   1.00
C234   C     0.12281   0.03757   0.14071   0.00000  Uiso   1.00
C235   C     0.05018   0.05573   0.28607   0.00000  Uiso   1.00
C236   C     0.22699   0.93872   0.82215   0.00000  Uiso   1.00
C237   C     0.22572   0.94178   0.67510   0.00000  Uiso   1.00
C238   C     0.21063   0.89514   0.60304   0.00000  Uiso   1.00
C239   C     0.18885   0.83087   0.43722   0.00000  Uiso   1.00
C240   C     0.28891   0.96338   0.01221   0.00000  Uiso   1.00
C241   C     0.33971   0.98717   0.02495   0.00000  Uiso   1.00
C242   C     0.37676   0.96130   0.11288   0.00000  Uiso   1.00
C243   C     0.45113   0.93533   0.24216   0.00000  Uiso   1.00
C244   C     0.21779   0.89653   0.05530   0.00000  Uiso   1.00
C245   C     0.18093   0.94386   0.09507   0.00000  Uiso   1.00
C246   C     0.13831   0.94185   0.19173   0.00000  Uiso   1.00
C247   C     0.10946   0.98954   0.21334   0.00000  Uiso   1.00
C248   C     0.21366   0.89077   0.89464   0.00000  Uiso   1.00
C249   C     0.19857   0.84412   0.82277   0.00000  Uiso   1.00
C250   C     0.19728   0.84711   0.67566   0.00000  Uiso   1.00
C251   C     0.27558   0.91544   0.08471   0.00000  Uiso   1.00
C252   C     0.31256   0.88951   0.17262   0.00000  Uiso   1.00
C253   C     0.36341   0.91326   0.18550   0.00000  Uiso   1.00
H254   H     0.25270   0.02212   0.86538   0.00000  Uiso   1.00
H255   H     0.17578   0.07660   0.98792   0.00000  Uiso   1.00
H256   H     0.23604   0.97889   0.61903   0.00000  Uiso   1.00
H257   H     0.35001   0.02428   0.96883   0.00000  Uiso   1.00
H258   H     0.08462   0.11585   0.15572   0.00000  Uiso   1.00
H259   H     0.21168   0.90981   0.37789   0.00000  Uiso   1.00
H260   H     0.45202   0.00552   0.11550   0.00000  Uiso   1.00
H261   H     0.20741   0.85920   0.11174   0.00000  Uiso   1.00
H262   H     0.12801   0.90474   0.24781   0.00000  Uiso   1.00
H263   H     0.18826   0.80702   0.87891   0.00000  Uiso   1.00
H264   H     0.30224   0.85241   0.22871   0.00000  Uiso   1.00
H265   H     0.04584   0.97636   0.36664   0.00000  Uiso   1.00
H266   H     0.17291   0.77031   0.58881   0.00000  Uiso   1.00
H267   H     0.41325   0.86603   0.32643   0.00000  Uiso   1.00
O268   O     0.01380   0.07900   0.34621   0.00000  Uiso   1.00
O269   O     0.18052   0.80867   0.32573   0.00000  Uiso   1.00
O270   O     0.49583   0.93425   0.29346   0.00000  Uiso   1.00
N271   N     0.08639   0.07678   0.18671   0.00000  Uiso   1.00
N272   N     0.20519   0.88414   0.45948   0.00000  Uiso   1.00
N273   N     0.42989   0.97362   0.14906   0.00000  Uiso   1.00
N274   N     0.06553   0.00172   0.30021   0.00000  Uiso   1.00
N275   N     0.18432   0.80908   0.57298   0.00000  Uiso   1.00
N276   N     0.40902   0.89855   0.26256   0.00000  Uiso   1.00
C277   C     0.74313   0.51382   0.57624   0.00000  Uiso   1.00
C278   C     0.69455   0.50719   0.47806   0.00000  Uiso   1.00
C279   C     0.66548   0.45963   0.45750   0.00000  Uiso   1.00
C280   C     0.62236   0.46192   0.36324   0.00000  Uiso   1.00
C281   C     0.54896   0.44431   0.22165   0.00000  Uiso   1.00
C282   C     0.72846   0.55974   0.67741   0.00000  Uiso   1.00
C283   C     0.72790   0.55637   0.82446   0.00000  Uiso   1.00
C284   C     0.71334   0.60291   0.89802   0.00000  Uiso   1.00
C285   C     0.69262   0.66690   0.06593   0.00000  Uiso   1.00
C286   C     0.78934   0.53526   0.48360   0.00000  Uiso   1.00
C287   C     0.83999   0.51132   0.46772   0.00000  Uiso   1.00
C288   C     0.87669   0.53726   0.37813   0.00000  Uiso   1.00
C289   C     0.95051   0.56324   0.24512   0.00000  Uiso   1.00
C290   C     0.71826   0.60245   0.44540   0.00000  Uiso   1.00
C291   C     0.68104   0.55533   0.40699   0.00000  Uiso   1.00
C292   C     0.63796   0.55769   0.31273   0.00000  Uiso   1.00
C293   C     0.60883   0.51015   0.29203   0.00000  Uiso   1.00
C294   C     0.71495   0.60788   0.60635   0.00000  Uiso   1.00
C295   C     0.70038   0.65443   0.67970   0.00000  Uiso   1.00
C296   C     0.69980   0.65114   0.82682   0.00000  Uiso   1.00
C297   C     0.77583   0.58340   0.41253   0.00000  Uiso   1.00
C298   C     0.81247   0.60938   0.32295   0.00000  Uiso   1.00
C299   C     0.86316   0.58549   0.30693   0.00000  Uiso   1.00
H300   H     0.75365   0.47634   0.63158   0.00000  Uiso   1.00
H301   H     0.67594   0.42238   0.51253   0.00000  Uiso   1.00
H302   H     0.73836   0.51911   0.87943   0.00000  Uiso   1.00
H303   H     0.85043   0.47407   0.52274   0.00000  Uiso   1.00
H304   H     0.58382   0.38380   0.34923   0.00000  Uiso   1.00
H305   H     0.71545   0.58776   0.12287   0.00000  Uiso   1.00
H306   H     0.95177   0.49278   0.37072   0.00000  Uiso   1.00
H307   H     0.70774   0.63993   0.39007   0.00000  Uiso   1.00
H308   H     0.62751   0.59495   0.25775   0.00000  Uiso   1.00
H309   H     0.68993   0.69168   0.62467   0.00000  Uiso   1.00
H310   H     0.80200   0.64664   0.26798   0.00000  Uiso   1.00
H311   H     0.54451   0.52387   0.14246   0.00000  Uiso   1.00
H312   H     0.67615   0.72783   0.91611   0.00000  Uiso   1.00
H313   H     0.91246   0.63285   0.16395   0.00000  Uiso   1.00
O314   O     0.51220   0.42130   0.16320   0.00000  Uiso   1.00
O315   O     0.68492   0.68889   0.17819   0.00000  Uiso   1.00
O316   O     0.99495   0.56427   0.19138   0.00000  Uiso   1.00
N317   N     0.58558   0.42294   0.31870   0.00000  Uiso   1.00
N318   N     0.70865   0.61363   0.04201   0.00000  Uiso   1.00
N319   N     0.92959   0.52483   0.33884   0.00000  Uiso   1.00
N320   N     0.56443   0.49830   0.20744   0.00000  Uiso   1.00
N321   N     0.68750   0.68899   0.93075   0.00000  Uiso   1.00
N322   N     0.90843   0.60020   0.22758   0.00000  Uiso   1.00
C323   C     0.25289   0.48564   0.58176   0.00000  Uiso   1.00
C324   C     0.30181   0.49198   0.48340   0.00000  Uiso   1.00
C325   C     0.33121   0.53937   0.46175   0.00000  Uiso   1.00
C326   C     0.37460   0.53682   0.36752   0.00000  Uiso   1.00
C327   C     0.44853   0.55399   0.22549   0.00000  Uiso   1.00
C328   C     0.26700   0.43966   0.68396   0.00000  Uiso   1.00
C329   C     0.26713   0.44305   0.83093   0.00000  Uiso   1.00
C330   C     0.28121   0.39645   0.90552   0.00000  Uiso   1.00
C331   C     0.30106   0.33238   0.07486   0.00000  Uiso   1.00
C332   C     0.20685   0.46443   0.48963   0.00000  Uiso   1.00
C333   C     0.15638   0.48865   0.47325   0.00000  Uiso   1.00
C334   C     0.11981   0.46290   0.38426   0.00000  Uiso   1.00
C335   C     0.04625   0.43730   0.25188   0.00000  Uiso   1.00
C336   C     0.27767   0.39684   0.45290   0.00000  Uiso   1.00
C337   C     0.31527   0.44375   0.41341   0.00000  Uiso   1.00
C338   C     0.35862   0.44113   0.31918   0.00000  Uiso   1.00
C339   C     0.38808   0.48850   0.29739   0.00000  Uiso   1.00
C340   C     0.28046   0.39143   0.61397   0.00000  Uiso   1.00
C341   C     0.29454   0.34481   0.68836   0.00000  Uiso   1.00
C342   C     0.29469   0.34813   0.83541   0.00000  Uiso   1.00
C343   C     0.22030   0.41620   0.41964   0.00000  Uiso   1.00
C344   C     0.18380   0.39041   0.33067   0.00000  Uiso   1.00
C345   C     0.13329   0.41459   0.31414   0.00000  Uiso   1.00
H346   H     0.24242   0.52319   0.63626   0.00000  Uiso   1.00
H347   H     0.32079   0.57669   0.51595   0.00000  Uiso   1.00
H348   H     0.25671   0.48038   0.88507   0.00000  Uiso   1.00
H349   H     0.14599   0.52597   0.52743   0.00000  Uiso   1.00
H350   H     0.41362   0.61472   0.35174   0.00000  Uiso   1.00
H351   H     0.27849   0.41165   0.13004   0.00000  Uiso   1.00
H352   H     0.04500   0.50780   0.37590   0.00000  Uiso   1.00
H353   H     0.28814   0.35929   0.39841   0.00000  Uiso   1.00
H354   H     0.36903   0.40380   0.26503   0.00000  Uiso   1.00
H355   H     0.30495   0.30749   0.63416   0.00000  Uiso   1.00
H356   H     0.19422   0.35309   0.27652   0.00000  Uiso   1.00
H357   H     0.45278   0.47440   0.14808   0.00000  Uiso   1.00
H358   H     0.31764   0.27133   0.92640   0.00000  Uiso   1.00
H359   H     0.08416   0.36747   0.17225   0.00000  Uiso   1.00
O360   O     0.48559   0.57679   0.16650   0.00000  Uiso   1.00
O361   O     0.30830   0.31037   0.18761   0.00000  Uiso   1.00
O362   O     0.00197   0.43651   0.19818   0.00000  Uiso   1.00
N363   N     0.41173   0.57559   0.32209   0.00000  Uiso   1.00
N364   N     0.28540   0.38573   0.04976   0.00000  Uiso   1.00
N365   N     0.06710   0.47562   0.34473   0.00000  Uiso   1.00
N366   N     0.43280   0.50008   0.21250   0.00000  Uiso   1.00
N367   N     0.30647   0.31023   0.94017   0.00000  Uiso   1.00
N368   N     0.08817   0.40011   0.23514   0.00000  Uiso   1.00
