data_job_01369
_audit_creation_date              2018-12-19
_audit_creation_method            'Materials Studio'
_symmetry_space_group_name_H-M    'P1'
_symmetry_Int_Tables_number       1
_symmetry_cell_setting            triclinic
loop_
_symmetry_equiv_pos_as_xyz
  x,y,z
_cell_length_a                    11.7596
_cell_length_b                    16.6489
_cell_length_c                    21.4632
_cell_angle_alpha                 90.0000
_cell_angle_beta                  140.0506
_cell_angle_gamma                 90.0000
loop_
_atom_site_label
_atom_site_type_symbol
_atom_site_fract_x
_atom_site_fract_y
_atom_site_fract_z
_atom_site_U_iso_or_equiv
_atom_site_adp_type
_atom_site_occupancy
C1     C     0.77911   0.80652   0.94375   0.00000  Uiso   1.00
C2     C     0.71778   0.89145   0.93358   0.00000  Uiso   1.00
C3     C     0.81313   0.94779   0.00747   0.00000  Uiso   1.00
C4     C     0.73395   0.02210   0.98347   0.00000  Uiso   1.00
C5     C     0.66433   0.15133   0.98207   0.00000  Uiso   1.00
C6     C     0.63654   0.75037   0.90907   0.00000  Uiso   1.00
C7     C     0.66360   0.68809   0.96235   0.00000  Uiso   1.00
C8     C     0.51603   0.64364   0.91770   0.00000  Uiso   1.00
C9     C     0.32030   0.55381   0.87823   0.00000  Uiso   1.00
C10    C     0.77042   0.79953   0.86933   0.00000  Uiso   1.00
C11    C     0.91003   0.77856   0.88919   0.00000  Uiso   1.00
C12    C     0.87516   0.77548   0.81107   0.00000  Uiso   1.00
C13    C     0.88730   0.76197   0.70989   0.00000  Uiso   1.00
C14    C     0.46893   0.83831   0.76972   0.00000  Uiso   1.00
C15    C     0.54930   0.90871   0.83905   0.00000  Uiso   1.00
C16    C     0.46996   0.98295   0.81492   0.00000  Uiso   1.00
C17    C     0.56518   0.03940   0.88877   0.00000  Uiso   1.00
C18    C     0.46807   0.76763   0.81455   0.00000  Uiso   1.00
C19    C     0.32042   0.72326   0.76981   0.00000  Uiso   1.00
C20    C     0.34724   0.66094   0.82301   0.00000  Uiso   1.00
C21    C     0.60194   0.81679   0.77480   0.00000  Uiso   1.00
C22    C     0.56685   0.81373   0.69664   0.00000  Uiso   1.00
C23    C     0.70638   0.79277   0.71637   0.00000  Uiso   1.00
H24    H     0.91027   0.79308   0.01734   0.00000  Uiso   1.00
H25    H     0.94351   0.93440   0.08062   0.00000  Uiso   1.00
H26    H     0.79400   0.67474   0.03550   0.00000  Uiso   1.00
H27    H     0.04039   0.76521   0.96235   0.00000  Uiso   1.00
H28    H     0.90603   0.09869   0.10910   0.00000  Uiso   1.00
H29    H     0.59079   0.55117   0.01395   0.00000  Uiso   1.00
H30    H     0.11036   0.74192   0.85969   0.00000  Uiso   1.00
H31    H     0.33775   0.85174   0.69612   0.00000  Uiso   1.00
H32    H     0.33958   0.99630   0.74177   0.00000  Uiso   1.00
H33    H     0.19007   0.73663   0.69665   0.00000  Uiso   1.00
H34    H     0.43646   0.82710   0.62350   0.00000  Uiso   1.00
H35    H     0.41586   0.14893   0.83407   0.00000  Uiso   1.00
H36    H     0.10062   0.60140   0.73892   0.00000  Uiso   1.00
H37    H     0.62018   0.79215   0.58466   0.00000  Uiso   1.00
O38    O     0.67245   0.21783   0.00742   0.00000  Uiso   1.00
O39    O     0.25888   0.49950   0.88258   0.00000  Uiso   1.00
O40    O     0.94053   0.74976   0.68020   0.00000  Uiso   1.00
N41    N     0.79044   0.09068   0.03810   0.00000  Uiso   1.00
N42    N     0.49570   0.57879   0.94915   0.00000  Uiso   1.00
N43    N     0.98144   0.75710   0.80492   0.00000  Uiso   1.00
N44    N     0.52668   0.11771   0.89011   0.00000  Uiso   1.00
N45    N     0.23194   0.60582   0.80116   0.00000  Uiso   1.00
N46    N     0.71768   0.78413   0.65694   0.00000  Uiso   1.00
C47    C     0.22089   0.30652   0.55625   0.00000  Uiso   1.00
C48    C     0.28222   0.39145   0.56642   0.00000  Uiso   1.00
C49    C     0.18687   0.44779   0.49253   0.00000  Uiso   1.00
C50    C     0.26605   0.52210   0.51653   0.00000  Uiso   1.00
C51    C     0.33567   0.65133   0.51793   0.00000  Uiso   1.00
C52    C     0.36346   0.25037   0.59093   0.00000  Uiso   1.00
C53    C     0.33640   0.18809   0.53765   0.00000  Uiso   1.00
C54    C     0.48397   0.14364   0.58230   0.00000  Uiso   1.00
C55    C     0.67970   0.05381   0.62177   0.00000  Uiso   1.00
C56    C     0.22958   0.29953   0.63067   0.00000  Uiso   1.00
C57    C     0.08997   0.27856   0.61081   0.00000  Uiso   1.00
C58    C     0.12484   0.27548   0.68893   0.00000  Uiso   1.00
C59    C     0.11270   0.26197   0.79011   0.00000  Uiso   1.00
C60    C     0.53107   0.33831   0.73028   0.00000  Uiso   1.00
C61    C     0.45070   0.40871   0.66095   0.00000  Uiso   1.00
C62    C     0.53004   0.48295   0.68508   0.00000  Uiso   1.00
C63    C     0.43482   0.53940   0.61123   0.00000  Uiso   1.00
C64    C     0.53193   0.26763   0.68545   0.00000  Uiso   1.00
C65    C     0.67958   0.22326   0.73019   0.00000  Uiso   1.00
C66    C     0.65276   0.16094   0.67699   0.00000  Uiso   1.00
C67    C     0.39806   0.31679   0.72520   0.00000  Uiso   1.00
C68    C     0.43315   0.31373   0.80336   0.00000  Uiso   1.00
C69    C     0.29362   0.29277   0.78363   0.00000  Uiso   1.00
H70    H     0.08973   0.29308   0.48266   0.00000  Uiso   1.00
H71    H     0.05649   0.43440   0.41938   0.00000  Uiso   1.00
H72    H     0.20600   0.17474   0.46450   0.00000  Uiso   1.00
H73    H     0.95961   0.26521   0.53765   0.00000  Uiso   1.00
H74    H     0.09397   0.59869   0.39090   0.00000  Uiso   1.00
H75    H     0.40921   0.05117   0.48605   0.00000  Uiso   1.00
H76    H     0.88964   0.24192   0.64031   0.00000  Uiso   1.00
H77    H     0.66225   0.35174   0.80388   0.00000  Uiso   1.00
H78    H     0.66042   0.49630   0.75823   0.00000  Uiso   1.00
H79    H     0.80993   0.23663   0.80335   0.00000  Uiso   1.00
H80    H     0.56354   0.32710   0.87650   0.00000  Uiso   1.00
H81    H     0.58414   0.64893   0.66593   0.00000  Uiso   1.00
H82    H     0.89938   0.10140   0.76108   0.00000  Uiso   1.00
H83    H     0.37982   0.29215   0.91534   0.00000  Uiso   1.00
O84    O     0.32755   0.71783   0.49258   0.00000  Uiso   1.00
O85    O     0.74112   0.99950   0.61742   0.00000  Uiso   1.00
O86    O     0.05947   0.24976   0.81980   0.00000  Uiso   1.00
N87    N     0.20956   0.59068   0.46190   0.00000  Uiso   1.00
N88    N     0.50430   0.07879   0.55085   0.00000  Uiso   1.00
N89    N     0.01856   0.25710   0.69508   0.00000  Uiso   1.00
N90    N     0.47332   0.61771   0.60989   0.00000  Uiso   1.00
N91    N     0.76806   0.10582   0.69884   0.00000  Uiso   1.00
N92    N     0.28232   0.28413   0.84306   0.00000  Uiso   1.00
C93    C     0.22089   0.19348   0.05625   0.00000  Uiso   1.00
C94    C     0.28222   0.10855   0.06642   0.00000  Uiso   1.00
C95    C     0.18687   0.05221   0.99253   0.00000  Uiso   1.00
C96    C     0.26605   0.97790   0.01653   0.00000  Uiso   1.00
C97    C     0.33567   0.84867   0.01793   0.00000  Uiso   1.00
C98    C     0.36346   0.24963   0.09093   0.00000  Uiso   1.00
C99    C     0.33640   0.31191   0.03765   0.00000  Uiso   1.00
C100   C     0.48397   0.35636   0.08230   0.00000  Uiso   1.00
C101   C     0.67970   0.44619   0.12177   0.00000  Uiso   1.00
C102   C     0.22958   0.20047   0.13067   0.00000  Uiso   1.00
C103   C     0.08997   0.22144   0.11081   0.00000  Uiso   1.00
C104   C     0.12484   0.22452   0.18893   0.00000  Uiso   1.00
C105   C     0.11270   0.23803   0.29011   0.00000  Uiso   1.00
C106   C     0.53107   0.16169   0.23028   0.00000  Uiso   1.00
C107   C     0.45070   0.09129   0.16095   0.00000  Uiso   1.00
C108   C     0.53004   0.01705   0.18508   0.00000  Uiso   1.00
C109   C     0.43482   0.96060   0.11123   0.00000  Uiso   1.00
C110   C     0.53193   0.23237   0.18545   0.00000  Uiso   1.00
C111   C     0.67958   0.27674   0.23019   0.00000  Uiso   1.00
C112   C     0.65276   0.33906   0.17699   0.00000  Uiso   1.00
C113   C     0.39806   0.18321   0.22520   0.00000  Uiso   1.00
C114   C     0.43315   0.18627   0.30336   0.00000  Uiso   1.00
C115   C     0.29362   0.20723   0.28363   0.00000  Uiso   1.00
H116   H     0.08973   0.20692   0.98266   0.00000  Uiso   1.00
H117   H     0.05649   0.06560   0.91938   0.00000  Uiso   1.00
H118   H     0.20600   0.32526   0.96450   0.00000  Uiso   1.00
H119   H     0.95961   0.23479   0.03765   0.00000  Uiso   1.00
H120   H     0.09397   0.90131   0.89090   0.00000  Uiso   1.00
H121   H     0.40921   0.44883   0.98605   0.00000  Uiso   1.00
H122   H     0.88964   0.25808   0.14031   0.00000  Uiso   1.00
H123   H     0.66225   0.14826   0.30388   0.00000  Uiso   1.00
H124   H     0.66042   0.00370   0.25823   0.00000  Uiso   1.00
H125   H     0.80993   0.26337   0.30335   0.00000  Uiso   1.00
H126   H     0.56354   0.17290   0.37650   0.00000  Uiso   1.00
H127   H     0.58414   0.85107   0.16593   0.00000  Uiso   1.00
H128   H     0.89938   0.39860   0.26108   0.00000  Uiso   1.00
H129   H     0.37982   0.20785   0.41534   0.00000  Uiso   1.00
O130   O     0.32755   0.78217   0.99258   0.00000  Uiso   1.00
O131   O     0.74112   0.50050   0.11742   0.00000  Uiso   1.00
O132   O     0.05947   0.25024   0.31980   0.00000  Uiso   1.00
N133   N     0.20956   0.90932   0.96190   0.00000  Uiso   1.00
N134   N     0.50430   0.42121   0.05085   0.00000  Uiso   1.00
N135   N     0.01856   0.24290   0.19508   0.00000  Uiso   1.00
N136   N     0.47332   0.88229   0.10989   0.00000  Uiso   1.00
N137   N     0.76806   0.39418   0.19884   0.00000  Uiso   1.00
N138   N     0.28232   0.21587   0.34306   0.00000  Uiso   1.00
C139   C     0.77911   0.69348   0.44375   0.00000  Uiso   1.00
C140   C     0.71778   0.60855   0.43358   0.00000  Uiso   1.00
C141   C     0.81313   0.55221   0.50747   0.00000  Uiso   1.00
C142   C     0.73395   0.47790   0.48347   0.00000  Uiso   1.00
C143   C     0.66433   0.34867   0.48207   0.00000  Uiso   1.00
C144   C     0.63654   0.74963   0.40907   0.00000  Uiso   1.00
C145   C     0.66360   0.81191   0.46235   0.00000  Uiso   1.00
C146   C     0.51603   0.85636   0.41770   0.00000  Uiso   1.00
C147   C     0.32030   0.94619   0.37823   0.00000  Uiso   1.00
C148   C     0.77042   0.70047   0.36933   0.00000  Uiso   1.00
C149   C     0.91003   0.72144   0.38919   0.00000  Uiso   1.00
C150   C     0.87516   0.72452   0.31107   0.00000  Uiso   1.00
C151   C     0.88730   0.73803   0.20989   0.00000  Uiso   1.00
C152   C     0.46893   0.66169   0.26972   0.00000  Uiso   1.00
C153   C     0.54930   0.59129   0.33905   0.00000  Uiso   1.00
C154   C     0.46996   0.51705   0.31492   0.00000  Uiso   1.00
C155   C     0.56518   0.46060   0.38877   0.00000  Uiso   1.00
C156   C     0.46807   0.73237   0.31455   0.00000  Uiso   1.00
C157   C     0.32042   0.77674   0.26981   0.00000  Uiso   1.00
C158   C     0.34724   0.83906   0.32301   0.00000  Uiso   1.00
C159   C     0.60194   0.68321   0.27480   0.00000  Uiso   1.00
C160   C     0.56685   0.68627   0.19664   0.00000  Uiso   1.00
C161   C     0.70638   0.70723   0.21637   0.00000  Uiso   1.00
H162   H     0.91027   0.70692   0.51734   0.00000  Uiso   1.00
H163   H     0.94351   0.56560   0.58062   0.00000  Uiso   1.00
H164   H     0.79400   0.82526   0.53550   0.00000  Uiso   1.00
H165   H     0.04039   0.73479   0.46235   0.00000  Uiso   1.00
H166   H     0.90603   0.40131   0.60910   0.00000  Uiso   1.00
H167   H     0.59079   0.94883   0.51395   0.00000  Uiso   1.00
H168   H     0.11036   0.75808   0.35969   0.00000  Uiso   1.00
H169   H     0.33775   0.64826   0.19612   0.00000  Uiso   1.00
H170   H     0.33958   0.50370   0.24177   0.00000  Uiso   1.00
H171   H     0.19007   0.76337   0.19665   0.00000  Uiso   1.00
H172   H     0.43646   0.67290   0.12350   0.00000  Uiso   1.00
H173   H     0.41586   0.35107   0.33407   0.00000  Uiso   1.00
H174   H     0.10062   0.89860   0.23892   0.00000  Uiso   1.00
H175   H     0.62018   0.70785   0.08466   0.00000  Uiso   1.00
O176   O     0.67245   0.28217   0.50742   0.00000  Uiso   1.00
O177   O     0.25888   0.00050   0.38258   0.00000  Uiso   1.00
O178   O     0.94053   0.75024   0.18020   0.00000  Uiso   1.00
N179   N     0.79044   0.40932   0.53810   0.00000  Uiso   1.00
N180   N     0.49570   0.92121   0.44915   0.00000  Uiso   1.00
N181   N     0.98144   0.74290   0.30492   0.00000  Uiso   1.00
N182   N     0.52668   0.38229   0.39011   0.00000  Uiso   1.00
N183   N     0.23194   0.89418   0.30116   0.00000  Uiso   1.00
N184   N     0.71768   0.71587   0.15694   0.00000  Uiso   1.00
