data_job_01446
_audit_creation_date              2018-12-19
_audit_creation_method            'Materials Studio'
_symmetry_space_group_name_H-M    'P1'
_symmetry_Int_Tables_number       1
_symmetry_cell_setting            triclinic
loop_
_symmetry_equiv_pos_as_xyz
  x,y,z
_cell_length_a                    10.0603
_cell_length_b                    12.0815
_cell_length_c                    12.4017
_cell_angle_alpha                 70.5435
_cell_angle_beta                  82.2656
_cell_angle_gamma                 97.5446
loop_
_atom_site_label
_atom_site_type_symbol
_atom_site_fract_x
_atom_site_fract_y
_atom_site_fract_z
_atom_site_U_iso_or_equiv
_atom_site_adp_type
_atom_site_occupancy
C1     C     0.80757   0.30546   0.67324   0.00000  Uiso   1.00
C2     C     0.86173   0.26032   0.57794   0.00000  Uiso   1.00
C3     C     0.97152   0.31976   0.48692   0.00000  Uiso   1.00
C4     C     0.00506   0.26351   0.40871   0.00000  Uiso   1.00
C5     C     0.10033   0.21044   0.25879   0.00000  Uiso   1.00
C6     C     0.65696   0.30677   0.66907   0.00000  Uiso   1.00
C7     C     0.59459   0.40526   0.65471   0.00000  Uiso   1.00
C8     C     0.45574   0.38810   0.65323   0.00000  Uiso   1.00
C9     C     0.23309   0.40712   0.64489   0.00000  Uiso   1.00
C10    C     0.81102   0.20841   0.78844   0.00000  Uiso   1.00
C11    C     0.87815   0.22419   0.87446   0.00000  Uiso   1.00
C12    C     0.86899   0.12422   0.97350   0.00000  Uiso   1.00
C13    C     0.88553   0.99051   0.15050   0.00000  Uiso   1.00
C14    C     0.67189   0.09988   0.69619   0.00000  Uiso   1.00
C15    C     0.78803   0.14866   0.59040   0.00000  Uiso   1.00
C16    C     0.82141   0.09231   0.51231   0.00000  Uiso   1.00
C17    C     0.93124   0.15165   0.42120   0.00000  Uiso   1.00
C18    C     0.58326   0.19511   0.68154   0.00000  Uiso   1.00
C19    C     0.44448   0.17781   0.68009   0.00000  Uiso   1.00
C20    C     0.38191   0.27624   0.66572   0.00000  Uiso   1.00
C21    C     0.73733   0.09674   0.80091   0.00000  Uiso   1.00
C22    C     0.72804   0.99673   0.89984   0.00000  Uiso   1.00
C23    C     0.79515   0.01236   0.98599   0.00000  Uiso   1.00
H24    H     0.86493   0.39239   0.66354   0.00000  Uiso   1.00
H25    H     0.02852   0.40618   0.47730   0.00000  Uiso   1.00
H26    H     0.65164   0.49165   0.64507   0.00000  Uiso   1.00
H27    H     0.93517   0.31061   0.86478   0.00000  Uiso   1.00
H28    H     0.17736   0.37223   0.27629   0.00000  Uiso   1.00
H29    H     0.38268   0.55246   0.63008   0.00000  Uiso   1.00
H30    H     0.98055   0.17069   0.09340   0.00000  Uiso   1.00
H31    H     0.61450   0.01294   0.70590   0.00000  Uiso   1.00
H32    H     0.76436   0.00590   0.52198   0.00000  Uiso   1.00
H33    H     0.38748   0.09138   0.68974   0.00000  Uiso   1.00
H34    H     0.67100   0.91034   0.90946   0.00000  Uiso   1.00
H35    H     0.96295   0.04735   0.31255   0.00000  Uiso   1.00
H36    H     0.16827   0.22758   0.66634   0.00000  Uiso   1.00
H37    H     0.76614   0.84582   0.12965   0.00000  Uiso   1.00
O38    O     0.17322   0.21203   0.17265   0.00000  Uiso   1.00
O39    O     0.13064   0.44847   0.63683   0.00000  Uiso   1.00
O40    O     0.91503   0.94760   0.24468   0.00000  Uiso   1.00
N41    N     0.10635   0.29673   0.31008   0.00000  Uiso   1.00
N42    N     0.36338   0.46523   0.64083   0.00000  Uiso   1.00
N43    N     0.92230   0.10832   0.07401   0.00000  Uiso   1.00
N44    N     0.99098   0.12191   0.32959   0.00000  Uiso   1.00
N45    N     0.24801   0.29042   0.66034   0.00000  Uiso   1.00
N46    N     0.80693   0.93351   0.09352   0.00000  Uiso   1.00
C47    C     0.19243   0.69454   0.32676   0.00000  Uiso   1.00
C48    C     0.13827   0.73968   0.42206   0.00000  Uiso   1.00
C49    C     0.02848   0.68024   0.51308   0.00000  Uiso   1.00
C50    C     0.99494   0.73649   0.59129   0.00000  Uiso   1.00
C51    C     0.89967   0.78956   0.74121   0.00000  Uiso   1.00
C52    C     0.34304   0.69323   0.33093   0.00000  Uiso   1.00
C53    C     0.40541   0.59474   0.34529   0.00000  Uiso   1.00
C54    C     0.54426   0.61190   0.34677   0.00000  Uiso   1.00
C55    C     0.76691   0.59288   0.35511   0.00000  Uiso   1.00
C56    C     0.18898   0.79159   0.21156   0.00000  Uiso   1.00
C57    C     0.12185   0.77581   0.12554   0.00000  Uiso   1.00
C58    C     0.13101   0.87578   0.02650   0.00000  Uiso   1.00
C59    C     0.11447   0.00949   0.84950   0.00000  Uiso   1.00
C60    C     0.32811   0.90012   0.30381   0.00000  Uiso   1.00
C61    C     0.21197   0.85134   0.40960   0.00000  Uiso   1.00
C62    C     0.17859   0.90769   0.48769   0.00000  Uiso   1.00
C63    C     0.06876   0.84835   0.57880   0.00000  Uiso   1.00
C64    C     0.41674   0.80489   0.31846   0.00000  Uiso   1.00
C65    C     0.55552   0.82219   0.31991   0.00000  Uiso   1.00
C66    C     0.61809   0.72376   0.33428   0.00000  Uiso   1.00
C67    C     0.26267   0.90326   0.19909   0.00000  Uiso   1.00
C68    C     0.27196   0.00327   0.10016   0.00000  Uiso   1.00
C69    C     0.20485   0.98764   0.01401   0.00000  Uiso   1.00
H70    H     0.13507   0.60761   0.33646   0.00000  Uiso   1.00
H71    H     0.97148   0.59382   0.52270   0.00000  Uiso   1.00
H72    H     0.34836   0.50835   0.35493   0.00000  Uiso   1.00
H73    H     0.06483   0.68939   0.13522   0.00000  Uiso   1.00
H74    H     0.82264   0.62777   0.72371   0.00000  Uiso   1.00
H75    H     0.61732   0.44754   0.36992   0.00000  Uiso   1.00
H76    H     0.01945   0.82931   0.90660   0.00000  Uiso   1.00
H77    H     0.38550   0.98706   0.29410   0.00000  Uiso   1.00
H78    H     0.23564   0.99410   0.47802   0.00000  Uiso   1.00
H79    H     0.61252   0.90862   0.31026   0.00000  Uiso   1.00
H80    H     0.32900   0.08966   0.09054   0.00000  Uiso   1.00
H81    H     0.03705   0.95265   0.68745   0.00000  Uiso   1.00
H82    H     0.83173   0.77242   0.33366   0.00000  Uiso   1.00
H83    H     0.23386   0.15418   0.87035   0.00000  Uiso   1.00
O84    O     0.82678   0.78797   0.82735   0.00000  Uiso   1.00
O85    O     0.86936   0.55153   0.36317   0.00000  Uiso   1.00
O86    O     0.08497   0.05240   0.75532   0.00000  Uiso   1.00
N87    N     0.89365   0.70327   0.68992   0.00000  Uiso   1.00
N88    N     0.63662   0.53477   0.35917   0.00000  Uiso   1.00
N89    N     0.07770   0.89168   0.92599   0.00000  Uiso   1.00
N90    N     0.00902   0.87809   0.67041   0.00000  Uiso   1.00
N91    N     0.75199   0.70958   0.33966   0.00000  Uiso   1.00
N92    N     0.19307   0.06649   0.90648   0.00000  Uiso   1.00
