data_job_05357
_audit_creation_date              2018-12-19
_audit_creation_method            'Materials Studio'
_symmetry_space_group_name_H-M    'P1'
_symmetry_Int_Tables_number       1
_symmetry_cell_setting            triclinic
loop_
_symmetry_equiv_pos_as_xyz
  x,y,z
_cell_length_a                    13.4965
_cell_length_b                    10.2230
_cell_length_c                    19.4268
_cell_angle_alpha                 90.0000
_cell_angle_beta                  90.0000
_cell_angle_gamma                 90.0000
loop_
_atom_site_label
_atom_site_type_symbol
_atom_site_fract_x
_atom_site_fract_y
_atom_site_fract_z
_atom_site_U_iso_or_equiv
_atom_site_adp_type
_atom_site_occupancy
C1     C     0.22831   0.83657   0.79462   0.00000  Uiso   1.00
C2     C     0.32643   0.80748   0.83040   0.00000  Uiso   1.00
C3     C     0.38824   0.89932   0.86079   0.00000  Uiso   1.00
C4     C     0.47473   0.85303   0.89085   0.00000  Uiso   1.00
C5     C     0.62350   0.82816   0.94644   0.00000  Uiso   1.00
C6     C     0.23775   0.78100   0.72207   0.00000  Uiso   1.00
C7     C     0.22497   0.85058   0.66137   0.00000  Uiso   1.00
C8     C     0.23680   0.78199   0.60023   0.00000  Uiso   1.00
C9     C     0.24781   0.71599   0.48762   0.00000  Uiso   1.00
C10    C     0.15070   0.75297   0.83093   0.00000  Uiso   1.00
C11    C     0.06473   0.79897   0.86175   0.00000  Uiso   1.00
C12    C     0.00325   0.70678   0.89226   0.00000  Uiso   1.00
C13    C     0.87912   0.59725   0.94868   0.00000  Uiso   1.00
C14    C     0.27200   0.59105   0.79397   0.00000  Uiso   1.00
C15    C     0.35016   0.67412   0.83005   0.00000  Uiso   1.00
C16    C     0.43658   0.62768   0.86007   0.00000  Uiso   1.00
C17    C     0.49851   0.71944   0.89050   0.00000  Uiso   1.00
C18    C     0.26148   0.64765   0.72171   0.00000  Uiso   1.00
C19    C     0.27331   0.57894   0.66065   0.00000  Uiso   1.00
C20    C     0.26057   0.64840   0.59987   0.00000  Uiso   1.00
C21    C     0.17443   0.61961   0.83058   0.00000  Uiso   1.00
C22    C     0.11307   0.52733   0.86104   0.00000  Uiso   1.00
C23    C     0.02703   0.57318   0.89190   0.00000  Uiso   1.00
H24    H     0.20983   0.94039   0.79489   0.00000  Uiso   1.00
H25    H     0.36985   0.00251   0.86105   0.00000  Uiso   1.00
H26    H     0.20660   0.95377   0.66166   0.00000  Uiso   1.00
H27    H     0.04639   0.90217   0.86202   0.00000  Uiso   1.00
H28    H     0.55775   0.01259   0.93422   0.00000  Uiso   1.00
H29    H     0.21349   0.90981   0.51379   0.00000  Uiso   1.00
H30    H     0.87564   0.80099   0.93629   0.00000  Uiso   1.00
H31    H     0.29048   0.48722   0.79369   0.00000  Uiso   1.00
H32    H     0.45492   0.52448   0.85979   0.00000  Uiso   1.00
H33    H     0.29167   0.47575   0.66040   0.00000  Uiso   1.00
H34    H     0.13146   0.42414   0.86076   0.00000  Uiso   1.00
H35    H     0.62680   0.62460   0.93319   0.00000  Uiso   1.00
H36    H     0.28253   0.52182   0.51277   0.00000  Uiso   1.00
H37    H     0.94469   0.41301   0.93526   0.00000  Uiso   1.00
O38    O     0.69901   0.85129   0.97718   0.00000  Uiso   1.00
O39    O     0.24734   0.71644   0.42561   0.00000  Uiso   1.00
O40    O     0.80410   0.57368   0.97991   0.00000  Uiso   1.00
N41    N     0.55142   0.91616   0.92492   0.00000  Uiso   1.00
N42    N     0.22958   0.82007   0.53185   0.00000  Uiso   1.00
N43    N     0.91370   0.71834   0.92683   0.00000  Uiso   1.00
N44    N     0.58858   0.70739   0.92437   0.00000  Uiso   1.00
N45    N     0.26673   0.61130   0.53130   0.00000  Uiso   1.00
N46    N     0.95086   0.50956   0.92628   0.00000  Uiso   1.00
C47    C     0.27169   0.16343   0.29462   0.00000  Uiso   1.00
C48    C     0.17357   0.19252   0.33040   0.00000  Uiso   1.00
C49    C     0.11176   0.10068   0.36079   0.00000  Uiso   1.00
C50    C     0.02527   0.14697   0.39085   0.00000  Uiso   1.00
C51    C     0.87650   0.17184   0.44644   0.00000  Uiso   1.00
C52    C     0.26225   0.21900   0.22207   0.00000  Uiso   1.00
C53    C     0.27503   0.14942   0.16137   0.00000  Uiso   1.00
C54    C     0.26320   0.21801   0.10023   0.00000  Uiso   1.00
C55    C     0.25219   0.28401   0.98762   0.00000  Uiso   1.00
C56    C     0.34930   0.24703   0.33093   0.00000  Uiso   1.00
C57    C     0.43527   0.20103   0.36175   0.00000  Uiso   1.00
C58    C     0.49675   0.29322   0.39226   0.00000  Uiso   1.00
C59    C     0.62088   0.40275   0.44868   0.00000  Uiso   1.00
C60    C     0.22800   0.40895   0.29397   0.00000  Uiso   1.00
C61    C     0.14984   0.32588   0.33005   0.00000  Uiso   1.00
C62    C     0.06342   0.37232   0.36007   0.00000  Uiso   1.00
C63    C     0.00149   0.28056   0.39050   0.00000  Uiso   1.00
C64    C     0.23852   0.35235   0.22171   0.00000  Uiso   1.00
C65    C     0.22669   0.42106   0.16065   0.00000  Uiso   1.00
C66    C     0.23943   0.35160   0.09987   0.00000  Uiso   1.00
C67    C     0.32557   0.38039   0.33058   0.00000  Uiso   1.00
C68    C     0.38693   0.47267   0.36104   0.00000  Uiso   1.00
C69    C     0.47297   0.42682   0.39190   0.00000  Uiso   1.00
H70    H     0.29017   0.05961   0.29489   0.00000  Uiso   1.00
H71    H     0.13015   0.99749   0.36105   0.00000  Uiso   1.00
H72    H     0.29340   0.04623   0.16166   0.00000  Uiso   1.00
H73    H     0.45361   0.09783   0.36202   0.00000  Uiso   1.00
H74    H     0.94225   0.98741   0.43422   0.00000  Uiso   1.00
H75    H     0.28651   0.09019   0.01379   0.00000  Uiso   1.00
H76    H     0.62436   0.19901   0.43629   0.00000  Uiso   1.00
H77    H     0.20952   0.51278   0.29369   0.00000  Uiso   1.00
H78    H     0.04508   0.47552   0.35979   0.00000  Uiso   1.00
H79    H     0.20833   0.52425   0.16040   0.00000  Uiso   1.00
H80    H     0.36854   0.57586   0.36076   0.00000  Uiso   1.00
H81    H     0.87320   0.37540   0.43319   0.00000  Uiso   1.00
H82    H     0.21747   0.47818   0.01277   0.00000  Uiso   1.00
H83    H     0.55531   0.58699   0.43526   0.00000  Uiso   1.00
O84    O     0.80099   0.14871   0.47718   0.00000  Uiso   1.00
O85    O     0.25266   0.28356   0.92561   0.00000  Uiso   1.00
O86    O     0.69590   0.42632   0.47991   0.00000  Uiso   1.00
N87    N     0.94858   0.08384   0.42492   0.00000  Uiso   1.00
N88    N     0.27042   0.17993   0.03185   0.00000  Uiso   1.00
N89    N     0.58630   0.28166   0.42683   0.00000  Uiso   1.00
N90    N     0.91142   0.29261   0.42437   0.00000  Uiso   1.00
N91    N     0.23327   0.38870   0.03130   0.00000  Uiso   1.00
N92    N     0.54914   0.49044   0.42628   0.00000  Uiso   1.00
C93    C     0.77169   0.33657   0.70538   0.00000  Uiso   1.00
C94    C     0.67357   0.30748   0.66960   0.00000  Uiso   1.00
C95    C     0.61176   0.39932   0.63921   0.00000  Uiso   1.00
C96    C     0.52527   0.35303   0.60915   0.00000  Uiso   1.00
C97    C     0.37650   0.32816   0.55356   0.00000  Uiso   1.00
C98    C     0.76225   0.28100   0.77793   0.00000  Uiso   1.00
C99    C     0.77503   0.35058   0.83863   0.00000  Uiso   1.00
C100   C     0.76320   0.28199   0.89977   0.00000  Uiso   1.00
C101   C     0.75219   0.21599   0.01238   0.00000  Uiso   1.00
C102   C     0.84930   0.25297   0.66907   0.00000  Uiso   1.00
C103   C     0.93527   0.29897   0.63825   0.00000  Uiso   1.00
C104   C     0.99675   0.20678   0.60774   0.00000  Uiso   1.00
C105   C     0.12088   0.09725   0.55132   0.00000  Uiso   1.00
C106   C     0.72800   0.09105   0.70603   0.00000  Uiso   1.00
C107   C     0.64984   0.17412   0.66995   0.00000  Uiso   1.00
C108   C     0.56342   0.12768   0.63993   0.00000  Uiso   1.00
C109   C     0.50149   0.21944   0.60950   0.00000  Uiso   1.00
C110   C     0.73852   0.14765   0.77829   0.00000  Uiso   1.00
C111   C     0.72669   0.07894   0.83935   0.00000  Uiso   1.00
C112   C     0.73943   0.14840   0.90013   0.00000  Uiso   1.00
C113   C     0.82557   0.11961   0.66942   0.00000  Uiso   1.00
C114   C     0.88693   0.02733   0.63896   0.00000  Uiso   1.00
C115   C     0.97297   0.07318   0.60810   0.00000  Uiso   1.00
H116   H     0.79017   0.44039   0.70511   0.00000  Uiso   1.00
H117   H     0.63015   0.50251   0.63895   0.00000  Uiso   1.00
H118   H     0.79340   0.45377   0.83834   0.00000  Uiso   1.00
H119   H     0.95361   0.40217   0.63798   0.00000  Uiso   1.00
H120   H     0.44225   0.51259   0.56578   0.00000  Uiso   1.00
H121   H     0.78651   0.40981   0.98621   0.00000  Uiso   1.00
H122   H     0.12436   0.30099   0.56371   0.00000  Uiso   1.00
H123   H     0.70952   0.98722   0.70631   0.00000  Uiso   1.00
H124   H     0.54508   0.02448   0.64021   0.00000  Uiso   1.00
H125   H     0.70833   0.97575   0.83960   0.00000  Uiso   1.00
H126   H     0.86854   0.92414   0.63924   0.00000  Uiso   1.00
H127   H     0.37320   0.12460   0.56681   0.00000  Uiso   1.00
H128   H     0.71747   0.02182   0.98723   0.00000  Uiso   1.00
H129   H     0.05531   0.91301   0.56474   0.00000  Uiso   1.00
O130   O     0.30099   0.35129   0.52282   0.00000  Uiso   1.00
O131   O     0.75266   0.21644   0.07439   0.00000  Uiso   1.00
O132   O     0.19590   0.07368   0.52009   0.00000  Uiso   1.00
N133   N     0.44858   0.41616   0.57508   0.00000  Uiso   1.00
N134   N     0.77042   0.32007   0.96815   0.00000  Uiso   1.00
N135   N     0.08630   0.21834   0.57317   0.00000  Uiso   1.00
N136   N     0.41142   0.20739   0.57563   0.00000  Uiso   1.00
N137   N     0.73327   0.11130   0.96870   0.00000  Uiso   1.00
N138   N     0.04914   0.00956   0.57372   0.00000  Uiso   1.00
C139   C     0.72831   0.66343   0.20538   0.00000  Uiso   1.00
C140   C     0.82643   0.69252   0.16960   0.00000  Uiso   1.00
C141   C     0.88824   0.60068   0.13921   0.00000  Uiso   1.00
C142   C     0.97473   0.64697   0.10915   0.00000  Uiso   1.00
C143   C     0.12350   0.67184   0.05356   0.00000  Uiso   1.00
C144   C     0.73775   0.71900   0.27793   0.00000  Uiso   1.00
C145   C     0.72497   0.64942   0.33863   0.00000  Uiso   1.00
C146   C     0.73680   0.71801   0.39977   0.00000  Uiso   1.00
C147   C     0.74781   0.78401   0.51238   0.00000  Uiso   1.00
C148   C     0.65070   0.74703   0.16907   0.00000  Uiso   1.00
C149   C     0.56473   0.70103   0.13825   0.00000  Uiso   1.00
C150   C     0.50325   0.79322   0.10774   0.00000  Uiso   1.00
C151   C     0.37912   0.90275   0.05132   0.00000  Uiso   1.00
C152   C     0.77200   0.90895   0.20603   0.00000  Uiso   1.00
C153   C     0.85016   0.82588   0.16995   0.00000  Uiso   1.00
C154   C     0.93658   0.87232   0.13993   0.00000  Uiso   1.00
C155   C     0.99851   0.78056   0.10950   0.00000  Uiso   1.00
C156   C     0.76148   0.85235   0.27829   0.00000  Uiso   1.00
C157   C     0.77331   0.92106   0.33935   0.00000  Uiso   1.00
C158   C     0.76057   0.85160   0.40013   0.00000  Uiso   1.00
C159   C     0.67443   0.88039   0.16942   0.00000  Uiso   1.00
C160   C     0.61307   0.97267   0.13896   0.00000  Uiso   1.00
C161   C     0.52703   0.92682   0.10810   0.00000  Uiso   1.00
H162   H     0.70983   0.55961   0.20511   0.00000  Uiso   1.00
H163   H     0.86985   0.49749   0.13895   0.00000  Uiso   1.00
H164   H     0.70660   0.54623   0.33834   0.00000  Uiso   1.00
H165   H     0.54639   0.59783   0.13798   0.00000  Uiso   1.00
H166   H     0.05775   0.48741   0.06578   0.00000  Uiso   1.00
H167   H     0.71349   0.59019   0.48621   0.00000  Uiso   1.00
H168   H     0.37564   0.69901   0.06371   0.00000  Uiso   1.00
H169   H     0.79048   0.01278   0.20631   0.00000  Uiso   1.00
H170   H     0.95492   0.97552   0.14021   0.00000  Uiso   1.00
H171   H     0.79167   0.02425   0.33960   0.00000  Uiso   1.00
H172   H     0.63146   0.07586   0.13924   0.00000  Uiso   1.00
H173   H     0.12680   0.87540   0.06681   0.00000  Uiso   1.00
H174   H     0.78253   0.97818   0.48723   0.00000  Uiso   1.00
H175   H     0.44469   0.08699   0.06474   0.00000  Uiso   1.00
O176   O     0.19901   0.64871   0.02282   0.00000  Uiso   1.00
O177   O     0.74734   0.78356   0.57439   0.00000  Uiso   1.00
O178   O     0.30410   0.92632   0.02009   0.00000  Uiso   1.00
N179   N     0.05142   0.58384   0.07508   0.00000  Uiso   1.00
N180   N     0.72958   0.67993   0.46815   0.00000  Uiso   1.00
N181   N     0.41370   0.78166   0.07317   0.00000  Uiso   1.00
N182   N     0.08858   0.79261   0.07563   0.00000  Uiso   1.00
N183   N     0.76673   0.88870   0.46870   0.00000  Uiso   1.00
N184   N     0.45086   0.99044   0.07372   0.00000  Uiso   1.00
