data_job_03613
_audit_creation_date              2018-12-19
_audit_creation_method            'Materials Studio'
_symmetry_space_group_name_H-M    'P1'
_symmetry_Int_Tables_number       1
_symmetry_cell_setting            triclinic
loop_
_symmetry_equiv_pos_as_xyz
  x,y,z
_cell_length_a                    23.9617
_cell_length_b                    7.5922
_cell_length_c                    45.5801
_cell_angle_alpha                 90.0000
_cell_angle_beta                  110.6121
_cell_angle_gamma                 90.0000
loop_
_atom_site_label
_atom_site_type_symbol
_atom_site_fract_x
_atom_site_fract_y
_atom_site_fract_z
_atom_site_U_iso_or_equiv
_atom_site_adp_type
_atom_site_occupancy
C1     C     0.60243   0.88744   0.08563   0.00000  Uiso   1.00
C2     C     0.63464   0.86745   0.12087   0.00000  Uiso   1.00
C3     C     0.62997   0.98122   0.14372   0.00000  Uiso   1.00
C4     C     0.66304   0.93993   0.17466   0.00000  Uiso   1.00
C5     C     0.70754   0.93171   0.22819   0.00000  Uiso   1.00
C6     C     0.65093   0.88899   0.07116   0.00000  Uiso   1.00
C7     C     0.65995   0.02086   0.05222   0.00000  Uiso   1.00
C8     C     0.70674   0.99768   0.04130   0.00000  Uiso   1.00
C9     C     0.77649   0.02284   0.01764   0.00000  Uiso   1.00
C10    C     0.56767   0.71699   0.07466   0.00000  Uiso   1.00
C11    C     0.50669   0.70425   0.05866   0.00000  Uiso   1.00
C12    C     0.48338   0.53626   0.05069   0.00000  Uiso   1.00
C13    C     0.42386   0.29437   0.03246   0.00000  Uiso   1.00
C14    C     0.66946   0.61178   0.09993   0.00000  Uiso   1.00
C15    C     0.67105   0.71772   0.12863   0.00000  Uiso   1.00
C16    C     0.70413   0.67624   0.15954   0.00000  Uiso   1.00
C17    C     0.69952   0.78993   0.18244   0.00000  Uiso   1.00
C18    C     0.68734   0.73927   0.07892   0.00000  Uiso   1.00
C19    C     0.73412   0.71588   0.06803   0.00000  Uiso   1.00
C20    C     0.74321   0.84768   0.04908   0.00000  Uiso   1.00
C21    C     0.60408   0.56726   0.08243   0.00000  Uiso   1.00
C22    C     0.58085   0.39926   0.07447   0.00000  Uiso   1.00
C23    C     0.51985   0.38626   0.05846   0.00000  Uiso   1.00
H24    H     0.57409   0.00401   0.07959   0.00000  Uiso   1.00
H25    H     0.60179   0.09709   0.13771   0.00000  Uiso   1.00
H26    H     0.63177   0.13670   0.04621   0.00000  Uiso   1.00
H27    H     0.47853   0.82014   0.05265   0.00000  Uiso   1.00
H28    H     0.64859   0.13429   0.20557   0.00000  Uiso   1.00
H29    H     0.71177   0.21780   0.01263   0.00000  Uiso   1.00
H30    H     0.38864   0.55026   0.02622   0.00000  Uiso   1.00
H31    H     0.69781   0.49521   0.10597   0.00000  Uiso   1.00
H32    H     0.73231   0.56036   0.16554   0.00000  Uiso   1.00
H33    H     0.76228   0.59999   0.07404   0.00000  Uiso   1.00
H34    H     0.60904   0.28342   0.08049   0.00000  Uiso   1.00
H35    H     0.75452   0.69867   0.22816   0.00000  Uiso   1.00
H36    H     0.81770   0.78218   0.03522   0.00000  Uiso   1.00
H37    H     0.49457   0.11464   0.04881   0.00000  Uiso   1.00
O38    O     0.72203   0.96855   0.25557   0.00000  Uiso   1.00
O39    O     0.80492   0.07810   0.00245   0.00000  Uiso   1.00
O40    O     0.38097   0.20231   0.02027   0.00000  Uiso   1.00
N41    N     0.66877   0.02280   0.20271   0.00000  Uiso   1.00
N42    N     0.72785   0.10089   0.02233   0.00000  Uiso   1.00
N43    N     0.42575   0.47680   0.03502   0.00000  Uiso   1.00
N44    N     0.72577   0.78840   0.21486   0.00000  Uiso   1.00
N45    N     0.78485   0.86649   0.03449   0.00000  Uiso   1.00
N46    N     0.48275   0.24240   0.04718   0.00000  Uiso   1.00
C47    C     0.10243   0.38744   0.08563   0.00000  Uiso   1.00
C48    C     0.13464   0.36745   0.12087   0.00000  Uiso   1.00
C49    C     0.12997   0.48122   0.14372   0.00000  Uiso   1.00
C50    C     0.16304   0.43993   0.17466   0.00000  Uiso   1.00
C51    C     0.20754   0.43171   0.22819   0.00000  Uiso   1.00
C52    C     0.15093   0.38899   0.07116   0.00000  Uiso   1.00
C53    C     0.15995   0.52086   0.05222   0.00000  Uiso   1.00
C54    C     0.20674   0.49768   0.04130   0.00000  Uiso   1.00
C55    C     0.27649   0.52284   0.01764   0.00000  Uiso   1.00
C56    C     0.06767   0.21699   0.07466   0.00000  Uiso   1.00
C57    C     0.00669   0.20425   0.05866   0.00000  Uiso   1.00
C58    C     0.98338   0.03626   0.05069   0.00000  Uiso   1.00
C59    C     0.92386   0.79437   0.03246   0.00000  Uiso   1.00
C60    C     0.16946   0.11178   0.09993   0.00000  Uiso   1.00
C61    C     0.17105   0.21772   0.12863   0.00000  Uiso   1.00
C62    C     0.20413   0.17624   0.15954   0.00000  Uiso   1.00
C63    C     0.19952   0.28993   0.18244   0.00000  Uiso   1.00
C64    C     0.18734   0.23927   0.07892   0.00000  Uiso   1.00
C65    C     0.23412   0.21588   0.06803   0.00000  Uiso   1.00
C66    C     0.24321   0.34768   0.04908   0.00000  Uiso   1.00
C67    C     0.10408   0.06726   0.08243   0.00000  Uiso   1.00
C68    C     0.08085   0.89926   0.07447   0.00000  Uiso   1.00
C69    C     0.01985   0.88626   0.05846   0.00000  Uiso   1.00
H70    H     0.07409   0.50401   0.07959   0.00000  Uiso   1.00
H71    H     0.10179   0.59709   0.13771   0.00000  Uiso   1.00
H72    H     0.13177   0.63670   0.04621   0.00000  Uiso   1.00
H73    H     0.97853   0.32014   0.05265   0.00000  Uiso   1.00
H74    H     0.14859   0.63429   0.20557   0.00000  Uiso   1.00
H75    H     0.21177   0.71780   0.01263   0.00000  Uiso   1.00
H76    H     0.88864   0.05026   0.02622   0.00000  Uiso   1.00
H77    H     0.19781   0.99521   0.10597   0.00000  Uiso   1.00
H78    H     0.23231   0.06036   0.16554   0.00000  Uiso   1.00
H79    H     0.26228   0.09999   0.07404   0.00000  Uiso   1.00
H80    H     0.10904   0.78342   0.08049   0.00000  Uiso   1.00
H81    H     0.25452   0.19867   0.22816   0.00000  Uiso   1.00
H82    H     0.31770   0.28218   0.03522   0.00000  Uiso   1.00
H83    H     0.99457   0.61464   0.04881   0.00000  Uiso   1.00
O84    O     0.22203   0.46855   0.25557   0.00000  Uiso   1.00
O85    O     0.30492   0.57810   0.00245   0.00000  Uiso   1.00
O86    O     0.88097   0.70231   0.02027   0.00000  Uiso   1.00
N87    N     0.16877   0.52280   0.20271   0.00000  Uiso   1.00
N88    N     0.22785   0.60089   0.02233   0.00000  Uiso   1.00
N89    N     0.92575   0.97680   0.03502   0.00000  Uiso   1.00
N90    N     0.22577   0.28840   0.21486   0.00000  Uiso   1.00
N91    N     0.28485   0.36649   0.03449   0.00000  Uiso   1.00
N92    N     0.98275   0.74240   0.04718   0.00000  Uiso   1.00
C93    C     0.39757   0.88744   0.41437   0.00000  Uiso   1.00
C94    C     0.36536   0.86745   0.37913   0.00000  Uiso   1.00
C95    C     0.37003   0.98122   0.35628   0.00000  Uiso   1.00
C96    C     0.33696   0.93993   0.32534   0.00000  Uiso   1.00
C97    C     0.29246   0.93171   0.27181   0.00000  Uiso   1.00
C98    C     0.34907   0.88899   0.42884   0.00000  Uiso   1.00
C99    C     0.34005   0.02086   0.44778   0.00000  Uiso   1.00
C100   C     0.29326   0.99768   0.45870   0.00000  Uiso   1.00
C101   C     0.22351   0.02284   0.48236   0.00000  Uiso   1.00
C102   C     0.43233   0.71699   0.42534   0.00000  Uiso   1.00
C103   C     0.49331   0.70425   0.44134   0.00000  Uiso   1.00
C104   C     0.51662   0.53626   0.44931   0.00000  Uiso   1.00
C105   C     0.57614   0.29437   0.46754   0.00000  Uiso   1.00
C106   C     0.33054   0.61178   0.40007   0.00000  Uiso   1.00
C107   C     0.32895   0.71772   0.37137   0.00000  Uiso   1.00
C108   C     0.29587   0.67624   0.34046   0.00000  Uiso   1.00
C109   C     0.30048   0.78993   0.31756   0.00000  Uiso   1.00
C110   C     0.31266   0.73927   0.42108   0.00000  Uiso   1.00
C111   C     0.26588   0.71588   0.43197   0.00000  Uiso   1.00
C112   C     0.25679   0.84768   0.45092   0.00000  Uiso   1.00
C113   C     0.39592   0.56726   0.41757   0.00000  Uiso   1.00
C114   C     0.41915   0.39926   0.42553   0.00000  Uiso   1.00
C115   C     0.48015   0.38626   0.44154   0.00000  Uiso   1.00
H116   H     0.42591   0.00401   0.42041   0.00000  Uiso   1.00
H117   H     0.39821   0.09709   0.36229   0.00000  Uiso   1.00
H118   H     0.36823   0.13670   0.45379   0.00000  Uiso   1.00
H119   H     0.52147   0.82014   0.44735   0.00000  Uiso   1.00
H120   H     0.35141   0.13429   0.29443   0.00000  Uiso   1.00
H121   H     0.28823   0.21780   0.48737   0.00000  Uiso   1.00
H122   H     0.61136   0.55026   0.47378   0.00000  Uiso   1.00
H123   H     0.30219   0.49521   0.39403   0.00000  Uiso   1.00
H124   H     0.26769   0.56036   0.33446   0.00000  Uiso   1.00
H125   H     0.23772   0.59999   0.42596   0.00000  Uiso   1.00
H126   H     0.39096   0.28342   0.41951   0.00000  Uiso   1.00
H127   H     0.24548   0.69867   0.27184   0.00000  Uiso   1.00
H128   H     0.18230   0.78218   0.46478   0.00000  Uiso   1.00
H129   H     0.50543   0.11464   0.45119   0.00000  Uiso   1.00
O130   O     0.27797   0.96855   0.24443   0.00000  Uiso   1.00
O131   O     0.19508   0.07810   0.49755   0.00000  Uiso   1.00
O132   O     0.61903   0.20231   0.47973   0.00000  Uiso   1.00
N133   N     0.33123   0.02280   0.29729   0.00000  Uiso   1.00
N134   N     0.27215   0.10089   0.47767   0.00000  Uiso   1.00
N135   N     0.57425   0.47680   0.46498   0.00000  Uiso   1.00
N136   N     0.27423   0.78840   0.28514   0.00000  Uiso   1.00
N137   N     0.21515   0.86649   0.46551   0.00000  Uiso   1.00
N138   N     0.51725   0.24240   0.45282   0.00000  Uiso   1.00
C139   C     0.89757   0.38744   0.41437   0.00000  Uiso   1.00
C140   C     0.86536   0.36745   0.37913   0.00000  Uiso   1.00
C141   C     0.87003   0.48122   0.35628   0.00000  Uiso   1.00
C142   C     0.83696   0.43993   0.32534   0.00000  Uiso   1.00
C143   C     0.79246   0.43171   0.27181   0.00000  Uiso   1.00
C144   C     0.84907   0.38899   0.42884   0.00000  Uiso   1.00
C145   C     0.84005   0.52086   0.44778   0.00000  Uiso   1.00
C146   C     0.79326   0.49768   0.45870   0.00000  Uiso   1.00
C147   C     0.72351   0.52284   0.48236   0.00000  Uiso   1.00
C148   C     0.93233   0.21699   0.42534   0.00000  Uiso   1.00
C149   C     0.99331   0.20425   0.44134   0.00000  Uiso   1.00
C150   C     0.01662   0.03626   0.44931   0.00000  Uiso   1.00
C151   C     0.07614   0.79437   0.46754   0.00000  Uiso   1.00
C152   C     0.83054   0.11178   0.40007   0.00000  Uiso   1.00
C153   C     0.82895   0.21772   0.37137   0.00000  Uiso   1.00
C154   C     0.79587   0.17624   0.34046   0.00000  Uiso   1.00
C155   C     0.80048   0.28993   0.31756   0.00000  Uiso   1.00
C156   C     0.81266   0.23927   0.42108   0.00000  Uiso   1.00
C157   C     0.76588   0.21588   0.43197   0.00000  Uiso   1.00
C158   C     0.75679   0.34768   0.45092   0.00000  Uiso   1.00
C159   C     0.89592   0.06726   0.41757   0.00000  Uiso   1.00
C160   C     0.91915   0.89926   0.42553   0.00000  Uiso   1.00
C161   C     0.98015   0.88626   0.44154   0.00000  Uiso   1.00
H162   H     0.92591   0.50401   0.42041   0.00000  Uiso   1.00
H163   H     0.89821   0.59709   0.36229   0.00000  Uiso   1.00
H164   H     0.86823   0.63670   0.45379   0.00000  Uiso   1.00
H165   H     0.02147   0.32014   0.44735   0.00000  Uiso   1.00
H166   H     0.85141   0.63429   0.29443   0.00000  Uiso   1.00
H167   H     0.78823   0.71780   0.48737   0.00000  Uiso   1.00
H168   H     0.11136   0.05026   0.47378   0.00000  Uiso   1.00
H169   H     0.80219   0.99521   0.39403   0.00000  Uiso   1.00
H170   H     0.76769   0.06036   0.33446   0.00000  Uiso   1.00
H171   H     0.73772   0.09999   0.42596   0.00000  Uiso   1.00
H172   H     0.89096   0.78342   0.41951   0.00000  Uiso   1.00
H173   H     0.74548   0.19867   0.27184   0.00000  Uiso   1.00
H174   H     0.68230   0.28218   0.46478   0.00000  Uiso   1.00
H175   H     0.00543   0.61464   0.45119   0.00000  Uiso   1.00
O176   O     0.77797   0.46855   0.24443   0.00000  Uiso   1.00
O177   O     0.69508   0.57810   0.49755   0.00000  Uiso   1.00
O178   O     0.11903   0.70231   0.47973   0.00000  Uiso   1.00
N179   N     0.83123   0.52280   0.29729   0.00000  Uiso   1.00
N180   N     0.77215   0.60089   0.47767   0.00000  Uiso   1.00
N181   N     0.07425   0.97680   0.46498   0.00000  Uiso   1.00
N182   N     0.77423   0.28840   0.28514   0.00000  Uiso   1.00
N183   N     0.71515   0.36649   0.46551   0.00000  Uiso   1.00
N184   N     0.01725   0.74240   0.45282   0.00000  Uiso   1.00
C185   C     0.39757   0.11256   0.91437   0.00000  Uiso   1.00
C186   C     0.36536   0.13255   0.87913   0.00000  Uiso   1.00
C187   C     0.37003   0.01878   0.85628   0.00000  Uiso   1.00
C188   C     0.33696   0.06007   0.82534   0.00000  Uiso   1.00
C189   C     0.29246   0.06829   0.77181   0.00000  Uiso   1.00
C190   C     0.34907   0.11101   0.92884   0.00000  Uiso   1.00
C191   C     0.34005   0.97914   0.94778   0.00000  Uiso   1.00
C192   C     0.29326   0.00232   0.95870   0.00000  Uiso   1.00
C193   C     0.22351   0.97716   0.98236   0.00000  Uiso   1.00
C194   C     0.43233   0.28301   0.92534   0.00000  Uiso   1.00
C195   C     0.49331   0.29575   0.94134   0.00000  Uiso   1.00
C196   C     0.51662   0.46374   0.94931   0.00000  Uiso   1.00
C197   C     0.57614   0.70563   0.96754   0.00000  Uiso   1.00
C198   C     0.33054   0.38822   0.90007   0.00000  Uiso   1.00
C199   C     0.32895   0.28228   0.87137   0.00000  Uiso   1.00
C200   C     0.29587   0.32376   0.84046   0.00000  Uiso   1.00
C201   C     0.30048   0.21007   0.81756   0.00000  Uiso   1.00
C202   C     0.31266   0.26073   0.92108   0.00000  Uiso   1.00
C203   C     0.26588   0.28412   0.93197   0.00000  Uiso   1.00
C204   C     0.25679   0.15232   0.95092   0.00000  Uiso   1.00
C205   C     0.39592   0.43274   0.91757   0.00000  Uiso   1.00
C206   C     0.41915   0.60074   0.92553   0.00000  Uiso   1.00
C207   C     0.48015   0.61374   0.94154   0.00000  Uiso   1.00
H208   H     0.42591   0.99599   0.92041   0.00000  Uiso   1.00
H209   H     0.39821   0.90291   0.86229   0.00000  Uiso   1.00
H210   H     0.36823   0.86330   0.95379   0.00000  Uiso   1.00
H211   H     0.52147   0.17986   0.94735   0.00000  Uiso   1.00
H212   H     0.35141   0.86571   0.79443   0.00000  Uiso   1.00
H213   H     0.28823   0.78220   0.98737   0.00000  Uiso   1.00
H214   H     0.61136   0.44974   0.97378   0.00000  Uiso   1.00
H215   H     0.30219   0.50479   0.89403   0.00000  Uiso   1.00
H216   H     0.26769   0.43964   0.83446   0.00000  Uiso   1.00
H217   H     0.23772   0.40001   0.92596   0.00000  Uiso   1.00
H218   H     0.39096   0.71658   0.91951   0.00000  Uiso   1.00
H219   H     0.24548   0.30133   0.77184   0.00000  Uiso   1.00
H220   H     0.18230   0.21782   0.96478   0.00000  Uiso   1.00
H221   H     0.50543   0.88536   0.95119   0.00000  Uiso   1.00
O222   O     0.27797   0.03145   0.74443   0.00000  Uiso   1.00
O223   O     0.19508   0.92190   0.99755   0.00000  Uiso   1.00
O224   O     0.61903   0.79769   0.97973   0.00000  Uiso   1.00
N225   N     0.33123   0.97720   0.79729   0.00000  Uiso   1.00
N226   N     0.27215   0.89911   0.97767   0.00000  Uiso   1.00
N227   N     0.57425   0.52320   0.96498   0.00000  Uiso   1.00
N228   N     0.27423   0.21160   0.78514   0.00000  Uiso   1.00
N229   N     0.21515   0.13351   0.96551   0.00000  Uiso   1.00
N230   N     0.51725   0.75760   0.95282   0.00000  Uiso   1.00
C231   C     0.89757   0.61256   0.91437   0.00000  Uiso   1.00
C232   C     0.86536   0.63255   0.87913   0.00000  Uiso   1.00
C233   C     0.87003   0.51878   0.85628   0.00000  Uiso   1.00
C234   C     0.83696   0.56007   0.82534   0.00000  Uiso   1.00
C235   C     0.79246   0.56829   0.77181   0.00000  Uiso   1.00
C236   C     0.84907   0.61101   0.92884   0.00000  Uiso   1.00
C237   C     0.84005   0.47914   0.94778   0.00000  Uiso   1.00
C238   C     0.79326   0.50232   0.95870   0.00000  Uiso   1.00
C239   C     0.72351   0.47716   0.98236   0.00000  Uiso   1.00
C240   C     0.93233   0.78301   0.92534   0.00000  Uiso   1.00
C241   C     0.99331   0.79575   0.94134   0.00000  Uiso   1.00
C242   C     0.01662   0.96374   0.94931   0.00000  Uiso   1.00
C243   C     0.07614   0.20563   0.96754   0.00000  Uiso   1.00
C244   C     0.83054   0.88822   0.90007   0.00000  Uiso   1.00
C245   C     0.82895   0.78228   0.87137   0.00000  Uiso   1.00
C246   C     0.79587   0.82376   0.84046   0.00000  Uiso   1.00
C247   C     0.80048   0.71007   0.81756   0.00000  Uiso   1.00
C248   C     0.81266   0.76073   0.92108   0.00000  Uiso   1.00
C249   C     0.76588   0.78412   0.93197   0.00000  Uiso   1.00
C250   C     0.75679   0.65232   0.95092   0.00000  Uiso   1.00
C251   C     0.89592   0.93274   0.91757   0.00000  Uiso   1.00
C252   C     0.91915   0.10074   0.92553   0.00000  Uiso   1.00
C253   C     0.98015   0.11374   0.94154   0.00000  Uiso   1.00
H254   H     0.92591   0.49599   0.92041   0.00000  Uiso   1.00
H255   H     0.89821   0.40291   0.86229   0.00000  Uiso   1.00
H256   H     0.86823   0.36330   0.95379   0.00000  Uiso   1.00
H257   H     0.02147   0.67986   0.94735   0.00000  Uiso   1.00
H258   H     0.85141   0.36571   0.79443   0.00000  Uiso   1.00
H259   H     0.78823   0.28220   0.98737   0.00000  Uiso   1.00
H260   H     0.11136   0.94974   0.97378   0.00000  Uiso   1.00
H261   H     0.80219   0.00479   0.89403   0.00000  Uiso   1.00
H262   H     0.76769   0.93964   0.83446   0.00000  Uiso   1.00
H263   H     0.73772   0.90001   0.92596   0.00000  Uiso   1.00
H264   H     0.89096   0.21658   0.91951   0.00000  Uiso   1.00
H265   H     0.74548   0.80133   0.77184   0.00000  Uiso   1.00
H266   H     0.68230   0.71782   0.96478   0.00000  Uiso   1.00
H267   H     0.00543   0.38536   0.95119   0.00000  Uiso   1.00
O268   O     0.77797   0.53145   0.74443   0.00000  Uiso   1.00
O269   O     0.69508   0.42190   0.99755   0.00000  Uiso   1.00
O270   O     0.11903   0.29769   0.97973   0.00000  Uiso   1.00
N271   N     0.83123   0.47720   0.79729   0.00000  Uiso   1.00
N272   N     0.77215   0.39911   0.97767   0.00000  Uiso   1.00
N273   N     0.07425   0.02320   0.96498   0.00000  Uiso   1.00
N274   N     0.77423   0.71160   0.78514   0.00000  Uiso   1.00
N275   N     0.71515   0.63351   0.96551   0.00000  Uiso   1.00
N276   N     0.01725   0.25760   0.95282   0.00000  Uiso   1.00
C277   C     0.60243   0.11256   0.58563   0.00000  Uiso   1.00
C278   C     0.63464   0.13255   0.62087   0.00000  Uiso   1.00
C279   C     0.62997   0.01878   0.64372   0.00000  Uiso   1.00
C280   C     0.66304   0.06007   0.67466   0.00000  Uiso   1.00
C281   C     0.70754   0.06829   0.72819   0.00000  Uiso   1.00
C282   C     0.65093   0.11101   0.57116   0.00000  Uiso   1.00
C283   C     0.65995   0.97914   0.55222   0.00000  Uiso   1.00
C284   C     0.70674   0.00232   0.54130   0.00000  Uiso   1.00
C285   C     0.77649   0.97716   0.51764   0.00000  Uiso   1.00
C286   C     0.56767   0.28301   0.57466   0.00000  Uiso   1.00
C287   C     0.50669   0.29575   0.55866   0.00000  Uiso   1.00
C288   C     0.48338   0.46374   0.55069   0.00000  Uiso   1.00
C289   C     0.42386   0.70563   0.53246   0.00000  Uiso   1.00
C290   C     0.66946   0.38822   0.59993   0.00000  Uiso   1.00
C291   C     0.67105   0.28228   0.62863   0.00000  Uiso   1.00
C292   C     0.70413   0.32376   0.65954   0.00000  Uiso   1.00
C293   C     0.69952   0.21007   0.68244   0.00000  Uiso   1.00
C294   C     0.68734   0.26073   0.57892   0.00000  Uiso   1.00
C295   C     0.73412   0.28412   0.56803   0.00000  Uiso   1.00
C296   C     0.74321   0.15232   0.54908   0.00000  Uiso   1.00
C297   C     0.60408   0.43274   0.58243   0.00000  Uiso   1.00
C298   C     0.58085   0.60074   0.57447   0.00000  Uiso   1.00
C299   C     0.51985   0.61374   0.55846   0.00000  Uiso   1.00
H300   H     0.57409   0.99599   0.57959   0.00000  Uiso   1.00
H301   H     0.60179   0.90291   0.63771   0.00000  Uiso   1.00
H302   H     0.63177   0.86330   0.54621   0.00000  Uiso   1.00
H303   H     0.47853   0.17986   0.55265   0.00000  Uiso   1.00
H304   H     0.64859   0.86571   0.70557   0.00000  Uiso   1.00
H305   H     0.71177   0.78220   0.51263   0.00000  Uiso   1.00
H306   H     0.38864   0.44974   0.52622   0.00000  Uiso   1.00
H307   H     0.69781   0.50479   0.60597   0.00000  Uiso   1.00
H308   H     0.73231   0.43964   0.66554   0.00000  Uiso   1.00
H309   H     0.76228   0.40001   0.57404   0.00000  Uiso   1.00
H310   H     0.60904   0.71658   0.58049   0.00000  Uiso   1.00
H311   H     0.75452   0.30133   0.72816   0.00000  Uiso   1.00
H312   H     0.81770   0.21782   0.53522   0.00000  Uiso   1.00
H313   H     0.49457   0.88536   0.54881   0.00000  Uiso   1.00
O314   O     0.72203   0.03145   0.75557   0.00000  Uiso   1.00
O315   O     0.80492   0.92190   0.50245   0.00000  Uiso   1.00
O316   O     0.38097   0.79769   0.52027   0.00000  Uiso   1.00
N317   N     0.66877   0.97720   0.70271   0.00000  Uiso   1.00
N318   N     0.72785   0.89911   0.52233   0.00000  Uiso   1.00
N319   N     0.42575   0.52320   0.53502   0.00000  Uiso   1.00
N320   N     0.72577   0.21160   0.71486   0.00000  Uiso   1.00
N321   N     0.78485   0.13351   0.53449   0.00000  Uiso   1.00
N322   N     0.48275   0.75760   0.54718   0.00000  Uiso   1.00
C323   C     0.10243   0.61256   0.58563   0.00000  Uiso   1.00
C324   C     0.13464   0.63255   0.62087   0.00000  Uiso   1.00
C325   C     0.12997   0.51878   0.64372   0.00000  Uiso   1.00
C326   C     0.16304   0.56007   0.67466   0.00000  Uiso   1.00
C327   C     0.20754   0.56829   0.72819   0.00000  Uiso   1.00
C328   C     0.15093   0.61101   0.57116   0.00000  Uiso   1.00
C329   C     0.15995   0.47914   0.55222   0.00000  Uiso   1.00
C330   C     0.20674   0.50232   0.54130   0.00000  Uiso   1.00
C331   C     0.27649   0.47716   0.51764   0.00000  Uiso   1.00
C332   C     0.06767   0.78301   0.57466   0.00000  Uiso   1.00
C333   C     0.00669   0.79575   0.55866   0.00000  Uiso   1.00
C334   C     0.98338   0.96374   0.55069   0.00000  Uiso   1.00
C335   C     0.92386   0.20563   0.53246   0.00000  Uiso   1.00
C336   C     0.16946   0.88822   0.59993   0.00000  Uiso   1.00
C337   C     0.17105   0.78228   0.62863   0.00000  Uiso   1.00
C338   C     0.20413   0.82376   0.65954   0.00000  Uiso   1.00
C339   C     0.19952   0.71007   0.68244   0.00000  Uiso   1.00
C340   C     0.18734   0.76073   0.57892   0.00000  Uiso   1.00
C341   C     0.23412   0.78412   0.56803   0.00000  Uiso   1.00
C342   C     0.24321   0.65232   0.54908   0.00000  Uiso   1.00
C343   C     0.10408   0.93274   0.58243   0.00000  Uiso   1.00
C344   C     0.08085   0.10074   0.57447   0.00000  Uiso   1.00
C345   C     0.01985   0.11374   0.55846   0.00000  Uiso   1.00
H346   H     0.07409   0.49599   0.57959   0.00000  Uiso   1.00
H347   H     0.10179   0.40291   0.63771   0.00000  Uiso   1.00
H348   H     0.13177   0.36330   0.54621   0.00000  Uiso   1.00
H349   H     0.97853   0.67986   0.55265   0.00000  Uiso   1.00
H350   H     0.14859   0.36571   0.70557   0.00000  Uiso   1.00
H351   H     0.21177   0.28220   0.51263   0.00000  Uiso   1.00
H352   H     0.88864   0.94974   0.52622   0.00000  Uiso   1.00
H353   H     0.19781   0.00479   0.60597   0.00000  Uiso   1.00
H354   H     0.23231   0.93964   0.66554   0.00000  Uiso   1.00
H355   H     0.26228   0.90001   0.57404   0.00000  Uiso   1.00
H356   H     0.10904   0.21658   0.58049   0.00000  Uiso   1.00
H357   H     0.25452   0.80133   0.72816   0.00000  Uiso   1.00
H358   H     0.31770   0.71782   0.53522   0.00000  Uiso   1.00
H359   H     0.99457   0.38536   0.54881   0.00000  Uiso   1.00
O360   O     0.22203   0.53145   0.75557   0.00000  Uiso   1.00
O361   O     0.30492   0.42190   0.50245   0.00000  Uiso   1.00
O362   O     0.88097   0.29769   0.52027   0.00000  Uiso   1.00
N363   N     0.16877   0.47720   0.70271   0.00000  Uiso   1.00
N364   N     0.22785   0.39911   0.52233   0.00000  Uiso   1.00
N365   N     0.92575   0.02320   0.53502   0.00000  Uiso   1.00
N366   N     0.22577   0.71160   0.71486   0.00000  Uiso   1.00
N367   N     0.28485   0.63351   0.53449   0.00000  Uiso   1.00
N368   N     0.98275   0.25760   0.54718   0.00000  Uiso   1.00
