data_job_06718
_audit_creation_date              2018-12-19
_audit_creation_method            'Materials Studio'
_symmetry_space_group_name_H-M    'P1'
_symmetry_Int_Tables_number       1
_symmetry_cell_setting            triclinic
loop_
_symmetry_equiv_pos_as_xyz
  x,y,z
_cell_length_a                    18.2882
_cell_length_b                    19.4913
_cell_length_c                    25.6748
_cell_angle_alpha                 68.1393
_cell_angle_beta                  70.7422
_cell_angle_gamma                 62.1587
loop_
_atom_site_label
_atom_site_type_symbol
_atom_site_fract_x
_atom_site_fract_y
_atom_site_fract_z
_atom_site_U_iso_or_equiv
_atom_site_adp_type
_atom_site_occupancy
C1     C     0.94943   0.62022   0.34556   0.00000  Uiso   1.00
C2     C     0.99817   0.64897   0.28697   0.00000  Uiso   1.00
C3     C     0.06283   0.60004   0.25367   0.00000  Uiso   1.00
C4     C     0.09943   0.63794   0.20136   0.00000  Uiso   1.00
C5     C     0.17926   0.66982   0.11319   0.00000  Uiso   1.00
C6     C     0.95908   0.65498   0.38601   0.00000  Uiso   1.00
C7     C     0.99086   0.61110   0.43599   0.00000  Uiso   1.00
C8     C     0.99455   0.65408   0.46705   0.00000  Uiso   1.00
C9     C     0.01364   0.69530   0.53266   0.00000  Uiso   1.00
C10    C     0.85680   0.66248   0.34061   0.00000  Uiso   1.00
C11    C     0.80257   0.62490   0.35243   0.00000  Uiso   1.00
C12    C     0.72014   0.67419   0.34529   0.00000  Uiso   1.00
C13    C     0.58042   0.72704   0.34041   0.00000  Uiso   1.00
C14    C     0.89944   0.77455   0.31188   0.00000  Uiso   1.00
C15    C     0.97101   0.73279   0.26868   0.00000  Uiso   1.00
C16    C     0.00752   0.77078   0.21640   0.00000  Uiso   1.00
C17    C     0.07223   0.72191   0.18303   0.00000  Uiso   1.00
C18    C     0.93193   0.73880   0.36772   0.00000  Uiso   1.00
C19    C     0.93556   0.78185   0.39872   0.00000  Uiso   1.00
C20    C     0.96735   0.73805   0.44872   0.00000  Uiso   1.00
C21    C     0.82964   0.74630   0.32232   0.00000  Uiso   1.00
C22    C     0.74727   0.79565   0.31516   0.00000  Uiso   1.00
C23    C     0.69293   0.75816   0.32696   0.00000  Uiso   1.00
H24    H     0.97057   0.55496   0.35981   0.00000  Uiso   1.00
H25    H     0.08383   0.53517   0.26785   0.00000  Uiso   1.00
H26    H     0.01186   0.54624   0.45014   0.00000  Uiso   1.00
H27    H     0.82361   0.56004   0.36659   0.00000  Uiso   1.00
H28    H     0.19744   0.55018   0.15784   0.00000  Uiso   1.00
H29    H     0.04568   0.57353   0.54221   0.00000  Uiso   1.00
H30    H     0.64870   0.60262   0.36604   0.00000  Uiso   1.00
H31    H     0.87830   0.83981   0.29763   0.00000  Uiso   1.00
H32    H     0.98650   0.83565   0.20226   0.00000  Uiso   1.00
H33    H     0.91454   0.84672   0.38455   0.00000  Uiso   1.00
H34    H     0.72628   0.86052   0.30100   0.00000  Uiso   1.00
H35    H     0.11845   0.79407   0.10460   0.00000  Uiso   1.00
H36    H     0.96668   0.81741   0.48898   0.00000  Uiso   1.00
H37    H     0.56970   0.84651   0.31280   0.00000  Uiso   1.00
O38    O     0.23081   0.66425   0.06961   0.00000  Uiso   1.00
O39    O     0.03168   0.69487   0.57390   0.00000  Uiso   1.00
O40    O     0.51086   0.73304   0.34276   0.00000  Uiso   1.00
N41    N     0.16399   0.60816   0.15839   0.00000  Uiso   1.00
N42    N     0.02211   0.62998   0.51776   0.00000  Uiso   1.00
N43    N     0.65097   0.65718   0.35306   0.00000  Uiso   1.00
N44    N     0.12149   0.73939   0.12974   0.00000  Uiso   1.00
N45    N     0.97961   0.76121   0.48911   0.00000  Uiso   1.00
N46    N     0.60846   0.78841   0.32441   0.00000  Uiso   1.00
C47    C     0.54067   0.05818   0.42760   0.00000  Uiso   1.00
C48    C     0.57326   0.04465   0.36790   0.00000  Uiso   1.00
C49    C     0.52602   0.04559   0.33483   0.00000  Uiso   1.00
C50    C     0.56745   0.03187   0.28137   0.00000  Uiso   1.00
C51    C     0.60505   0.01298   0.19167   0.00000  Uiso   1.00
C52    C     0.59663   0.98414   0.46593   0.00000  Uiso   1.00
C53    C     0.56901   0.93420   0.51527   0.00000  Uiso   1.00
C54    C     0.63012   0.86956   0.54433   0.00000  Uiso   1.00
C55    C     0.70397   0.75675   0.60684   0.00000  Uiso   1.00
C56    C     0.56014   0.12791   0.42421   0.00000  Uiso   1.00
C57    C     0.50185   0.19886   0.43850   0.00000  Uiso   1.00
C58    C     0.53225   0.25525   0.43245   0.00000  Uiso   1.00
C59    C     0.54945   0.36567   0.43019   0.00000  Uiso   1.00
C60    C     0.69829   0.03216   0.39147   0.00000  Uiso   1.00
C61    C     0.65888   0.03052   0.34828   0.00000  Uiso   1.00
C62    C     0.70040   0.01680   0.29486   0.00000  Uiso   1.00
C63    C     0.65322   0.01772   0.26171   0.00000  Uiso   1.00
C64    C     0.68223   0.97000   0.44630   0.00000  Uiso   1.00
C65    C     0.74339   0.90542   0.47530   0.00000  Uiso   1.00
C66    C     0.71588   0.85540   0.52467   0.00000  Uiso   1.00
C67    C     0.64575   0.11378   0.40459   0.00000  Uiso   1.00
C68    C     0.67624   0.17007   0.39852   0.00000  Uiso   1.00
C69    C     0.61801   0.24110   0.41279   0.00000  Uiso   1.00
H70    H     0.47402   0.06918   0.44288   0.00000  Uiso   1.00
H71    H     0.45976   0.05652   0.35003   0.00000  Uiso   1.00
H72    H     0.50276   0.94516   0.53045   0.00000  Uiso   1.00
H73    H     0.43561   0.20977   0.45368   0.00000  Uiso   1.00
H74    H     0.48172   0.03622   0.23845   0.00000  Uiso   1.00
H75    H     0.57237   0.80143   0.61888   0.00000  Uiso   1.00
H76    H     0.43077   0.35942   0.45701   0.00000  Uiso   1.00
H77    H     0.76494   0.02116   0.37619   0.00000  Uiso   1.00
H78    H     0.76665   0.00587   0.27968   0.00000  Uiso   1.00
H79    H     0.80964   0.89451   0.46010   0.00000  Uiso   1.00
H80    H     0.74249   0.15912   0.38334   0.00000  Uiso   1.00
H81    H     0.73080   0.99511   0.18135   0.00000  Uiso   1.00
H82    H     0.82144   0.76032   0.56178   0.00000  Uiso   1.00
H83    H     0.67985   0.31831   0.39991   0.00000  Uiso   1.00
O84    O     0.60214   0.00645   0.14763   0.00000  Uiso   1.00
O85    O     0.72106   0.69842   0.64674   0.00000  Uiso   1.00
O86    O     0.53529   0.43049   0.43436   0.00000  Uiso   1.00
N87    N     0.54010   0.02866   0.23825   0.00000  Uiso   1.00
N88    N     0.62485   0.80914   0.59392   0.00000  Uiso   1.00
N89    N     0.49248   0.33080   0.44260   0.00000  Uiso   1.00
N90    N     0.67413   0.00654   0.20753   0.00000  Uiso   1.00
N91    N     0.75888   0.78702   0.56320   0.00000  Uiso   1.00
N92    N     0.62650   0.30868   0.41188   0.00000  Uiso   1.00
C93    C     0.05626   0.05376   0.45514   0.00000  Uiso   1.00
C94    C     0.04841   0.11242   0.39610   0.00000  Uiso   1.00
C95    C     0.08696   0.16677   0.36971   0.00000  Uiso   1.00
C96    C     0.07188   0.21522   0.31565   0.00000  Uiso   1.00
C97    C     0.06754   0.30722   0.22804   0.00000  Uiso   1.00
C98    C     0.96658   0.07119   0.48924   0.00000  Uiso   1.00
C99    C     0.93633   0.09086   0.54116   0.00000  Uiso   1.00
C100   C     0.85237   0.10460   0.56551   0.00000  Uiso   1.00
C101   C     0.72100   0.13253   0.62252   0.00000  Uiso   1.00
C102   C     0.08845   0.97041   0.44646   0.00000  Uiso   1.00
C103   C     0.16065   0.90533   0.46242   0.00000  Uiso   1.00
C104   C     0.17928   0.83421   0.45077   0.00000  Uiso   1.00
C105   C     0.23713   0.70566   0.44135   0.00000  Uiso   1.00
C106   C     0.96094   0.04317   0.40607   0.00000  Uiso   1.00
C107   C     0.99664   0.10667   0.36945   0.00000  Uiso   1.00
C108   C     0.98150   0.15506   0.31541   0.00000  Uiso   1.00
C109   C     0.02001   0.20946   0.28894   0.00000  Uiso   1.00
C110   C     0.91481   0.06544   0.46259   0.00000  Uiso   1.00
C111   C     0.83087   0.07915   0.48686   0.00000  Uiso   1.00
C112   C     0.80050   0.09884   0.53880   0.00000  Uiso   1.00
C113   C     0.03668   0.96466   0.41980   0.00000  Uiso   1.00
C114   C     0.05519   0.89362   0.40812   0.00000  Uiso   1.00
C115   C     0.12741   0.82845   0.42406   0.00000  Uiso   1.00
H116   H     0.09656   0.05823   0.47590   0.00000  Uiso   1.00
H117   H     0.12702   0.17120   0.39035   0.00000  Uiso   1.00
H118   H     0.97642   0.09530   0.56178   0.00000  Uiso   1.00
H119   H     0.20070   0.90980   0.48305   0.00000  Uiso   1.00
H120   H     0.13792   0.29393   0.28376   0.00000  Uiso   1.00
H121   H     0.82038   0.13386   0.64524   0.00000  Uiso   1.00
H122   H     0.29334   0.74270   0.47923   0.00000  Uiso   1.00
H123   H     0.92063   0.03870   0.38531   0.00000  Uiso   1.00
H124   H     0.94143   0.15060   0.29479   0.00000  Uiso   1.00
H125   H     0.79082   0.07469   0.46622   0.00000  Uiso   1.00
H126   H     0.01511   0.88920   0.38749   0.00000  Uiso   1.00
H127   H     0.98728   0.27721   0.20620   0.00000  Uiso   1.00
H128   H     0.66975   0.11714   0.56768   0.00000  Uiso   1.00
H129   H     0.14270   0.72598   0.40167   0.00000  Uiso   1.00
O130   O     0.07944   0.35955   0.18708   0.00000  Uiso   1.00
O131   O     0.66285   0.14953   0.66133   0.00000  Uiso   1.00
O132   O     0.28335   0.63634   0.44352   0.00000  Uiso   1.00
N133   N     0.09963   0.27463   0.27793   0.00000  Uiso   1.00
N134   N     0.80274   0.12499   0.61588   0.00000  Uiso   1.00
N135   N     0.24491   0.75928   0.46069   0.00000  Uiso   1.00
N136   N     0.01857   0.26563   0.23619   0.00000  Uiso   1.00
N137   N     0.72169   0.11599   0.57415   0.00000  Uiso   1.00
N138   N     0.16385   0.75028   0.41895   0.00000  Uiso   1.00
C139   C     0.52530   0.58046   0.90320   0.00000  Uiso   1.00
C140   C     0.53396   0.57436   0.84377   0.00000  Uiso   1.00
C141   C     0.59479   0.58788   0.79648   0.00000  Uiso   1.00
C142   C     0.59205   0.57924   0.74595   0.00000  Uiso   1.00
C143   C     0.61486   0.57298   0.65414   0.00000  Uiso   1.00
C144   C     0.52854   0.49922   0.94398   0.00000  Uiso   1.00
C145   C     0.58480   0.44959   0.98094   0.00000  Uiso   1.00
C146   C     0.57749   0.37770   0.01477   0.00000  Uiso   1.00
C147   C     0.59185   0.25483   0.07858   0.00000  Uiso   1.00
C148   C     0.43595   0.64077   0.91798   0.00000  Uiso   1.00
C149   C     0.41436   0.71014   0.93311   0.00000  Uiso   1.00
C150   C     0.32909   0.75742   0.94506   0.00000  Uiso   1.00
C151   C     0.19968   0.85432   0.96850   0.00000  Uiso   1.00
C152   C     0.41227   0.54105   0.89756   0.00000  Uiso   1.00
C153   C     0.47256   0.55295   0.84071   0.00000  Uiso   1.00
C154   C     0.46973   0.54429   0.79023   0.00000  Uiso   1.00
C155   C     0.53054   0.55780   0.74287   0.00000  Uiso   1.00
C156   C     0.46715   0.47782   0.94091   0.00000  Uiso   1.00
C157   C     0.45975   0.40599   0.97470   0.00000  Uiso   1.00
C158   C     0.51599   0.35625   0.01171   0.00000  Uiso   1.00
C159   C     0.37455   0.61937   0.91492   0.00000  Uiso   1.00
C160   C     0.28930   0.66654   0.92686   0.00000  Uiso   1.00
C161   C     0.26758   0.73597   0.94200   0.00000  Uiso   1.00
H162   H     0.57310   0.59711   0.90558   0.00000  Uiso   1.00
H163   H     0.64230   0.60444   0.79887   0.00000  Uiso   1.00
H164   H     0.63230   0.46617   0.98331   0.00000  Uiso   1.00
H165   H     0.46189   0.72668   0.93547   0.00000  Uiso   1.00
H166   H     0.69195   0.60309   0.67920   0.00000  Uiso   1.00
H167   H     0.67087   0.31156   0.06812   0.00000  Uiso   1.00
H168   H     0.31151   0.86090   0.96725   0.00000  Uiso   1.00
H169   H     0.36447   0.52438   0.89517   0.00000  Uiso   1.00
H170   H     0.42221   0.52772   0.78788   0.00000  Uiso   1.00
H171   H     0.41222   0.38945   0.97232   0.00000  Uiso   1.00
H172   H     0.24180   0.64996   0.92449   0.00000  Uiso   1.00
H173   H     0.51332   0.54082   0.67028   0.00000  Uiso   1.00
H174   H     0.49224   0.24928   0.05921   0.00000  Uiso   1.00
H175   H     0.13288   0.79863   0.95834   0.00000  Uiso   1.00
O176   O     0.64440   0.57544   0.60435   0.00000  Uiso   1.00
O177   O     0.61674   0.19296   0.11461   0.00000  Uiso   1.00
O178   O     0.14526   0.91369   0.98227   0.00000  Uiso   1.00
N179   N     0.64198   0.58800   0.69182   0.00000  Uiso   1.00
N180   N     0.62228   0.31542   0.05544   0.00000  Uiso   1.00
N181   N     0.28630   0.82900   0.96115   0.00000  Uiso   1.00
N182   N     0.54586   0.55449   0.68702   0.00000  Uiso   1.00
N183   N     0.52616   0.28191   0.05064   0.00000  Uiso   1.00
N184   N     0.19018   0.79549   0.95635   0.00000  Uiso   1.00
C185   C     0.96301   0.48932   0.97649   0.00000  Uiso   1.00
C186   C     0.91497   0.57453   0.94360   0.00000  Uiso   1.00
C187   C     0.82942   0.61952   0.95731   0.00000  Uiso   1.00
C188   C     0.79745   0.69625   0.92186   0.00000  Uiso   1.00
C189   C     0.71500   0.82392   0.87801   0.00000  Uiso   1.00
C190   C     0.03389   0.49301   0.99273   0.00000  Uiso   1.00
C191   C     0.04833   0.46945   0.04776   0.00000  Uiso   1.00
C192   C     0.11647   0.47755   0.05368   0.00000  Uiso   1.00
C193   C     0.21867   0.47861   0.08611   0.00000  Uiso   1.00
C194   C     0.00551   0.43899   0.93331   0.00000  Uiso   1.00
C195   C     0.99610   0.36999   0.93837   0.00000  Uiso   1.00
C196   C     0.04037   0.33261   0.89426   0.00000  Uiso   1.00
C197   C     0.09851   0.24979   0.83442   0.00000  Uiso   1.00
C198   C     0.05837   0.54559   0.88916   0.00000  Uiso   1.00
C199   C     0.96677   0.60509   0.89616   0.00000  Uiso   1.00
C200   C     0.93492   0.68178   0.86068   0.00000  Uiso   1.00
C201   C     0.84934   0.72687   0.87434   0.00000  Uiso   1.00
C202   C     0.08569   0.52357   0.94530   0.00000  Uiso   1.00
C203   C     0.15383   0.53171   0.95114   0.00000  Uiso   1.00
C204   C     0.16836   0.50817   0.00616   0.00000  Uiso   1.00
C205   C     0.05730   0.46955   0.88587   0.00000  Uiso   1.00
C206   C     0.10160   0.43226   0.84175   0.00000  Uiso   1.00
C207   C     0.09226   0.36323   0.84674   0.00000  Uiso   1.00
H208   H     0.92269   0.46552   0.01342   0.00000  Uiso   1.00
H209   H     0.78936   0.59584   0.99402   0.00000  Uiso   1.00
H210   H     0.00824   0.44579   0.08446   0.00000  Uiso   1.00
H211   H     0.95602   0.34636   0.97508   0.00000  Uiso   1.00
H212   H     0.66439   0.75382   0.95160   0.00000  Uiso   1.00
H213   H     0.12592   0.43740   0.14229   0.00000  Uiso   1.00
H214   H     0.01581   0.22773   0.91166   0.00000  Uiso   1.00
H215   H     0.09869   0.56939   0.85223   0.00000  Uiso   1.00
H216   H     0.97502   0.70541   0.82398   0.00000  Uiso   1.00
H217   H     0.19390   0.55536   0.91442   0.00000  Uiso   1.00
H218   H     0.14168   0.45593   0.80505   0.00000  Uiso   1.00
H219   H     0.81508   0.84275   0.81359   0.00000  Uiso   1.00
H220   H     0.27661   0.52633   0.00428   0.00000  Uiso   1.00
H221   H     0.16650   0.31666   0.77365   0.00000  Uiso   1.00
O222   O     0.65521   0.88590   0.86693   0.00000  Uiso   1.00
O223   O     0.26073   0.47075   0.11711   0.00000  Uiso   1.00
O224   O     0.11626   0.19568   0.81452   0.00000  Uiso   1.00
N225   N     0.71682   0.75608   0.92299   0.00000  Uiso   1.00
N226   N     0.14832   0.46025   0.10128   0.00000  Uiso   1.00
N227   N     0.04539   0.26422   0.88566   0.00000  Uiso   1.00
N228   N     0.79791   0.80393   0.84873   0.00000  Uiso   1.00
N229   N     0.22940   0.50811   0.02701   0.00000  Uiso   1.00
N230   N     0.12647   0.31207   0.81140   0.00000  Uiso   1.00
C231   C     0.50378   0.13711   0.90848   0.00000  Uiso   1.00
C232   C     0.49874   0.14865   0.84748   0.00000  Uiso   1.00
C233   C     0.52659   0.08768   0.82133   0.00000  Uiso   1.00
C234   C     0.51631   0.11064   0.76527   0.00000  Uiso   1.00
C235   C     0.51403   0.11623   0.67495   0.00000  Uiso   1.00
C236   C     0.41394   0.17919   0.93785   0.00000  Uiso   1.00
C237   C     0.37051   0.14389   0.98769   0.00000  Uiso   1.00
C238   C     0.28886   0.19257   0.00770   0.00000  Uiso   1.00
C239   C     0.15496   0.24558   0.05771   0.00000  Uiso   1.00
C240   C     0.55221   0.18575   0.90374   0.00000  Uiso   1.00
C241   C     0.62502   0.15597   0.92491   0.00000  Uiso   1.00
C242   C     0.65977   0.21018   0.91622   0.00000  Uiso   1.00
C243   C     0.74055   0.27338   0.91326   0.00000  Uiso   1.00
C244   C     0.43600   0.28633   0.85541   0.00000  Uiso   1.00
C245   C     0.46192   0.22970   0.81866   0.00000  Uiso   1.00
C246   C     0.45160   0.25277   0.76262   0.00000  Uiso   1.00
C247   C     0.47943   0.19184   0.73639   0.00000  Uiso   1.00
C248   C     0.37713   0.26024   0.90903   0.00000  Uiso   1.00
C249   C     0.29552   0.30898   0.92898   0.00000  Uiso   1.00
C250   C     0.25197   0.27376   0.97883   0.00000  Uiso   1.00
C251   C     0.51540   0.26680   0.87491   0.00000  Uiso   1.00
C252   C     0.55003   0.32107   0.86619   0.00000  Uiso   1.00
C253   C     0.62288   0.29138   0.88734   0.00000  Uiso   1.00
H254   H     0.53244   0.07401   0.93092   0.00000  Uiso   1.00
H255   H     0.55507   0.02496   0.84366   0.00000  Uiso   1.00
H256   H     0.39902   0.08117   0.00999   0.00000  Uiso   1.00
H257   H     0.65349   0.09325   0.94722   0.00000  Uiso   1.00
H258   H     0.56389   0.00632   0.73420   0.00000  Uiso   1.00
H259   H     0.23487   0.12484   0.08493   0.00000  Uiso   1.00
H260   H     0.77147   0.15032   0.95257   0.00000  Uiso   1.00
H261   H     0.40734   0.34944   0.83297   0.00000  Uiso   1.00
H262   H     0.42310   0.31550   0.74033   0.00000  Uiso   1.00
H263   H     0.26705   0.37170   0.90666   0.00000  Uiso   1.00
H264   H     0.52153   0.38378   0.84389   0.00000  Uiso   1.00
H265   H     0.45678   0.24212   0.65034   0.00000  Uiso   1.00
H266   H     0.12776   0.36065   0.00107   0.00000  Uiso   1.00
H267   H     0.66436   0.38613   0.86870   0.00000  Uiso   1.00
O268   O     0.52294   0.09692   0.63310   0.00000  Uiso   1.00
O269   O     0.09128   0.25243   0.09325   0.00000  Uiso   1.00
O270   O     0.79529   0.28585   0.91959   0.00000  Uiso   1.00
N271   N     0.53653   0.06647   0.72717   0.00000  Uiso   1.00
N272   N     0.22891   0.17728   0.05508   0.00000  Uiso   1.00
N273   N     0.73058   0.20110   0.93134   0.00000  Uiso   1.00
N274   N     0.47890   0.19336   0.68205   0.00000  Uiso   1.00
N275   N     0.17128   0.30417   0.00996   0.00000  Uiso   1.00
N276   N     0.67294   0.32799   0.88622   0.00000  Uiso   1.00
C277   C     0.94758   0.53363   0.66350   0.00000  Uiso   1.00
C278   C     0.90592   0.51325   0.72618   0.00000  Uiso   1.00
C279   C     0.86208   0.56649   0.76035   0.00000  Uiso   1.00
C280   C     0.82864   0.53614   0.81658   0.00000  Uiso   1.00
C281   C     0.76238   0.51679   0.91065   0.00000  Uiso   1.00
C282   C     0.90974   0.51020   0.63129   0.00000  Uiso   1.00
C283   C     0.86913   0.56087   0.58567   0.00000  Uiso   1.00
C284   C     0.83892   0.52796   0.56202   0.00000  Uiso   1.00
C285   C     0.77866   0.50385   0.50875   0.00000  Uiso   1.00
C286   C     0.03981   0.47564   0.65984   0.00000  Uiso   1.00
C287   C     0.10856   0.49723   0.63822   0.00000  Uiso   1.00
C288   C     0.18786   0.43521   0.63861   0.00000  Uiso   1.00
C289   C     0.32954   0.35744   0.62968   0.00000  Uiso   1.00
C290   C     0.96617   0.38508   0.70261   0.00000  Uiso   1.00
C291   C     0.91602   0.43257   0.74741   0.00000  Uiso   1.00
C292   C     0.88265   0.40214   0.80361   0.00000  Uiso   1.00
C293   C     0.83876   0.45531   0.83786   0.00000  Uiso   1.00
C294   C     0.91984   0.42952   0.65252   0.00000  Uiso   1.00
C295   C     0.88970   0.39652   0.62893   0.00000  Uiso   1.00
C296   C     0.84904   0.44713   0.58330   0.00000  Uiso   1.00
C297   C     0.04991   0.39495   0.68109   0.00000  Uiso   1.00
C298   C     0.12912   0.33288   0.68149   0.00000  Uiso   1.00
C299   C     0.19798   0.35438   0.65988   0.00000  Uiso   1.00
H300   H     0.93972   0.59645   0.64697   0.00000  Uiso   1.00
H301   H     0.85427   0.62892   0.74389   0.00000  Uiso   1.00
H302   H     0.86133   0.62331   0.56924   0.00000  Uiso   1.00
H303   H     0.10072   0.55968   0.62179   0.00000  Uiso   1.00
H304   H     0.76396   0.62936   0.86071   0.00000  Uiso   1.00
H305   H     0.77887   0.61751   0.49244   0.00000  Uiso   1.00
H306   H     0.28367   0.48333   0.60325   0.00000  Uiso   1.00
H307   H     0.97404   0.32226   0.71914   0.00000  Uiso   1.00
H308   H     0.89047   0.33969   0.82003   0.00000  Uiso   1.00
H309   H     0.89753   0.33408   0.64538   0.00000  Uiso   1.00
H310   H     0.13692   0.27045   0.69793   0.00000  Uiso   1.00
H311   H     0.79334   0.39461   0.92251   0.00000  Uiso   1.00
H312   H     0.80825   0.38276   0.55423   0.00000  Uiso   1.00
H313   H     0.31305   0.24859   0.66505   0.00000  Uiso   1.00
O314   O     0.72304   0.52840   0.95667   0.00000  Uiso   1.00
O315   O     0.74261   0.51285   0.47350   0.00000  Uiso   1.00
O316   O     0.40490   0.33682   0.61889   0.00000  Uiso   1.00
N317   N     0.78236   0.57171   0.86141   0.00000  Uiso   1.00
N318   N     0.79629   0.56064   0.51710   0.00000  Uiso   1.00
N319   N     0.26823   0.43520   0.62069   0.00000  Uiso   1.00
N320   N     0.79817   0.44540   0.89467   0.00000  Uiso   1.00
N321   N     0.81210   0.43432   0.55036   0.00000  Uiso   1.00
N322   N     0.28404   0.30888   0.65395   0.00000  Uiso   1.00
C323   C     0.39542   0.91118   0.74500   0.00000  Uiso   1.00
C324   C     0.38982   0.93104   0.79866   0.00000  Uiso   1.00
C325   C     0.45704   0.90794   0.82392   0.00000  Uiso   1.00
C326   C     0.43884   0.93214   0.87281   0.00000  Uiso   1.00
C327   C     0.44269   0.95607   0.95265   0.00000  Uiso   1.00
C328   C     0.35639   0.99157   0.70319   0.00000  Uiso   1.00
C329   C     0.39550   0.01936   0.64817   0.00000  Uiso   1.00
C330   C     0.34915   0.09450   0.61669   0.00000  Uiso   1.00
C331   C     0.30109   0.21238   0.54829   0.00000  Uiso   1.00
C332   C     0.33599   0.86853   0.76188   0.00000  Uiso   1.00
C333   C     0.35794   0.79287   0.75620   0.00000  Uiso   1.00
C334   C     0.29441   0.76443   0.77412   0.00000  Uiso   1.00
C335   C     0.21467   0.69127   0.79685   0.00000  Uiso   1.00
C336   C     0.24355   0.99523   0.78693   0.00000  Uiso   1.00
C337   C     0.30733   0.97670   0.82143   0.00000  Uiso   1.00
C338   C     0.28901   0.00093   0.87030   0.00000  Uiso   1.00
C339   C     0.35620   0.97787   0.89562   0.00000  Uiso   1.00
C340   C     0.27390   0.03723   0.72596   0.00000  Uiso   1.00
C341   C     0.22748   0.11235   0.69455   0.00000  Uiso   1.00
C342   C     0.26652   0.14024   0.63950   0.00000  Uiso   1.00
C343   C     0.25350   0.91418   0.78465   0.00000  Uiso   1.00
C344   C     0.18992   0.88586   0.80258   0.00000  Uiso   1.00
C345   C     0.21177   0.81017   0.79693   0.00000  Uiso   1.00
H346   H     0.45964   0.87564   0.72727   0.00000  Uiso   1.00
H347   H     0.52087   0.87262   0.80628   0.00000  Uiso   1.00
H348   H     0.45934   0.98401   0.63056   0.00000  Uiso   1.00
H349   H     0.42178   0.75756   0.73857   0.00000  Uiso   1.00
H350   H     0.55238   0.88942   0.90390   0.00000  Uiso   1.00
H351   H     0.42263   0.12429   0.53338   0.00000  Uiso   1.00
H352   H     0.34343   0.64677   0.76115   0.00000  Uiso   1.00
H353   H     0.17933   0.03078   0.80465   0.00000  Uiso   1.00
H354   H     0.22517   0.03626   0.88791   0.00000  Uiso   1.00
H355   H     0.16365   0.14766   0.71219   0.00000  Uiso   1.00
H356   H     0.12609   0.92121   0.82020   0.00000  Uiso   1.00
H357   H     0.31238   0.02224   0.97016   0.00000  Uiso   1.00
H358   H     0.18263   0.25711   0.59963   0.00000  Uiso   1.00
H359   H     0.10344   0.77959   0.82740   0.00000  Uiso   1.00
O360   O     0.46760   0.95667   0.99039   0.00000  Uiso   1.00
O361   O     0.29737   0.26479   0.50427   0.00000  Uiso   1.00
O362   O     0.19347   0.63830   0.80311   0.00000  Uiso   1.00
N363   N     0.48960   0.91991   0.90807   0.00000  Uiso   1.00
N364   N     0.36830   0.13951   0.56166   0.00000  Uiso   1.00
N365   N     0.29425   0.69307   0.77459   0.00000  Uiso   1.00
N366   N     0.36046   0.99138   0.94373   0.00000  Uiso   1.00
N367   N     0.23916   0.21098   0.59731   0.00000  Uiso   1.00
N368   N     0.16511   0.76455   0.81024   0.00000  Uiso   1.00
C369   C     0.89744   0.98618   0.78252   0.00000  Uiso   1.00
C370   C     0.92199   0.96548   0.83946   0.00000  Uiso   1.00
C371   C     0.90712   0.90771   0.88835   0.00000  Uiso   1.00
C372   C     0.93446   0.89784   0.93609   0.00000  Uiso   1.00
C373   C     0.96642   0.85863   0.02466   0.00000  Uiso   1.00
C374   C     0.97861   0.97540   0.73793   0.00000  Uiso   1.00
C375   C     0.01135   0.92597   0.70147   0.00000  Uiso   1.00
C376   C     0.08635   0.92446   0.66373   0.00000  Uiso   1.00
C377   C     0.20618   0.90069   0.59465   0.00000  Uiso   1.00
C378   C     0.84310   0.07604   0.76869   0.00000  Uiso   1.00
C379   C     0.76191   0.11125   0.75807   0.00000  Uiso   1.00
C380   C     0.72283   0.19448   0.74621   0.00000  Uiso   1.00
C381   C     0.63228   0.32698   0.72489   0.00000  Uiso   1.00
C382   C     0.97241   0.07138   0.78034   0.00000  Uiso   1.00
C383   C     0.96271   0.01175   0.83827   0.00000  Uiso   1.00
C384   C     0.99008   0.00197   0.88594   0.00000  Uiso   1.00
C385   C     0.97526   0.94420   0.93490   0.00000  Uiso   1.00
C386   C     0.01934   0.02167   0.73674   0.00000  Uiso   1.00
C387   C     0.09430   0.02023   0.69905   0.00000  Uiso   1.00
C388   C     0.12715   0.97082   0.66254   0.00000  Uiso   1.00
C389   C     0.88383   0.12232   0.76750   0.00000  Uiso   1.00
C390   C     0.84487   0.20551   0.75565   0.00000  Uiso   1.00
C391   C     0.76363   0.24084   0.74502   0.00000  Uiso   1.00
H392   H     0.86573   0.95015   0.78344   0.00000  Uiso   1.00
H393   H     0.87561   0.87191   0.88925   0.00000  Uiso   1.00
H394   H     0.97981   0.89018   0.70239   0.00000  Uiso   1.00
H395   H     0.73042   0.07542   0.75899   0.00000  Uiso   1.00
H396   H     0.90455   0.80555   0.00603   0.00000  Uiso   1.00
H397   H     0.12425   0.84409   0.61201   0.00000  Uiso   1.00
H398   H     0.59835   0.23471   0.73135   0.00000  Uiso   1.00
H399   H     0.00412   0.10740   0.77942   0.00000  Uiso   1.00
H400   H     0.02159   0.03779   0.88501   0.00000  Uiso   1.00
H401   H     0.12580   0.05605   0.69814   0.00000  Uiso   1.00
H402   H     0.87640   0.24130   0.75474   0.00000  Uiso   1.00
H403   H     0.02304   0.94018   0.00259   0.00000  Uiso   1.00
H404   H     0.24273   0.97872   0.60856   0.00000  Uiso   1.00
H405   H     0.71684   0.36935   0.72790   0.00000  Uiso   1.00
O406   O     0.97281   0.82421   0.07384   0.00000  Uiso   1.00
O407   O     0.26104   0.87479   0.55688   0.00000  Uiso   1.00
O408   O     0.57107   0.38728   0.71346   0.00000  Uiso   1.00
N409   N     0.93002   0.84680   0.99074   0.00000  Uiso   1.00
N410   N     0.13544   0.88282   0.62235   0.00000  Uiso   1.00
N411   N     0.64377   0.24802   0.73391   0.00000  Uiso   1.00
N412   N     0.99378   0.91924   0.98888   0.00000  Uiso   1.00
N413   N     0.19919   0.95527   0.62050   0.00000  Uiso   1.00
N414   N     0.70753   0.32047   0.73206   0.00000  Uiso   1.00
C415   C     0.41101   0.45129   0.24109   0.00000  Uiso   1.00
C416   C     0.36305   0.45773   0.30135   0.00000  Uiso   1.00
C417   C     0.29500   0.43613   0.33047   0.00000  Uiso   1.00
C418   C     0.25981   0.44663   0.38523   0.00000  Uiso   1.00
C419   C     0.18048   0.45196   0.47503   0.00000  Uiso   1.00
C420   C     0.40706   0.53546   0.20695   0.00000  Uiso   1.00
C421   C     0.37602   0.57922   0.15669   0.00000  Uiso   1.00
C422   C     0.37788   0.65516   0.13199   0.00000  Uiso   1.00
C423   C     0.36693   0.78114   0.07520   0.00000  Uiso   1.00
C424   C     0.50302   0.39977   0.24614   0.00000  Uiso   1.00
C425   C     0.55268   0.32945   0.22882   0.00000  Uiso   1.00
C426   C     0.63535   0.29115   0.23711   0.00000  Uiso   1.00
C427   C     0.77339   0.20645   0.24118   0.00000  Uiso   1.00
C428   C     0.46952   0.50833   0.28658   0.00000  Uiso   1.00
C429   C     0.39483   0.48871   0.32606   0.00000  Uiso   1.00
C430   C     0.35974   0.49924   0.38080   0.00000  Uiso   1.00
C431   C     0.29165   0.47767   0.40999   0.00000  Uiso   1.00
C432   C     0.43883   0.56645   0.23166   0.00000  Uiso   1.00
C433   C     0.44075   0.64233   0.20702   0.00000  Uiso   1.00
C434   C     0.40972   0.68619   0.15674   0.00000  Uiso   1.00
C435   C     0.53480   0.43075   0.27085   0.00000  Uiso   1.00
C436   C     0.61741   0.39256   0.27916   0.00000  Uiso   1.00
C437   C     0.66718   0.32219   0.26186   0.00000  Uiso   1.00
H438   H     0.38627   0.42717   0.22185   0.00000  Uiso   1.00
H439   H     0.27042   0.41217   0.31133   0.00000  Uiso   1.00
H440   H     0.35144   0.55523   0.13758   0.00000  Uiso   1.00
H441   H     0.52806   0.30549   0.20971   0.00000  Uiso   1.00
H442   H     0.15598   0.40922   0.42142   0.00000  Uiso   1.00
H443   H     0.32683   0.71086   0.05504   0.00000  Uiso   1.00
H444   H     0.69929   0.18425   0.20714   0.00000  Uiso   1.00
H445   H     0.49427   0.53245   0.30582   0.00000  Uiso   1.00
H446   H     0.38434   0.52322   0.39990   0.00000  Uiso   1.00
H447   H     0.46536   0.66628   0.22615   0.00000  Uiso   1.00
H448   H     0.64198   0.41655   0.29828   0.00000  Uiso   1.00
H449   H     0.24844   0.49936   0.49331   0.00000  Uiso   1.00
H450   H     0.41929   0.80100   0.12693   0.00000  Uiso   1.00
H451   H     0.79175   0.27438   0.27903   0.00000  Uiso   1.00
O452   O     0.12793   0.44634   0.51774   0.00000  Uiso   1.00
O453   O     0.35210   0.84208   0.03706   0.00000  Uiso   1.00
O454   O     0.84075   0.15117   0.23661   0.00000  Uiso   1.00
N455   N     0.19284   0.43169   0.42543   0.00000  Uiso   1.00
N456   N     0.35256   0.71371   0.08289   0.00000  Uiso   1.00
N457   N     0.70078   0.22138   0.22508   0.00000  Uiso   1.00
N458   N     0.24259   0.48019   0.46411   0.00000  Uiso   1.00
N459   N     0.40231   0.76221   0.12158   0.00000  Uiso   1.00
N460   N     0.75053   0.26988   0.26376   0.00000  Uiso   1.00
C461   C     0.86064   0.48843   0.22278   0.00000  Uiso   1.00
C462   C     0.82145   0.46196   0.28529   0.00000  Uiso   1.00
C463   C     0.86534   0.40778   0.32874   0.00000  Uiso   1.00
C464   C     0.81795   0.39147   0.38307   0.00000  Uiso   1.00
C465   C     0.77050   0.34477   0.47853   0.00000  Uiso   1.00
C466   C     0.82165   0.46966   0.18833   0.00000  Uiso   1.00
C467   C     0.86570   0.42197   0.15027   0.00000  Uiso   1.00
C468   C     0.81846   0.41215   0.12297   0.00000  Uiso   1.00
C469   C     0.77132   0.37745   0.06789   0.00000  Uiso   1.00
C470   C     0.82765   0.57984   0.20788   0.00000  Uiso   1.00
C471   C     0.87676   0.62479   0.18623   0.00000  Uiso   1.00
C472   C     0.83458   0.70773   0.17538   0.00000  Uiso   1.00
C473   C     0.79676   0.84410   0.15064   0.00000  Uiso   1.00
C474   C     0.69842   0.55581   0.24199   0.00000  Uiso   1.00
C475   C     0.73334   0.49856   0.29572   0.00000  Uiso   1.00
C476   C     0.68586   0.48232   0.34999   0.00000  Uiso   1.00
C477   C     0.72968   0.42813   0.39352   0.00000  Uiso   1.00
C478   C     0.73353   0.50625   0.19876   0.00000  Uiso   1.00
C479   C     0.68622   0.49651   0.17152   0.00000  Uiso   1.00
C480   C     0.73019   0.44881   0.13342   0.00000  Uiso   1.00
C481   C     0.73954   0.61644   0.21831   0.00000  Uiso   1.00
C482   C     0.69728   0.69933   0.20749   0.00000  Uiso   1.00
C483   C     0.74631   0.74439   0.18583   0.00000  Uiso   1.00
H484   H     0.92924   0.45994   0.21466   0.00000  Uiso   1.00
H485   H     0.93354   0.37947   0.32065   0.00000  Uiso   1.00
H486   H     0.93389   0.39366   0.14220   0.00000  Uiso   1.00
H487   H     0.94494   0.59645   0.17817   0.00000  Uiso   1.00
H488   H     0.89944   0.30637   0.44276   0.00000  Uiso   1.00
H489   H     0.90019   0.33631   0.06648   0.00000  Uiso   1.00
H490   H     0.92350   0.76393   0.14231   0.00000  Uiso   1.00
H491   H     0.62981   0.58430   0.25011   0.00000  Uiso   1.00
H492   H     0.61768   0.51065   0.35805   0.00000  Uiso   1.00
H493   H     0.61803   0.52484   0.17960   0.00000  Uiso   1.00
H494   H     0.62909   0.72763   0.21556   0.00000  Uiso   1.00
H495   H     0.64307   0.41283   0.47312   0.00000  Uiso   1.00
H496   H     0.64382   0.44278   0.09683   0.00000  Uiso   1.00
H497   H     0.66714   0.87040   0.17267   0.00000  Uiso   1.00
O498   O     0.76867   0.30889   0.52831   0.00000  Uiso   1.00
O499   O     0.76966   0.34819   0.03462   0.00000  Uiso   1.00
O500   O     0.80024   0.90921   0.13412   0.00000  Uiso   1.00
N501   N     0.84077   0.34155   0.43510   0.00000  Uiso   1.00
N502   N     0.84147   0.36953   0.08329   0.00000  Uiso   1.00
N503   N     0.86327   0.76932   0.15418   0.00000  Uiso   1.00
N504   N     0.70282   0.39883   0.45143   0.00000  Uiso   1.00
N505   N     0.70352   0.42682   0.09963   0.00000  Uiso   1.00
N506   N     0.72532   0.82661   0.17051   0.00000  Uiso   1.00
C507   C     0.28104   0.03680   0.23258   0.00000  Uiso   1.00
C508   C     0.30060   0.01444   0.29149   0.00000  Uiso   1.00
C509   C     0.29050   0.06807   0.31932   0.00000  Uiso   1.00
C510   C     0.31195   0.03567   0.37297   0.00000  Uiso   1.00
C511   C     0.33773   0.01358   0.46064   0.00000  Uiso   1.00
C512   C     0.36225   0.99062   0.19685   0.00000  Uiso   1.00
C513   C     0.40397   0.02421   0.14510   0.00000  Uiso   1.00
C514   C     0.47732   0.97175   0.11908   0.00000  Uiso   1.00
C515   C     0.59877   0.91266   0.05979   0.00000  Uiso   1.00
C516   C     0.21872   0.00057   0.24080   0.00000  Uiso   1.00
C517   C     0.13976   0.04252   0.22599   0.00000  Uiso   1.00
C518   C     0.09227   0.99843   0.23696   0.00000  Uiso   1.00
C519   C     0.99086   0.95479   0.24591   0.00000  Uiso   1.00
C520   C     0.33712   0.88390   0.27838   0.00000  Uiso   1.00
C521   C     0.33106   0.93139   0.31636   0.00000  Uiso   1.00
C522   C     0.35253   0.89890   0.36999   0.00000  Uiso   1.00
C523   C     0.34246   0.95246   0.39789   0.00000  Uiso   1.00
C524   C     0.39271   0.90757   0.22172   0.00000  Uiso   1.00
C525   C     0.46601   0.85504   0.19577   0.00000  Uiso   1.00
C526   C     0.50783   0.88854   0.14400   0.00000  Uiso   1.00
C527   C     0.24917   0.91751   0.26567   0.00000  Uiso   1.00
C528   C     0.20180   0.87335   0.27666   0.00000  Uiso   1.00
C529   C     0.12278   0.91522   0.26188   0.00000  Uiso   1.00
H530   H     0.25734   0.10146   0.21321   0.00000  Uiso   1.00
H531   H     0.26693   0.13234   0.30005   0.00000  Uiso   1.00
H532   H     0.38038   0.08848   0.12586   0.00000  Uiso   1.00
H533   H     0.11621   0.10679   0.20674   0.00000  Uiso   1.00
H534   H     0.29103   0.12994   0.40729   0.00000  Uiso   1.00
H535   H     0.53023   0.03747   0.03998   0.00000  Uiso   1.00
H536   H     0.97317   0.07607   0.21054   0.00000  Uiso   1.00
H537   H     0.36083   0.81923   0.29774   0.00000  Uiso   1.00
H538   H     0.37610   0.83462   0.38922   0.00000  Uiso   1.00
H539   H     0.48956   0.79077   0.21503   0.00000  Uiso   1.00
H540   H     0.22538   0.80907   0.29591   0.00000  Uiso   1.00
H541   H     0.37964   0.88830   0.47966   0.00000  Uiso   1.00
H542   H     0.61884   0.79583   0.11235   0.00000  Uiso   1.00
H543   H     0.06178   0.83443   0.28291   0.00000  Uiso   1.00
O544   O     0.34354   0.02434   0.50212   0.00000  Uiso   1.00
O545   O     0.65735   0.90302   0.02022   0.00000  Uiso   1.00
O546   O     0.92650   0.95366   0.24399   0.00000  Uiso   1.00
N547   N     0.30977   0.07096   0.41177   0.00000  Uiso   1.00
N548   N     0.53342   0.98451   0.06837   0.00000  Uiso   1.00
N549   N     0.01262   0.02059   0.22781   0.00000  Uiso   1.00
N550   N     0.35745   0.94094   0.45071   0.00000  Uiso   1.00
N551   N     0.58110   0.85448   0.10731   0.00000  Uiso   1.00
N552   N     0.06030   0.89057   0.26675   0.00000  Uiso   1.00
