data_job_04096
_audit_creation_date              2018-12-19
_audit_creation_method            'Materials Studio'
_symmetry_space_group_name_H-M    'P1'
_symmetry_Int_Tables_number       1
_symmetry_cell_setting            triclinic
loop_
_symmetry_equiv_pos_as_xyz
  x,y,z
_cell_length_a                    12.6009
_cell_length_b                    23.2756
_cell_length_c                    10.1744
_cell_angle_alpha                 90.0000
_cell_angle_beta                  90.0000
_cell_angle_gamma                 90.0000
loop_
_atom_site_label
_atom_site_type_symbol
_atom_site_fract_x
_atom_site_fract_y
_atom_site_fract_z
_atom_site_U_iso_or_equiv
_atom_site_adp_type
_atom_site_occupancy
C1     C     0.54387   0.01818   0.42418   0.00000  Uiso   1.00
C2     C     0.48967   0.96332   0.47115   0.00000  Uiso   1.00
C3     C     0.53583   0.92101   0.54839   0.00000  Uiso   1.00
C4     C     0.47301   0.87410   0.58084   0.00000  Uiso   1.00
C5     C     0.40487   0.78956   0.66031   0.00000  Uiso   1.00
C6     C     0.53461   0.01803   0.27474   0.00000  Uiso   1.00
C7     C     0.61856   0.02172   0.18685   0.00000  Uiso   1.00
C8     C     0.59357   0.02087   0.05396   0.00000  Uiso   1.00
C9     C     0.59520   0.02130   0.82849   0.00000  Uiso   1.00
C10    C     0.47462   0.06768   0.47200   0.00000  Uiso   1.00
C11    C     0.50812   0.11313   0.54994   0.00000  Uiso   1.00
C12    C     0.43263   0.15409   0.58310   0.00000  Uiso   1.00
C13    C     0.34111   0.23161   0.66391   0.00000  Uiso   1.00
C14    C     0.35021   0.01012   0.34446   0.00000  Uiso   1.00
C15    C     0.38448   0.95894   0.42784   0.00000  Uiso   1.00
C16    C     0.32158   0.91209   0.46019   0.00000  Uiso   1.00
C17    C     0.36764   0.86971   0.53746   0.00000  Uiso   1.00
C18    C     0.42943   0.01365   0.23144   0.00000  Uiso   1.00
C19    C     0.40431   0.01280   0.09864   0.00000  Uiso   1.00
C20    C     0.48820   0.01648   0.01057   0.00000  Uiso   1.00
C21    C     0.36943   0.06330   0.42870   0.00000  Uiso   1.00
C22    C     0.29387   0.10420   0.46174   0.00000  Uiso   1.00
C23    C     0.32725   0.14970   0.53971   0.00000  Uiso   1.00
H24    H     0.62576   0.02159   0.45789   0.00000  Uiso   1.00
H25    H     0.61724   0.92441   0.58188   0.00000  Uiso   1.00
H26    H     0.69995   0.02511   0.22039   0.00000  Uiso   1.00
H27    H     0.58953   0.11650   0.58343   0.00000  Uiso   1.00
H28    H     0.56141   0.81472   0.70020   0.00000  Uiso   1.00
H29    H     0.73582   0.02707   0.93799   0.00000  Uiso   1.00
H30    H     0.50297   0.21979   0.70353   0.00000  Uiso   1.00
H31    H     0.26832   0.00671   0.31074   0.00000  Uiso   1.00
H32    H     0.24018   0.90871   0.42666   0.00000  Uiso   1.00
H33    H     0.32290   0.00941   0.06517   0.00000  Uiso   1.00
H34    H     0.21248   0.10080   0.42821   0.00000  Uiso   1.00
H35    H     0.25539   0.80198   0.57422   0.00000  Uiso   1.00
H36    H     0.42979   0.01433   0.81200   0.00000  Uiso   1.00
H37    H     0.19695   0.20704   0.57754   0.00000  Uiso   1.00
O38    O     0.39635   0.74414   0.71608   0.00000  Uiso   1.00
O39    O     0.62516   0.02275   0.71610   0.00000  Uiso   1.00
O40    O     0.31968   0.27558   0.72046   0.00000  Uiso   1.00
N41    N     0.49324   0.82518   0.65467   0.00000  Uiso   1.00
N42    N     0.65631   0.02370   0.94204   0.00000  Uiso   1.00
N43    N     0.43862   0.20388   0.65773   0.00000  Uiso   1.00
N44    N     0.32857   0.81832   0.58688   0.00000  Uiso   1.00
N45    N     0.49163   0.01685   0.87425   0.00000  Uiso   1.00
N46    N     0.27395   0.19703   0.58994   0.00000  Uiso   1.00
C47    C     0.95613   0.98182   0.92418   0.00000  Uiso   1.00
C48    C     0.01033   0.03668   0.97115   0.00000  Uiso   1.00
C49    C     0.96417   0.07899   0.04839   0.00000  Uiso   1.00
C50    C     0.02699   0.12590   0.08084   0.00000  Uiso   1.00
C51    C     0.09513   0.21044   0.16031   0.00000  Uiso   1.00
C52    C     0.96539   0.98197   0.77474   0.00000  Uiso   1.00
C53    C     0.88144   0.97828   0.68685   0.00000  Uiso   1.00
C54    C     0.90643   0.97913   0.55396   0.00000  Uiso   1.00
C55    C     0.90480   0.97870   0.32849   0.00000  Uiso   1.00
C56    C     0.02538   0.93232   0.97200   0.00000  Uiso   1.00
C57    C     0.99188   0.88687   0.04994   0.00000  Uiso   1.00
C58    C     0.06737   0.84591   0.08310   0.00000  Uiso   1.00
C59    C     0.15889   0.76839   0.16391   0.00000  Uiso   1.00
C60    C     0.14979   0.98988   0.84446   0.00000  Uiso   1.00
C61    C     0.11552   0.04106   0.92784   0.00000  Uiso   1.00
C62    C     0.17842   0.08791   0.96019   0.00000  Uiso   1.00
C63    C     0.13236   0.13029   0.03746   0.00000  Uiso   1.00
C64    C     0.07057   0.98635   0.73144   0.00000  Uiso   1.00
C65    C     0.09569   0.98720   0.59864   0.00000  Uiso   1.00
C66    C     0.01180   0.98352   0.51057   0.00000  Uiso   1.00
C67    C     0.13057   0.93670   0.92870   0.00000  Uiso   1.00
C68    C     0.20613   0.89580   0.96174   0.00000  Uiso   1.00
C69    C     0.17275   0.85030   0.03971   0.00000  Uiso   1.00
H70    H     0.87424   0.97841   0.95789   0.00000  Uiso   1.00
H71    H     0.88276   0.07559   0.08188   0.00000  Uiso   1.00
H72    H     0.80005   0.97489   0.72039   0.00000  Uiso   1.00
H73    H     0.91047   0.88350   0.08343   0.00000  Uiso   1.00
H74    H     0.93859   0.18528   0.20020   0.00000  Uiso   1.00
H75    H     0.76418   0.97293   0.43799   0.00000  Uiso   1.00
H76    H     0.99703   0.78021   0.20353   0.00000  Uiso   1.00
H77    H     0.23168   0.99329   0.81074   0.00000  Uiso   1.00
H78    H     0.25982   0.09129   0.92666   0.00000  Uiso   1.00
H79    H     0.17710   0.99059   0.56517   0.00000  Uiso   1.00
H80    H     0.28752   0.89920   0.92821   0.00000  Uiso   1.00
H81    H     0.24461   0.19802   0.07422   0.00000  Uiso   1.00
H82    H     0.07021   0.98567   0.31200   0.00000  Uiso   1.00
H83    H     0.30305   0.79296   0.07754   0.00000  Uiso   1.00
O84    O     0.10365   0.25586   0.21608   0.00000  Uiso   1.00
O85    O     0.87484   0.97725   0.21610   0.00000  Uiso   1.00
O86    O     0.18032   0.72442   0.22046   0.00000  Uiso   1.00
N87    N     0.00676   0.17482   0.15467   0.00000  Uiso   1.00
N88    N     0.84369   0.97630   0.44204   0.00000  Uiso   1.00
N89    N     0.06138   0.79612   0.15773   0.00000  Uiso   1.00
N90    N     0.17143   0.18168   0.08688   0.00000  Uiso   1.00
N91    N     0.00837   0.98315   0.37425   0.00000  Uiso   1.00
N92    N     0.22605   0.80297   0.08994   0.00000  Uiso   1.00
C93    C     0.45613   0.51818   0.07582   0.00000  Uiso   1.00
C94    C     0.51033   0.46332   0.02885   0.00000  Uiso   1.00
C95    C     0.46417   0.42101   0.95161   0.00000  Uiso   1.00
C96    C     0.52699   0.37410   0.91916   0.00000  Uiso   1.00
C97    C     0.59513   0.28956   0.83969   0.00000  Uiso   1.00
C98    C     0.46539   0.51803   0.22526   0.00000  Uiso   1.00
C99    C     0.38144   0.52172   0.31315   0.00000  Uiso   1.00
C100   C     0.40643   0.52087   0.44604   0.00000  Uiso   1.00
C101   C     0.40480   0.52130   0.67151   0.00000  Uiso   1.00
C102   C     0.52538   0.56768   0.02800   0.00000  Uiso   1.00
C103   C     0.49188   0.61313   0.95006   0.00000  Uiso   1.00
C104   C     0.56737   0.65409   0.91690   0.00000  Uiso   1.00
C105   C     0.65889   0.73161   0.83609   0.00000  Uiso   1.00
C106   C     0.64979   0.51012   0.15554   0.00000  Uiso   1.00
C107   C     0.61552   0.45894   0.07216   0.00000  Uiso   1.00
C108   C     0.67842   0.41209   0.03981   0.00000  Uiso   1.00
C109   C     0.63236   0.36971   0.96254   0.00000  Uiso   1.00
C110   C     0.57057   0.51365   0.26856   0.00000  Uiso   1.00
C111   C     0.59569   0.51280   0.40136   0.00000  Uiso   1.00
C112   C     0.51180   0.51648   0.48943   0.00000  Uiso   1.00
C113   C     0.63057   0.56330   0.07130   0.00000  Uiso   1.00
C114   C     0.70613   0.60420   0.03826   0.00000  Uiso   1.00
C115   C     0.67275   0.64970   0.96029   0.00000  Uiso   1.00
H116   H     0.37424   0.52159   0.04211   0.00000  Uiso   1.00
H117   H     0.38276   0.42441   0.91812   0.00000  Uiso   1.00
H118   H     0.30005   0.52511   0.27961   0.00000  Uiso   1.00
H119   H     0.41047   0.61650   0.91657   0.00000  Uiso   1.00
H120   H     0.43859   0.31472   0.79980   0.00000  Uiso   1.00
H121   H     0.26418   0.52707   0.56201   0.00000  Uiso   1.00
H122   H     0.49703   0.71979   0.79647   0.00000  Uiso   1.00
H123   H     0.73168   0.50671   0.18926   0.00000  Uiso   1.00
H124   H     0.75982   0.40871   0.07334   0.00000  Uiso   1.00
H125   H     0.67710   0.50941   0.43483   0.00000  Uiso   1.00
H126   H     0.78752   0.60080   0.07179   0.00000  Uiso   1.00
H127   H     0.74461   0.30198   0.92578   0.00000  Uiso   1.00
H128   H     0.57021   0.51433   0.68800   0.00000  Uiso   1.00
H129   H     0.80305   0.70704   0.92246   0.00000  Uiso   1.00
O130   O     0.60365   0.24414   0.78392   0.00000  Uiso   1.00
O131   O     0.37484   0.52275   0.78390   0.00000  Uiso   1.00
O132   O     0.68032   0.77558   0.77954   0.00000  Uiso   1.00
N133   N     0.50676   0.32518   0.84533   0.00000  Uiso   1.00
N134   N     0.34369   0.52370   0.55796   0.00000  Uiso   1.00
N135   N     0.56138   0.70388   0.84227   0.00000  Uiso   1.00
N136   N     0.67143   0.31832   0.91312   0.00000  Uiso   1.00
N137   N     0.50837   0.51685   0.62575   0.00000  Uiso   1.00
N138   N     0.72605   0.69703   0.91006   0.00000  Uiso   1.00
C139   C     0.04387   0.48182   0.57582   0.00000  Uiso   1.00
C140   C     0.98967   0.53668   0.52885   0.00000  Uiso   1.00
C141   C     0.03583   0.57899   0.45161   0.00000  Uiso   1.00
C142   C     0.97301   0.62590   0.41916   0.00000  Uiso   1.00
C143   C     0.90487   0.71044   0.33969   0.00000  Uiso   1.00
C144   C     0.03461   0.48197   0.72526   0.00000  Uiso   1.00
C145   C     0.11856   0.47828   0.81315   0.00000  Uiso   1.00
C146   C     0.09357   0.47913   0.94604   0.00000  Uiso   1.00
C147   C     0.09520   0.47870   0.17151   0.00000  Uiso   1.00
C148   C     0.97462   0.43232   0.52800   0.00000  Uiso   1.00
C149   C     0.00812   0.38687   0.45006   0.00000  Uiso   1.00
C150   C     0.93263   0.34591   0.41690   0.00000  Uiso   1.00
C151   C     0.84111   0.26839   0.33609   0.00000  Uiso   1.00
C152   C     0.85021   0.48988   0.65554   0.00000  Uiso   1.00
C153   C     0.88448   0.54106   0.57216   0.00000  Uiso   1.00
C154   C     0.82158   0.58791   0.53981   0.00000  Uiso   1.00
C155   C     0.86764   0.63029   0.46254   0.00000  Uiso   1.00
C156   C     0.92943   0.48635   0.76856   0.00000  Uiso   1.00
C157   C     0.90431   0.48720   0.90136   0.00000  Uiso   1.00
C158   C     0.98820   0.48352   0.98943   0.00000  Uiso   1.00
C159   C     0.86943   0.43670   0.57130   0.00000  Uiso   1.00
C160   C     0.79387   0.39580   0.53826   0.00000  Uiso   1.00
C161   C     0.82725   0.35030   0.46029   0.00000  Uiso   1.00
H162   H     0.12576   0.47841   0.54211   0.00000  Uiso   1.00
H163   H     0.11724   0.57559   0.41812   0.00000  Uiso   1.00
H164   H     0.19995   0.47489   0.77961   0.00000  Uiso   1.00
H165   H     0.08953   0.38350   0.41657   0.00000  Uiso   1.00
H166   H     0.06141   0.68528   0.29980   0.00000  Uiso   1.00
H167   H     0.23582   0.47293   0.06201   0.00000  Uiso   1.00
H168   H     0.00297   0.28021   0.29647   0.00000  Uiso   1.00
H169   H     0.76832   0.49329   0.68926   0.00000  Uiso   1.00
H170   H     0.74018   0.59129   0.57334   0.00000  Uiso   1.00
H171   H     0.82290   0.49059   0.93483   0.00000  Uiso   1.00
H172   H     0.71248   0.39920   0.57179   0.00000  Uiso   1.00
H173   H     0.75539   0.69802   0.42578   0.00000  Uiso   1.00
H174   H     0.92979   0.48567   0.18800   0.00000  Uiso   1.00
H175   H     0.69695   0.29296   0.42246   0.00000  Uiso   1.00
O176   O     0.89635   0.75586   0.28392   0.00000  Uiso   1.00
O177   O     0.12516   0.47725   0.28390   0.00000  Uiso   1.00
O178   O     0.81968   0.22442   0.27954   0.00000  Uiso   1.00
N179   N     0.99324   0.67482   0.34533   0.00000  Uiso   1.00
N180   N     0.15631   0.47630   0.05796   0.00000  Uiso   1.00
N181   N     0.93862   0.29612   0.34227   0.00000  Uiso   1.00
N182   N     0.82857   0.68168   0.41312   0.00000  Uiso   1.00
N183   N     0.99163   0.48315   0.12575   0.00000  Uiso   1.00
N184   N     0.77395   0.30297   0.41006   0.00000  Uiso   1.00
