data_job_04704
_audit_creation_date              2018-12-19
_audit_creation_method            'Materials Studio'
_symmetry_space_group_name_H-M    'P1'
_symmetry_Int_Tables_number       1
_symmetry_cell_setting            triclinic
loop_
_symmetry_equiv_pos_as_xyz
  x,y,z
_cell_length_a                    12.2712
_cell_length_b                    13.5878
_cell_length_c                    42.3861
_cell_angle_alpha                 90.0000
_cell_angle_beta                  90.0000
_cell_angle_gamma                 90.0000
loop_
_atom_site_label
_atom_site_type_symbol
_atom_site_fract_x
_atom_site_fract_y
_atom_site_fract_z
_atom_site_U_iso_or_equiv
_atom_site_adp_type
_atom_site_occupancy
C1     C     0.33104   0.99943   0.15735   0.00000  Uiso   1.00
C2     C     0.21941   0.98715   0.17266   0.00000  Uiso   1.00
C3     C     0.15402   0.06279   0.18387   0.00000  Uiso   1.00
C4     C     0.05472   0.03633   0.19708   0.00000  Uiso   1.00
C5     C     0.88638   0.03225   0.22058   0.00000  Uiso   1.00
C6     C     0.40939   0.93663   0.17670   0.00000  Uiso   1.00
C7     C     0.50374   0.96980   0.19129   0.00000  Uiso   1.00
C8     C     0.56437   0.90081   0.20790   0.00000  Uiso   1.00
C9     C     0.69103   0.81829   0.23765   0.00000  Uiso   1.00
C10    C     0.32315   0.95013   0.12511   0.00000  Uiso   1.00
C11    C     0.34501   0.99464   0.09633   0.00000  Uiso   1.00
C12    C     0.33305   0.93700   0.06950   0.00000  Uiso   1.00
C13    C     0.32579   0.87544   0.01915   0.00000  Uiso   1.00
C14    C     0.27098   0.81793   0.16088   0.00000  Uiso   1.00
C15    C     0.18679   0.88856   0.17458   0.00000  Uiso   1.00
C16    C     0.08756   0.86198   0.18778   0.00000  Uiso   1.00
C17    C     0.02203   0.93757   0.19900   0.00000  Uiso   1.00
C18    C     0.37678   0.83805   0.17862   0.00000  Uiso   1.00
C19    C     0.43729   0.76900   0.19521   0.00000  Uiso   1.00
C20    C     0.53169   0.80205   0.20982   0.00000  Uiso   1.00
C21    C     0.29052   0.85155   0.12703   0.00000  Uiso   1.00
C22    C     0.27854   0.79383   0.10024   0.00000  Uiso   1.00
C23    C     0.30037   0.83824   0.07142   0.00000  Uiso   1.00
H24    H     0.35644   0.07618   0.15585   0.00000  Uiso   1.00
H25    H     0.17930   0.13907   0.18238   0.00000  Uiso   1.00
H26    H     0.52897   0.04609   0.18980   0.00000  Uiso   1.00
H27    H     0.37025   0.07092   0.09485   0.00000  Uiso   1.00
H28    H     0.96853   0.16532   0.21264   0.00000  Uiso   1.00
H29    H     0.70585   0.96927   0.22828   0.00000  Uiso   1.00
H30    H     0.37117   0.02163   0.02806   0.00000  Uiso   1.00
H31    H     0.24558   0.74118   0.16238   0.00000  Uiso   1.00
H32    H     0.06234   0.78569   0.18926   0.00000  Uiso   1.00
H33    H     0.41202   0.69271   0.19669   0.00000  Uiso   1.00
H34    H     0.25330   0.71754   0.10174   0.00000  Uiso   1.00
H35    H     0.87361   0.87851   0.21823   0.00000  Uiso   1.00
H36    H     0.61094   0.68245   0.23387   0.00000  Uiso   1.00
H37    H     0.27624   0.73481   0.03365   0.00000  Uiso   1.00
O38    O     0.80255   0.05724   0.23301   0.00000  Uiso   1.00
O39    O     0.76990   0.80002   0.25353   0.00000  Uiso   1.00
O40    O     0.33079   0.86872   0.99084   0.00000  Uiso   1.00
N41    N     0.97133   0.09171   0.21026   0.00000  Uiso   1.00
N42    N     0.66067   0.90842   0.22489   0.00000  Uiso   1.00
N43    N     0.34780   0.95736   0.03770   0.00000  Uiso   1.00
N44    N     0.92025   0.93738   0.21327   0.00000  Uiso   1.00
N45    N     0.60960   0.75408   0.22790   0.00000  Uiso   1.00
N46    N     0.29672   0.80303   0.04071   0.00000  Uiso   1.00
C47    C     0.41025   0.50118   0.84539   0.00000  Uiso   1.00
C48    C     0.53211   0.51110   0.83909   0.00000  Uiso   1.00
C49    C     0.60342   0.43411   0.83304   0.00000  Uiso   1.00
C50    C     0.71184   0.45847   0.82786   0.00000  Uiso   1.00
C51    C     0.89560   0.45900   0.81793   0.00000  Uiso   1.00
C52    C     0.35371   0.56574   0.82094   0.00000  Uiso   1.00
C53    C     0.27502   0.53469   0.79963   0.00000  Uiso   1.00
C54    C     0.23325   0.60504   0.77918   0.00000  Uiso   1.00
C55    C     0.14000   0.69041   0.74108   0.00000  Uiso   1.00
C56    C     0.38999   0.55015   0.87722   0.00000  Uiso   1.00
C57    C     0.34177   0.50601   0.90324   0.00000  Uiso   1.00
C58    C     0.33053   0.56325   0.93018   0.00000  Uiso   1.00
C59    C     0.29360   0.62441   0.97948   0.00000  Uiso   1.00
C60    C     0.47599   0.68134   0.84696   0.00000  Uiso   1.00
C61    C     0.56781   0.60896   0.83994   0.00000  Uiso   1.00
C62    C     0.67615   0.63344   0.83478   0.00000  Uiso   1.00
C63    C     0.74761   0.55650   0.82872   0.00000  Uiso   1.00
C64    C     0.38941   0.66359   0.82179   0.00000  Uiso   1.00
C65    C     0.34775   0.73401   0.80137   0.00000  Uiso   1.00
C66    C     0.26902   0.70308   0.78004   0.00000  Uiso   1.00
C67    C     0.42569   0.64801   0.87808   0.00000  Uiso   1.00
C68    C     0.41451   0.70533   0.90498   0.00000  Uiso   1.00
C69    C     0.36630   0.66128   0.93104   0.00000  Uiso   1.00
H70    H     0.38245   0.42500   0.84472   0.00000  Uiso   1.00
H71    H     0.57575   0.35839   0.83237   0.00000  Uiso   1.00
H72    H     0.24740   0.45896   0.79897   0.00000  Uiso   1.00
H73    H     0.31415   0.43028   0.90257   0.00000  Uiso   1.00
H74    H     0.80580   0.32771   0.81905   0.00000  Uiso   1.00
H75    H     0.11342   0.53976   0.74863   0.00000  Uiso   1.00
H76    H     0.25418   0.47929   0.96708   0.00000  Uiso   1.00
H77    H     0.50378   0.75752   0.84763   0.00000  Uiso   1.00
H78    H     0.70375   0.70917   0.83544   0.00000  Uiso   1.00
H79    H     0.37539   0.80973   0.80204   0.00000  Uiso   1.00
H80    H     0.44215   0.78105   0.90564   0.00000  Uiso   1.00
H81    H     0.90969   0.61242   0.82154   0.00000  Uiso   1.00
H82    H     0.21730   0.82447   0.75112   0.00000  Uiso   1.00
H83    H     0.35807   0.76399   0.96957   0.00000  Uiso   1.00
O84    O     0.98710   0.43226   0.81221   0.00000  Uiso   1.00
O85    O     0.07870   0.71046   0.71983   0.00000  Uiso   1.00
O86    O     0.26338   0.63112   0.00644   0.00000  Uiso   1.00
N87    N     0.80282   0.40135   0.82131   0.00000  Uiso   1.00
N88    N     0.15549   0.59960   0.75547   0.00000  Uiso   1.00
N89    N     0.28706   0.54307   0.95971   0.00000  Uiso   1.00
N90    N     0.85872   0.55455   0.82265   0.00000  Uiso   1.00
N91    N     0.21139   0.75280   0.75681   0.00000  Uiso   1.00
N92    N     0.34296   0.69627   0.96105   0.00000  Uiso   1.00
C93    C     0.66896   0.00057   0.65735   0.00000  Uiso   1.00
C94    C     0.78059   0.01285   0.67266   0.00000  Uiso   1.00
C95    C     0.84598   0.93721   0.68387   0.00000  Uiso   1.00
C96    C     0.94528   0.96367   0.69708   0.00000  Uiso   1.00
C97    C     0.11362   0.96775   0.72058   0.00000  Uiso   1.00
C98    C     0.59061   0.06337   0.67670   0.00000  Uiso   1.00
C99    C     0.49626   0.03020   0.69129   0.00000  Uiso   1.00
C100   C     0.43563   0.09919   0.70790   0.00000  Uiso   1.00
C101   C     0.30897   0.18171   0.73765   0.00000  Uiso   1.00
C102   C     0.67685   0.04987   0.62511   0.00000  Uiso   1.00
C103   C     0.65499   0.00536   0.59633   0.00000  Uiso   1.00
C104   C     0.66695   0.06300   0.56950   0.00000  Uiso   1.00
C105   C     0.67421   0.12456   0.51915   0.00000  Uiso   1.00
C106   C     0.72902   0.18207   0.66088   0.00000  Uiso   1.00
C107   C     0.81321   0.11144   0.67458   0.00000  Uiso   1.00
C108   C     0.91244   0.13802   0.68778   0.00000  Uiso   1.00
C109   C     0.97797   0.06243   0.69900   0.00000  Uiso   1.00
C110   C     0.62322   0.16195   0.67862   0.00000  Uiso   1.00
C111   C     0.56271   0.23100   0.69521   0.00000  Uiso   1.00
C112   C     0.46831   0.19795   0.70982   0.00000  Uiso   1.00
C113   C     0.70948   0.14845   0.62703   0.00000  Uiso   1.00
C114   C     0.72146   0.20617   0.60024   0.00000  Uiso   1.00
C115   C     0.69963   0.16176   0.57142   0.00000  Uiso   1.00
H116   H     0.64356   0.92382   0.65585   0.00000  Uiso   1.00
H117   H     0.82070   0.86093   0.68238   0.00000  Uiso   1.00
H118   H     0.47103   0.95391   0.68980   0.00000  Uiso   1.00
H119   H     0.62975   0.92908   0.59485   0.00000  Uiso   1.00
H120   H     0.03147   0.83468   0.71264   0.00000  Uiso   1.00
H121   H     0.29415   0.03073   0.72828   0.00000  Uiso   1.00
H122   H     0.62883   0.97837   0.52806   0.00000  Uiso   1.00
H123   H     0.75442   0.25882   0.66238   0.00000  Uiso   1.00
H124   H     0.93766   0.21431   0.68926   0.00000  Uiso   1.00
H125   H     0.58798   0.30729   0.69669   0.00000  Uiso   1.00
H126   H     0.74670   0.28246   0.60174   0.00000  Uiso   1.00
H127   H     0.12639   0.12149   0.71823   0.00000  Uiso   1.00
H128   H     0.38906   0.31755   0.73387   0.00000  Uiso   1.00
H129   H     0.72376   0.26519   0.53365   0.00000  Uiso   1.00
O130   O     0.19745   0.94276   0.73301   0.00000  Uiso   1.00
O131   O     0.23010   0.19998   0.75353   0.00000  Uiso   1.00
O132   O     0.66921   0.13128   0.49084   0.00000  Uiso   1.00
N133   N     0.02867   0.90829   0.71026   0.00000  Uiso   1.00
N134   N     0.33933   0.09158   0.72489   0.00000  Uiso   1.00
N135   N     0.65220   0.04264   0.53770   0.00000  Uiso   1.00
N136   N     0.07975   0.06262   0.71327   0.00000  Uiso   1.00
N137   N     0.39040   0.24592   0.72790   0.00000  Uiso   1.00
N138   N     0.70328   0.19697   0.54071   0.00000  Uiso   1.00
C139   C     0.58975   0.49882   0.34539   0.00000  Uiso   1.00
C140   C     0.46789   0.48890   0.33909   0.00000  Uiso   1.00
C141   C     0.39658   0.56589   0.33304   0.00000  Uiso   1.00
C142   C     0.28816   0.54153   0.32786   0.00000  Uiso   1.00
C143   C     0.10440   0.54100   0.31793   0.00000  Uiso   1.00
C144   C     0.64629   0.43426   0.32094   0.00000  Uiso   1.00
C145   C     0.72498   0.46531   0.29963   0.00000  Uiso   1.00
C146   C     0.76675   0.39496   0.27918   0.00000  Uiso   1.00
C147   C     0.86000   0.30959   0.24108   0.00000  Uiso   1.00
C148   C     0.61001   0.44985   0.37722   0.00000  Uiso   1.00
C149   C     0.65823   0.49399   0.40324   0.00000  Uiso   1.00
C150   C     0.66947   0.43675   0.43018   0.00000  Uiso   1.00
C151   C     0.70640   0.37559   0.47948   0.00000  Uiso   1.00
C152   C     0.52401   0.31866   0.34696   0.00000  Uiso   1.00
C153   C     0.43219   0.39104   0.33994   0.00000  Uiso   1.00
C154   C     0.32385   0.36656   0.33478   0.00000  Uiso   1.00
C155   C     0.25239   0.44350   0.32872   0.00000  Uiso   1.00
C156   C     0.61059   0.33641   0.32179   0.00000  Uiso   1.00
C157   C     0.65225   0.26599   0.30137   0.00000  Uiso   1.00
C158   C     0.73098   0.29692   0.28004   0.00000  Uiso   1.00
C159   C     0.57431   0.35199   0.37808   0.00000  Uiso   1.00
C160   C     0.58549   0.29467   0.40498   0.00000  Uiso   1.00
C161   C     0.63370   0.33872   0.43104   0.00000  Uiso   1.00
H162   H     0.61755   0.57500   0.34472   0.00000  Uiso   1.00
H163   H     0.42425   0.64161   0.33237   0.00000  Uiso   1.00
H164   H     0.75260   0.54104   0.29897   0.00000  Uiso   1.00
H165   H     0.68585   0.56972   0.40257   0.00000  Uiso   1.00
H166   H     0.19420   0.67229   0.31905   0.00000  Uiso   1.00
H167   H     0.88658   0.46024   0.24863   0.00000  Uiso   1.00
H168   H     0.74582   0.52071   0.46708   0.00000  Uiso   1.00
H169   H     0.49622   0.24248   0.34763   0.00000  Uiso   1.00
H170   H     0.29625   0.29083   0.33544   0.00000  Uiso   1.00
H171   H     0.62461   0.19027   0.30204   0.00000  Uiso   1.00
H172   H     0.55785   0.21895   0.40564   0.00000  Uiso   1.00
H173   H     0.09031   0.38758   0.32154   0.00000  Uiso   1.00
H174   H     0.78270   0.17553   0.25112   0.00000  Uiso   1.00
H175   H     0.64193   0.23601   0.46957   0.00000  Uiso   1.00
O176   O     0.01290   0.56774   0.31221   0.00000  Uiso   1.00
O177   O     0.92130   0.28954   0.21983   0.00000  Uiso   1.00
O178   O     0.73662   0.36888   0.50644   0.00000  Uiso   1.00
N179   N     0.19718   0.59865   0.32131   0.00000  Uiso   1.00
N180   N     0.84451   0.40040   0.25547   0.00000  Uiso   1.00
N181   N     0.71294   0.45693   0.45971   0.00000  Uiso   1.00
N182   N     0.14128   0.44545   0.32265   0.00000  Uiso   1.00
N183   N     0.78861   0.24720   0.25681   0.00000  Uiso   1.00
N184   N     0.65704   0.30373   0.46105   0.00000  Uiso   1.00
C185   C     0.66896   0.99943   0.34265   0.00000  Uiso   1.00
C186   C     0.78059   0.98715   0.32734   0.00000  Uiso   1.00
C187   C     0.84598   0.06279   0.31613   0.00000  Uiso   1.00
C188   C     0.94528   0.03633   0.30292   0.00000  Uiso   1.00
C189   C     0.11362   0.03225   0.27942   0.00000  Uiso   1.00
C190   C     0.59061   0.93663   0.32330   0.00000  Uiso   1.00
C191   C     0.49626   0.96980   0.30871   0.00000  Uiso   1.00
C192   C     0.43563   0.90081   0.29210   0.00000  Uiso   1.00
C193   C     0.30897   0.81829   0.26235   0.00000  Uiso   1.00
C194   C     0.67685   0.95013   0.37489   0.00000  Uiso   1.00
C195   C     0.65499   0.99464   0.40367   0.00000  Uiso   1.00
C196   C     0.66695   0.93700   0.43050   0.00000  Uiso   1.00
C197   C     0.67421   0.87544   0.48085   0.00000  Uiso   1.00
C198   C     0.72902   0.81793   0.33912   0.00000  Uiso   1.00
C199   C     0.81321   0.88856   0.32542   0.00000  Uiso   1.00
C200   C     0.91244   0.86198   0.31222   0.00000  Uiso   1.00
C201   C     0.97797   0.93757   0.30100   0.00000  Uiso   1.00
C202   C     0.62322   0.83805   0.32138   0.00000  Uiso   1.00
C203   C     0.56271   0.76900   0.30479   0.00000  Uiso   1.00
C204   C     0.46831   0.80205   0.29018   0.00000  Uiso   1.00
C205   C     0.70948   0.85155   0.37297   0.00000  Uiso   1.00
C206   C     0.72146   0.79383   0.39976   0.00000  Uiso   1.00
C207   C     0.69963   0.83824   0.42858   0.00000  Uiso   1.00
H208   H     0.64356   0.07618   0.34415   0.00000  Uiso   1.00
H209   H     0.82070   0.13907   0.31762   0.00000  Uiso   1.00
H210   H     0.47103   0.04609   0.31020   0.00000  Uiso   1.00
H211   H     0.62975   0.07092   0.40515   0.00000  Uiso   1.00
H212   H     0.03147   0.16532   0.28736   0.00000  Uiso   1.00
H213   H     0.29415   0.96927   0.27172   0.00000  Uiso   1.00
H214   H     0.62883   0.02163   0.47194   0.00000  Uiso   1.00
H215   H     0.75442   0.74118   0.33762   0.00000  Uiso   1.00
H216   H     0.93766   0.78569   0.31074   0.00000  Uiso   1.00
H217   H     0.58798   0.69271   0.30331   0.00000  Uiso   1.00
H218   H     0.74670   0.71754   0.39826   0.00000  Uiso   1.00
H219   H     0.12639   0.87851   0.28177   0.00000  Uiso   1.00
H220   H     0.38906   0.68245   0.26613   0.00000  Uiso   1.00
H221   H     0.72376   0.73481   0.46635   0.00000  Uiso   1.00
O222   O     0.19745   0.05724   0.26699   0.00000  Uiso   1.00
O223   O     0.23010   0.80002   0.24647   0.00000  Uiso   1.00
O224   O     0.66921   0.86872   0.50916   0.00000  Uiso   1.00
N225   N     0.02867   0.09171   0.28974   0.00000  Uiso   1.00
N226   N     0.33933   0.90842   0.27511   0.00000  Uiso   1.00
N227   N     0.65220   0.95736   0.46230   0.00000  Uiso   1.00
N228   N     0.07975   0.93738   0.28673   0.00000  Uiso   1.00
N229   N     0.39040   0.75408   0.27210   0.00000  Uiso   1.00
N230   N     0.70328   0.80303   0.45929   0.00000  Uiso   1.00
C231   C     0.58975   0.50118   0.65461   0.00000  Uiso   1.00
C232   C     0.46789   0.51110   0.66091   0.00000  Uiso   1.00
C233   C     0.39658   0.43411   0.66696   0.00000  Uiso   1.00
C234   C     0.28816   0.45847   0.67214   0.00000  Uiso   1.00
C235   C     0.10440   0.45900   0.68207   0.00000  Uiso   1.00
C236   C     0.64629   0.56574   0.67906   0.00000  Uiso   1.00
C237   C     0.72498   0.53469   0.70037   0.00000  Uiso   1.00
C238   C     0.76675   0.60504   0.72082   0.00000  Uiso   1.00
C239   C     0.86000   0.69041   0.75892   0.00000  Uiso   1.00
C240   C     0.61001   0.55015   0.62278   0.00000  Uiso   1.00
C241   C     0.65823   0.50601   0.59676   0.00000  Uiso   1.00
C242   C     0.66947   0.56325   0.56982   0.00000  Uiso   1.00
C243   C     0.70640   0.62441   0.52052   0.00000  Uiso   1.00
C244   C     0.52401   0.68134   0.65304   0.00000  Uiso   1.00
C245   C     0.43219   0.60896   0.66006   0.00000  Uiso   1.00
C246   C     0.32385   0.63344   0.66522   0.00000  Uiso   1.00
C247   C     0.25239   0.55650   0.67128   0.00000  Uiso   1.00
C248   C     0.61059   0.66359   0.67821   0.00000  Uiso   1.00
C249   C     0.65225   0.73401   0.69863   0.00000  Uiso   1.00
C250   C     0.73098   0.70308   0.71996   0.00000  Uiso   1.00
C251   C     0.57431   0.64801   0.62192   0.00000  Uiso   1.00
C252   C     0.58549   0.70533   0.59502   0.00000  Uiso   1.00
C253   C     0.63370   0.66128   0.56896   0.00000  Uiso   1.00
H254   H     0.61755   0.42500   0.65528   0.00000  Uiso   1.00
H255   H     0.42425   0.35839   0.66763   0.00000  Uiso   1.00
H256   H     0.75260   0.45896   0.70103   0.00000  Uiso   1.00
H257   H     0.68585   0.43028   0.59743   0.00000  Uiso   1.00
H258   H     0.19420   0.32771   0.68095   0.00000  Uiso   1.00
H259   H     0.88658   0.53976   0.75137   0.00000  Uiso   1.00
H260   H     0.74582   0.47929   0.53292   0.00000  Uiso   1.00
H261   H     0.49622   0.75752   0.65237   0.00000  Uiso   1.00
H262   H     0.29625   0.70917   0.66456   0.00000  Uiso   1.00
H263   H     0.62461   0.80973   0.69796   0.00000  Uiso   1.00
H264   H     0.55785   0.78105   0.59436   0.00000  Uiso   1.00
H265   H     0.09031   0.61242   0.67846   0.00000  Uiso   1.00
H266   H     0.78270   0.82447   0.74888   0.00000  Uiso   1.00
H267   H     0.64193   0.76399   0.53043   0.00000  Uiso   1.00
O268   O     0.01290   0.43226   0.68779   0.00000  Uiso   1.00
O269   O     0.92130   0.71046   0.78017   0.00000  Uiso   1.00
O270   O     0.73662   0.63112   0.49356   0.00000  Uiso   1.00
N271   N     0.19718   0.40135   0.67869   0.00000  Uiso   1.00
N272   N     0.84451   0.59960   0.74453   0.00000  Uiso   1.00
N273   N     0.71294   0.54307   0.54029   0.00000  Uiso   1.00
N274   N     0.14128   0.55455   0.67735   0.00000  Uiso   1.00
N275   N     0.78861   0.75280   0.74319   0.00000  Uiso   1.00
N276   N     0.65704   0.69627   0.53895   0.00000  Uiso   1.00
C277   C     0.33104   0.00057   0.84265   0.00000  Uiso   1.00
C278   C     0.21941   0.01285   0.82734   0.00000  Uiso   1.00
C279   C     0.15402   0.93721   0.81613   0.00000  Uiso   1.00
C280   C     0.05472   0.96367   0.80292   0.00000  Uiso   1.00
C281   C     0.88638   0.96775   0.77942   0.00000  Uiso   1.00
C282   C     0.40939   0.06337   0.82330   0.00000  Uiso   1.00
C283   C     0.50374   0.03020   0.80871   0.00000  Uiso   1.00
C284   C     0.56437   0.09919   0.79210   0.00000  Uiso   1.00
C285   C     0.69103   0.18171   0.76235   0.00000  Uiso   1.00
C286   C     0.32315   0.04987   0.87489   0.00000  Uiso   1.00
C287   C     0.34501   0.00536   0.90367   0.00000  Uiso   1.00
C288   C     0.33305   0.06300   0.93050   0.00000  Uiso   1.00
C289   C     0.32579   0.12456   0.98085   0.00000  Uiso   1.00
C290   C     0.27098   0.18207   0.83912   0.00000  Uiso   1.00
C291   C     0.18679   0.11144   0.82542   0.00000  Uiso   1.00
C292   C     0.08756   0.13802   0.81222   0.00000  Uiso   1.00
C293   C     0.02203   0.06243   0.80100   0.00000  Uiso   1.00
C294   C     0.37678   0.16195   0.82138   0.00000  Uiso   1.00
C295   C     0.43729   0.23100   0.80479   0.00000  Uiso   1.00
C296   C     0.53169   0.19795   0.79018   0.00000  Uiso   1.00
C297   C     0.29052   0.14845   0.87297   0.00000  Uiso   1.00
C298   C     0.27854   0.20617   0.89976   0.00000  Uiso   1.00
C299   C     0.30037   0.16176   0.92858   0.00000  Uiso   1.00
H300   H     0.35644   0.92382   0.84415   0.00000  Uiso   1.00
H301   H     0.17930   0.86093   0.81762   0.00000  Uiso   1.00
H302   H     0.52897   0.95391   0.81020   0.00000  Uiso   1.00
H303   H     0.37025   0.92908   0.90515   0.00000  Uiso   1.00
H304   H     0.96853   0.83468   0.78736   0.00000  Uiso   1.00
H305   H     0.70585   0.03073   0.77172   0.00000  Uiso   1.00
H306   H     0.37117   0.97837   0.97194   0.00000  Uiso   1.00
H307   H     0.24558   0.25882   0.83762   0.00000  Uiso   1.00
H308   H     0.06234   0.21431   0.81074   0.00000  Uiso   1.00
H309   H     0.41202   0.30729   0.80331   0.00000  Uiso   1.00
H310   H     0.25330   0.28246   0.89826   0.00000  Uiso   1.00
H311   H     0.87361   0.12149   0.78177   0.00000  Uiso   1.00
H312   H     0.61094   0.31755   0.76613   0.00000  Uiso   1.00
H313   H     0.27624   0.26519   0.96635   0.00000  Uiso   1.00
O314   O     0.80255   0.94276   0.76699   0.00000  Uiso   1.00
O315   O     0.76990   0.19998   0.74647   0.00000  Uiso   1.00
O316   O     0.33079   0.13128   0.00916   0.00000  Uiso   1.00
N317   N     0.97133   0.90829   0.78974   0.00000  Uiso   1.00
N318   N     0.66067   0.09158   0.77511   0.00000  Uiso   1.00
N319   N     0.34780   0.04264   0.96230   0.00000  Uiso   1.00
N320   N     0.92025   0.06262   0.78673   0.00000  Uiso   1.00
N321   N     0.60960   0.24592   0.77210   0.00000  Uiso   1.00
N322   N     0.29672   0.19697   0.95929   0.00000  Uiso   1.00
C323   C     0.41025   0.49882   0.15461   0.00000  Uiso   1.00
C324   C     0.53211   0.48890   0.16091   0.00000  Uiso   1.00
C325   C     0.60342   0.56589   0.16696   0.00000  Uiso   1.00
C326   C     0.71184   0.54153   0.17214   0.00000  Uiso   1.00
C327   C     0.89560   0.54100   0.18207   0.00000  Uiso   1.00
C328   C     0.35371   0.43426   0.17906   0.00000  Uiso   1.00
C329   C     0.27502   0.46531   0.20037   0.00000  Uiso   1.00
C330   C     0.23325   0.39496   0.22082   0.00000  Uiso   1.00
C331   C     0.14000   0.30959   0.25892   0.00000  Uiso   1.00
C332   C     0.38999   0.44985   0.12278   0.00000  Uiso   1.00
C333   C     0.34177   0.49399   0.09676   0.00000  Uiso   1.00
C334   C     0.33053   0.43675   0.06982   0.00000  Uiso   1.00
C335   C     0.29360   0.37559   0.02052   0.00000  Uiso   1.00
C336   C     0.47599   0.31866   0.15304   0.00000  Uiso   1.00
C337   C     0.56781   0.39104   0.16006   0.00000  Uiso   1.00
C338   C     0.67615   0.36656   0.16522   0.00000  Uiso   1.00
C339   C     0.74761   0.44350   0.17128   0.00000  Uiso   1.00
C340   C     0.38941   0.33641   0.17821   0.00000  Uiso   1.00
C341   C     0.34775   0.26599   0.19863   0.00000  Uiso   1.00
C342   C     0.26902   0.29692   0.21996   0.00000  Uiso   1.00
C343   C     0.42569   0.35199   0.12192   0.00000  Uiso   1.00
C344   C     0.41451   0.29467   0.09502   0.00000  Uiso   1.00
C345   C     0.36630   0.33872   0.06896   0.00000  Uiso   1.00
H346   H     0.38245   0.57500   0.15528   0.00000  Uiso   1.00
H347   H     0.57575   0.64161   0.16763   0.00000  Uiso   1.00
H348   H     0.24740   0.54104   0.20103   0.00000  Uiso   1.00
H349   H     0.31415   0.56972   0.09743   0.00000  Uiso   1.00
H350   H     0.80580   0.67229   0.18095   0.00000  Uiso   1.00
H351   H     0.11342   0.46024   0.25137   0.00000  Uiso   1.00
H352   H     0.25418   0.52071   0.03292   0.00000  Uiso   1.00
H353   H     0.50378   0.24248   0.15237   0.00000  Uiso   1.00
H354   H     0.70375   0.29083   0.16456   0.00000  Uiso   1.00
H355   H     0.37539   0.19027   0.19796   0.00000  Uiso   1.00
H356   H     0.44215   0.21895   0.09436   0.00000  Uiso   1.00
H357   H     0.90969   0.38758   0.17846   0.00000  Uiso   1.00
H358   H     0.21730   0.17553   0.24888   0.00000  Uiso   1.00
H359   H     0.35807   0.23601   0.03043   0.00000  Uiso   1.00
O360   O     0.98710   0.56774   0.18779   0.00000  Uiso   1.00
O361   O     0.07870   0.28954   0.28017   0.00000  Uiso   1.00
O362   O     0.26338   0.36888   0.99356   0.00000  Uiso   1.00
N363   N     0.80282   0.59865   0.17869   0.00000  Uiso   1.00
N364   N     0.15549   0.40040   0.24453   0.00000  Uiso   1.00
N365   N     0.28706   0.45693   0.04029   0.00000  Uiso   1.00
N366   N     0.85872   0.44545   0.17735   0.00000  Uiso   1.00
N367   N     0.21139   0.24720   0.24319   0.00000  Uiso   1.00
N368   N     0.34296   0.30373   0.03895   0.00000  Uiso   1.00
