data_job_01871
_audit_creation_date              2018-12-19
_audit_creation_method            'Materials Studio'
_symmetry_space_group_name_H-M    'P1'
_symmetry_Int_Tables_number       1
_symmetry_cell_setting            triclinic
loop_
_symmetry_equiv_pos_as_xyz
  x,y,z
_cell_length_a                    13.0925
_cell_length_b                    22.5738
_cell_length_c                    11.0410
_cell_angle_alpha                 90.0000
_cell_angle_beta                  66.7368
_cell_angle_gamma                 90.0000
loop_
_atom_site_label
_atom_site_type_symbol
_atom_site_fract_x
_atom_site_fract_y
_atom_site_fract_z
_atom_site_U_iso_or_equiv
_atom_site_adp_type
_atom_site_occupancy
C1     C     0.51305   0.15865   0.40371   0.00000  Uiso   1.00
C2     C     0.63572   0.17133   0.32287   0.00000  Uiso   1.00
C3     C     0.69494   0.15476   0.19272   0.00000  Uiso   1.00
C4     C     0.80645   0.17052   0.13633   0.00000  Uiso   1.00
C5     C     0.98927   0.18543   0.99998   0.00000  Uiso   1.00
C6     C     0.50827   0.12537   0.52602   0.00000  Uiso   1.00
C7     C     0.46031   0.07016   0.56669   0.00000  Uiso   1.00
C8     C     0.46451   0.04725   0.68132   0.00000  Uiso   1.00
C9     C     0.44938   0.99082   0.86043   0.00000  Uiso   1.00
C10    C     0.45872   0.21863   0.45221   0.00000  Uiso   1.00
C11    C     0.36908   0.24184   0.43084   0.00000  Uiso   1.00
C12    C     0.33156   0.29744   0.48336   0.00000  Uiso   1.00
C13    C     0.23951   0.38583   0.54785   0.00000  Uiso   1.00
C14    C     0.60577   0.21611   0.53500   0.00000  Uiso   1.00
C15    C     0.68608   0.20254   0.39419   0.00000  Uiso   1.00
C16    C     0.79753   0.21833   0.33798   0.00000  Uiso   1.00
C17    C     0.85690   0.20179   0.20777   0.00000  Uiso   1.00
C18    C     0.55862   0.15658   0.59734   0.00000  Uiso   1.00
C19    C     0.56289   0.13374   0.71195   0.00000  Uiso   1.00
C20    C     0.51496   0.07851   0.75277   0.00000  Uiso   1.00
C21    C     0.50908   0.24985   0.52352   0.00000  Uiso   1.00
C22    C     0.47168   0.30542   0.57609   0.00000  Uiso   1.00
C23    C     0.38201   0.32871   0.55480   0.00000  Uiso   1.00
H24    H     0.47384   0.13435   0.34819   0.00000  Uiso   1.00
H25    H     0.65594   0.13060   0.13757   0.00000  Uiso   1.00
H26    H     0.42133   0.04602   0.51149   0.00000  Uiso   1.00
H27    H     0.33013   0.21768   0.37565   0.00000  Uiso   1.00
H28    H     0.88005   0.14019   0.93552   0.00000  Uiso   1.00
H29    H     0.38533   0.96186   0.72396   0.00000  Uiso   1.00
H30    H     0.19301   0.32383   0.43753   0.00000  Uiso   1.00
H31    H     0.64498   0.24041   0.59053   0.00000  Uiso   1.00
H32    H     0.83648   0.24249   0.39319   0.00000  Uiso   1.00
H33    H     0.60187   0.15791   0.76711   0.00000  Uiso   1.00
H34    H     0.51067   0.32956   0.63127   0.00000  Uiso   1.00
H35    H     0.02658   0.23099   0.14299   0.00000  Uiso   1.00
H36    H     0.53186   0.05267   0.93145   0.00000  Uiso   1.00
H37    H     0.33955   0.41463   0.64501   0.00000  Uiso   1.00
O38    O     0.07620   0.18502   0.90508   0.00000  Uiso   1.00
O39    O     0.42714   0.95107   0.93951   0.00000  Uiso   1.00
O40    O     0.17483   0.42596   0.56371   0.00000  Uiso   1.00
N41    N     0.88825   0.16128   0.01142   0.00000  Uiso   1.00
N42    N     0.42573   0.99456   0.74856   0.00000  Uiso   1.00
N43    N     0.24592   0.33296   0.48080   0.00000  Uiso   1.00
N44    N     0.96710   0.21015   0.12306   0.00000  Uiso   1.00
N45    N     0.50458   0.04342   0.86020   0.00000  Uiso   1.00
N46    N     0.32476   0.38182   0.59244   0.00000  Uiso   1.00
C47    C     0.48695   0.65865   0.09629   0.00000  Uiso   1.00
C48    C     0.36428   0.67133   0.17713   0.00000  Uiso   1.00
C49    C     0.30506   0.65476   0.30728   0.00000  Uiso   1.00
C50    C     0.19355   0.67052   0.36367   0.00000  Uiso   1.00
C51    C     0.01073   0.68543   0.50002   0.00000  Uiso   1.00
C52    C     0.49173   0.62537   0.97398   0.00000  Uiso   1.00
C53    C     0.53969   0.57016   0.93331   0.00000  Uiso   1.00
C54    C     0.53549   0.54725   0.81868   0.00000  Uiso   1.00
C55    C     0.55062   0.49082   0.63957   0.00000  Uiso   1.00
C56    C     0.54128   0.71863   0.04779   0.00000  Uiso   1.00
C57    C     0.63092   0.74184   0.06916   0.00000  Uiso   1.00
C58    C     0.66844   0.79744   0.01664   0.00000  Uiso   1.00
C59    C     0.76049   0.88583   0.95215   0.00000  Uiso   1.00
C60    C     0.39423   0.71611   0.96500   0.00000  Uiso   1.00
C61    C     0.31392   0.70254   0.10581   0.00000  Uiso   1.00
C62    C     0.20247   0.71833   0.16202   0.00000  Uiso   1.00
C63    C     0.14310   0.70179   0.29223   0.00000  Uiso   1.00
C64    C     0.44138   0.65658   0.90266   0.00000  Uiso   1.00
C65    C     0.43711   0.63374   0.78805   0.00000  Uiso   1.00
C66    C     0.48504   0.57851   0.74723   0.00000  Uiso   1.00
C67    C     0.49092   0.74985   0.97648   0.00000  Uiso   1.00
C68    C     0.52832   0.80542   0.92391   0.00000  Uiso   1.00
C69    C     0.61799   0.82871   0.94520   0.00000  Uiso   1.00
H70    H     0.52616   0.63435   0.15181   0.00000  Uiso   1.00
H71    H     0.34406   0.63060   0.36243   0.00000  Uiso   1.00
H72    H     0.57867   0.54602   0.98851   0.00000  Uiso   1.00
H73    H     0.66987   0.71768   0.12435   0.00000  Uiso   1.00
H74    H     0.11995   0.64019   0.56448   0.00000  Uiso   1.00
H75    H     0.61467   0.46186   0.77604   0.00000  Uiso   1.00
H76    H     0.80699   0.82383   0.06247   0.00000  Uiso   1.00
H77    H     0.35502   0.74041   0.90947   0.00000  Uiso   1.00
H78    H     0.16352   0.74249   0.10681   0.00000  Uiso   1.00
H79    H     0.39813   0.65791   0.73289   0.00000  Uiso   1.00
H80    H     0.48933   0.82956   0.86873   0.00000  Uiso   1.00
H81    H     0.97342   0.73099   0.35701   0.00000  Uiso   1.00
H82    H     0.46814   0.55267   0.56855   0.00000  Uiso   1.00
H83    H     0.66045   0.91463   0.85499   0.00000  Uiso   1.00
O84    O     0.92380   0.68502   0.59492   0.00000  Uiso   1.00
O85    O     0.57286   0.45107   0.56049   0.00000  Uiso   1.00
O86    O     0.82517   0.92596   0.93629   0.00000  Uiso   1.00
N87    N     0.11175   0.66128   0.48858   0.00000  Uiso   1.00
N88    N     0.57427   0.49456   0.75144   0.00000  Uiso   1.00
N89    N     0.75408   0.83296   0.01920   0.00000  Uiso   1.00
N90    N     0.03290   0.71015   0.37694   0.00000  Uiso   1.00
N91    N     0.49542   0.54342   0.63980   0.00000  Uiso   1.00
N92    N     0.67524   0.88182   0.90756   0.00000  Uiso   1.00
C93    C     0.48695   0.84135   0.59629   0.00000  Uiso   1.00
C94    C     0.36428   0.82867   0.67713   0.00000  Uiso   1.00
C95    C     0.30506   0.84524   0.80728   0.00000  Uiso   1.00
C96    C     0.19355   0.82948   0.86367   0.00000  Uiso   1.00
C97    C     0.01073   0.81457   0.00002   0.00000  Uiso   1.00
C98    C     0.49173   0.87463   0.47398   0.00000  Uiso   1.00
C99    C     0.53969   0.92984   0.43331   0.00000  Uiso   1.00
C100   C     0.53549   0.95275   0.31868   0.00000  Uiso   1.00
C101   C     0.55062   0.00918   0.13957   0.00000  Uiso   1.00
C102   C     0.54128   0.78137   0.54779   0.00000  Uiso   1.00
C103   C     0.63092   0.75816   0.56916   0.00000  Uiso   1.00
C104   C     0.66844   0.70256   0.51664   0.00000  Uiso   1.00
C105   C     0.76049   0.61417   0.45215   0.00000  Uiso   1.00
C106   C     0.39423   0.78389   0.46500   0.00000  Uiso   1.00
C107   C     0.31392   0.79746   0.60581   0.00000  Uiso   1.00
C108   C     0.20247   0.78167   0.66202   0.00000  Uiso   1.00
C109   C     0.14310   0.79821   0.79223   0.00000  Uiso   1.00
C110   C     0.44138   0.84342   0.40266   0.00000  Uiso   1.00
C111   C     0.43711   0.86626   0.28805   0.00000  Uiso   1.00
C112   C     0.48504   0.92149   0.24723   0.00000  Uiso   1.00
C113   C     0.49092   0.75015   0.47648   0.00000  Uiso   1.00
C114   C     0.52832   0.69458   0.42391   0.00000  Uiso   1.00
C115   C     0.61799   0.67129   0.44520   0.00000  Uiso   1.00
H116   H     0.52616   0.86565   0.65181   0.00000  Uiso   1.00
H117   H     0.34406   0.86940   0.86243   0.00000  Uiso   1.00
H118   H     0.57867   0.95398   0.48851   0.00000  Uiso   1.00
H119   H     0.66987   0.78232   0.62435   0.00000  Uiso   1.00
H120   H     0.11995   0.85981   0.06448   0.00000  Uiso   1.00
H121   H     0.61467   0.03814   0.27604   0.00000  Uiso   1.00
H122   H     0.80699   0.67617   0.56247   0.00000  Uiso   1.00
H123   H     0.35502   0.75959   0.40947   0.00000  Uiso   1.00
H124   H     0.16352   0.75751   0.60681   0.00000  Uiso   1.00
H125   H     0.39813   0.84209   0.23289   0.00000  Uiso   1.00
H126   H     0.48933   0.67044   0.36873   0.00000  Uiso   1.00
H127   H     0.97342   0.76901   0.85701   0.00000  Uiso   1.00
H128   H     0.46814   0.94733   0.06855   0.00000  Uiso   1.00
H129   H     0.66045   0.58537   0.35499   0.00000  Uiso   1.00
O130   O     0.92380   0.81498   0.09492   0.00000  Uiso   1.00
O131   O     0.57286   0.04893   0.06049   0.00000  Uiso   1.00
O132   O     0.82517   0.57404   0.43629   0.00000  Uiso   1.00
N133   N     0.11175   0.83872   0.98858   0.00000  Uiso   1.00
N134   N     0.57427   0.00544   0.25144   0.00000  Uiso   1.00
N135   N     0.75408   0.66704   0.51920   0.00000  Uiso   1.00
N136   N     0.03290   0.78985   0.87694   0.00000  Uiso   1.00
N137   N     0.49542   0.95658   0.13980   0.00000  Uiso   1.00
N138   N     0.67524   0.61818   0.40756   0.00000  Uiso   1.00
C139   C     0.51305   0.34135   0.90371   0.00000  Uiso   1.00
C140   C     0.63572   0.32867   0.82287   0.00000  Uiso   1.00
C141   C     0.69494   0.34524   0.69272   0.00000  Uiso   1.00
C142   C     0.80645   0.32948   0.63633   0.00000  Uiso   1.00
C143   C     0.98927   0.31457   0.49998   0.00000  Uiso   1.00
C144   C     0.50827   0.37463   0.02602   0.00000  Uiso   1.00
C145   C     0.46031   0.42984   0.06669   0.00000  Uiso   1.00
C146   C     0.46451   0.45275   0.18132   0.00000  Uiso   1.00
C147   C     0.44938   0.50918   0.36043   0.00000  Uiso   1.00
C148   C     0.45872   0.28137   0.95221   0.00000  Uiso   1.00
C149   C     0.36908   0.25816   0.93084   0.00000  Uiso   1.00
C150   C     0.33156   0.20256   0.98336   0.00000  Uiso   1.00
C151   C     0.23951   0.11417   0.04785   0.00000  Uiso   1.00
C152   C     0.60577   0.28389   0.03500   0.00000  Uiso   1.00
C153   C     0.68608   0.29746   0.89419   0.00000  Uiso   1.00
C154   C     0.79753   0.28167   0.83798   0.00000  Uiso   1.00
C155   C     0.85690   0.29821   0.70777   0.00000  Uiso   1.00
C156   C     0.55862   0.34342   0.09734   0.00000  Uiso   1.00
C157   C     0.56289   0.36626   0.21195   0.00000  Uiso   1.00
C158   C     0.51496   0.42149   0.25277   0.00000  Uiso   1.00
C159   C     0.50908   0.25015   0.02352   0.00000  Uiso   1.00
C160   C     0.47168   0.19458   0.07609   0.00000  Uiso   1.00
C161   C     0.38201   0.17129   0.05480   0.00000  Uiso   1.00
H162   H     0.47384   0.36565   0.84819   0.00000  Uiso   1.00
H163   H     0.65594   0.36940   0.63757   0.00000  Uiso   1.00
H164   H     0.42133   0.45398   0.01149   0.00000  Uiso   1.00
H165   H     0.33013   0.28232   0.87565   0.00000  Uiso   1.00
H166   H     0.88005   0.35981   0.43552   0.00000  Uiso   1.00
H167   H     0.38533   0.53814   0.22396   0.00000  Uiso   1.00
H168   H     0.19301   0.17617   0.93753   0.00000  Uiso   1.00
H169   H     0.64498   0.25959   0.09053   0.00000  Uiso   1.00
H170   H     0.83648   0.25751   0.89319   0.00000  Uiso   1.00
H171   H     0.60187   0.34209   0.26711   0.00000  Uiso   1.00
H172   H     0.51067   0.17044   0.13127   0.00000  Uiso   1.00
H173   H     0.02658   0.26901   0.64299   0.00000  Uiso   1.00
H174   H     0.53186   0.44733   0.43145   0.00000  Uiso   1.00
H175   H     0.33955   0.08537   0.14501   0.00000  Uiso   1.00
O176   O     0.07620   0.31498   0.40508   0.00000  Uiso   1.00
O177   O     0.42714   0.54893   0.43951   0.00000  Uiso   1.00
O178   O     0.17483   0.07404   0.06371   0.00000  Uiso   1.00
N179   N     0.88825   0.33872   0.51142   0.00000  Uiso   1.00
N180   N     0.42573   0.50544   0.24856   0.00000  Uiso   1.00
N181   N     0.24592   0.16704   0.98080   0.00000  Uiso   1.00
N182   N     0.96710   0.28985   0.62306   0.00000  Uiso   1.00
N183   N     0.50458   0.45658   0.36020   0.00000  Uiso   1.00
N184   N     0.32476   0.11818   0.09244   0.00000  Uiso   1.00
