data_job_05598
_audit_creation_date              2018-12-19
_audit_creation_method            'Materials Studio'
_symmetry_space_group_name_H-M    'P1'
_symmetry_Int_Tables_number       1
_symmetry_cell_setting            triclinic
loop_
_symmetry_equiv_pos_as_xyz
  x,y,z
_cell_length_a                    11.7407
_cell_length_b                    42.8025
_cell_length_c                    14.6284
_cell_angle_alpha                 90.0000
_cell_angle_beta                  90.0000
_cell_angle_gamma                 90.0000
loop_
_atom_site_label
_atom_site_type_symbol
_atom_site_fract_x
_atom_site_fract_y
_atom_site_fract_z
_atom_site_U_iso_or_equiv
_atom_site_adp_type
_atom_site_occupancy
C1     C     0.90233   0.59273   0.19979   0.00000  Uiso   1.00
C2     C     0.99575   0.57772   0.25739   0.00000  Uiso   1.00
C3     C     0.10589   0.57137   0.22842   0.00000  Uiso   1.00
C4     C     0.17862   0.55756   0.29141   0.00000  Uiso   1.00
C5     C     0.32918   0.53534   0.36733   0.00000  Uiso   1.00
C6     C     0.80249   0.56994   0.20119   0.00000  Uiso   1.00
C7     C     0.75013   0.55705   0.12496   0.00000  Uiso   1.00
C8     C     0.66015   0.53669   0.14065   0.00000  Uiso   1.00
C9     C     0.51061   0.50241   0.12931   0.00000  Uiso   1.00
C10    C     0.86303   0.62145   0.25278   0.00000  Uiso   1.00
C11    C     0.86153   0.65186   0.21991   0.00000  Uiso   1.00
C12    C     0.82250   0.67487   0.27903   0.00000  Uiso   1.00
C13    C     0.76695   0.72057   0.34779   0.00000  Uiso   1.00
C14    C     0.83562   0.57951   0.36321   0.00000  Uiso   1.00
C15    C     0.95952   0.57054   0.34615   0.00000  Uiso   1.00
C16    C     0.03209   0.55674   0.40921   0.00000  Uiso   1.00
C17    C     0.14233   0.55037   0.38033   0.00000  Uiso   1.00
C18    C     0.76626   0.56276   0.28995   0.00000  Uiso   1.00
C19    C     0.67633   0.54242   0.30575   0.00000  Uiso   1.00
C20    C     0.62385   0.52950   0.22957   0.00000  Uiso   1.00
C21    C     0.82680   0.61427   0.34154   0.00000  Uiso   1.00
C22    C     0.78774   0.63724   0.40071   0.00000  Uiso   1.00
C23    C     0.78620   0.66768   0.36795   0.00000  Uiso   1.00
H24    H     0.93053   0.59831   0.13069   0.00000  Uiso   1.00
H25    H     0.13390   0.57692   0.15972   0.00000  Uiso   1.00
H26    H     0.77818   0.56261   0.05628   0.00000  Uiso   1.00
H27    H     0.88958   0.65741   0.15123   0.00000  Uiso   1.00
H28    H     0.34338   0.55003   0.23103   0.00000  Uiso   1.00
H29    H     0.59330   0.51986   0.01293   0.00000  Uiso   1.00
H30    H     0.82820   0.71976   0.21313   0.00000  Uiso   1.00
H31    H     0.80741   0.57392   0.43231   0.00000  Uiso   1.00
H32    H     0.00403   0.55119   0.47789   0.00000  Uiso   1.00
H33    H     0.64831   0.53687   0.37445   0.00000  Uiso   1.00
H34    H     0.75971   0.63167   0.46939   0.00000  Uiso   1.00
H35    H     0.23797   0.52914   0.48927   0.00000  Uiso   1.00
H36    H     0.48789   0.49897   0.27116   0.00000  Uiso   1.00
H37    H     0.72280   0.69887   0.47137   0.00000  Uiso   1.00
O38    O     0.42223   0.52506   0.38468   0.00000  Uiso   1.00
O39    O     0.43815   0.48549   0.09853   0.00000  Uiso   1.00
O40    O     0.74634   0.74775   0.36120   0.00000  Uiso   1.00
N41    N     0.29159   0.54824   0.28556   0.00000  Uiso   1.00
N42    N     0.59033   0.52003   0.08164   0.00000  Uiso   1.00
N43    N     0.80992   0.70692   0.26881   0.00000  Uiso   1.00
N44    N     0.23488   0.53700   0.42452   0.00000  Uiso   1.00
N45    N     0.53362   0.50879   0.22060   0.00000  Uiso   1.00
N46    N     0.75320   0.69568   0.40777   0.00000  Uiso   1.00
C47    C     0.59767   0.40727   0.19979   0.00000  Uiso   1.00
C48    C     0.50425   0.42228   0.25739   0.00000  Uiso   1.00
C49    C     0.39411   0.42863   0.22842   0.00000  Uiso   1.00
C50    C     0.32138   0.44244   0.29141   0.00000  Uiso   1.00
C51    C     0.17082   0.46466   0.36733   0.00000  Uiso   1.00
C52    C     0.69751   0.43006   0.20119   0.00000  Uiso   1.00
C53    C     0.74987   0.44295   0.12496   0.00000  Uiso   1.00
C54    C     0.83985   0.46331   0.14065   0.00000  Uiso   1.00
C55    C     0.98939   0.49759   0.12931   0.00000  Uiso   1.00
C56    C     0.63697   0.37855   0.25278   0.00000  Uiso   1.00
C57    C     0.63847   0.34814   0.21991   0.00000  Uiso   1.00
C58    C     0.67750   0.32513   0.27903   0.00000  Uiso   1.00
C59    C     0.73305   0.27943   0.34779   0.00000  Uiso   1.00
C60    C     0.66438   0.42049   0.36321   0.00000  Uiso   1.00
C61    C     0.54048   0.42946   0.34615   0.00000  Uiso   1.00
C62    C     0.46791   0.44326   0.40921   0.00000  Uiso   1.00
C63    C     0.35767   0.44963   0.38033   0.00000  Uiso   1.00
C64    C     0.73374   0.43724   0.28995   0.00000  Uiso   1.00
C65    C     0.82367   0.45758   0.30575   0.00000  Uiso   1.00
C66    C     0.87615   0.47050   0.22957   0.00000  Uiso   1.00
C67    C     0.67320   0.38573   0.34154   0.00000  Uiso   1.00
C68    C     0.71226   0.36276   0.40071   0.00000  Uiso   1.00
C69    C     0.71380   0.33232   0.36795   0.00000  Uiso   1.00
H70    H     0.56947   0.40169   0.13069   0.00000  Uiso   1.00
H71    H     0.36610   0.42308   0.15972   0.00000  Uiso   1.00
H72    H     0.72182   0.43739   0.05628   0.00000  Uiso   1.00
H73    H     0.61042   0.34259   0.15123   0.00000  Uiso   1.00
H74    H     0.15662   0.44997   0.23103   0.00000  Uiso   1.00
H75    H     0.90670   0.48014   0.01293   0.00000  Uiso   1.00
H76    H     0.67180   0.28024   0.21313   0.00000  Uiso   1.00
H77    H     0.69259   0.42608   0.43231   0.00000  Uiso   1.00
H78    H     0.49597   0.44881   0.47789   0.00000  Uiso   1.00
H79    H     0.85169   0.46313   0.37445   0.00000  Uiso   1.00
H80    H     0.74029   0.36833   0.46939   0.00000  Uiso   1.00
H81    H     0.26203   0.47086   0.48927   0.00000  Uiso   1.00
H82    H     0.01211   0.50103   0.27116   0.00000  Uiso   1.00
H83    H     0.77720   0.30113   0.47137   0.00000  Uiso   1.00
O84    O     0.07777   0.47494   0.38468   0.00000  Uiso   1.00
O85    O     0.06185   0.51451   0.09853   0.00000  Uiso   1.00
O86    O     0.75366   0.25225   0.36120   0.00000  Uiso   1.00
N87    N     0.20841   0.45176   0.28556   0.00000  Uiso   1.00
N88    N     0.90967   0.47997   0.08164   0.00000  Uiso   1.00
N89    N     0.69008   0.29308   0.26881   0.00000  Uiso   1.00
N90    N     0.26512   0.46300   0.42452   0.00000  Uiso   1.00
N91    N     0.96638   0.49121   0.22060   0.00000  Uiso   1.00
N92    N     0.74680   0.30432   0.40777   0.00000  Uiso   1.00
C93    C     0.59767   0.09273   0.30021   0.00000  Uiso   1.00
C94    C     0.50425   0.07772   0.24261   0.00000  Uiso   1.00
C95    C     0.39411   0.07137   0.27158   0.00000  Uiso   1.00
C96    C     0.32138   0.05756   0.20859   0.00000  Uiso   1.00
C97    C     0.17082   0.03534   0.13267   0.00000  Uiso   1.00
C98    C     0.69751   0.06994   0.29881   0.00000  Uiso   1.00
C99    C     0.74987   0.05705   0.37504   0.00000  Uiso   1.00
C100   C     0.83985   0.03669   0.35935   0.00000  Uiso   1.00
C101   C     0.98939   0.00241   0.37069   0.00000  Uiso   1.00
C102   C     0.63697   0.12145   0.24722   0.00000  Uiso   1.00
C103   C     0.63847   0.15186   0.28009   0.00000  Uiso   1.00
C104   C     0.67750   0.17487   0.22097   0.00000  Uiso   1.00
C105   C     0.73305   0.22057   0.15221   0.00000  Uiso   1.00
C106   C     0.66438   0.07951   0.13679   0.00000  Uiso   1.00
C107   C     0.54048   0.07054   0.15385   0.00000  Uiso   1.00
C108   C     0.46791   0.05674   0.09079   0.00000  Uiso   1.00
C109   C     0.35767   0.05037   0.11967   0.00000  Uiso   1.00
C110   C     0.73374   0.06276   0.21005   0.00000  Uiso   1.00
C111   C     0.82367   0.04242   0.19425   0.00000  Uiso   1.00
C112   C     0.87615   0.02950   0.27043   0.00000  Uiso   1.00
C113   C     0.67320   0.11427   0.15846   0.00000  Uiso   1.00
C114   C     0.71226   0.13724   0.09929   0.00000  Uiso   1.00
C115   C     0.71380   0.16768   0.13205   0.00000  Uiso   1.00
H116   H     0.56947   0.09831   0.36931   0.00000  Uiso   1.00
H117   H     0.36610   0.07692   0.34028   0.00000  Uiso   1.00
H118   H     0.72182   0.06261   0.44372   0.00000  Uiso   1.00
H119   H     0.61042   0.15741   0.34877   0.00000  Uiso   1.00
H120   H     0.15662   0.05003   0.26897   0.00000  Uiso   1.00
H121   H     0.90670   0.01986   0.48707   0.00000  Uiso   1.00
H122   H     0.67180   0.21976   0.28687   0.00000  Uiso   1.00
H123   H     0.69259   0.07392   0.06769   0.00000  Uiso   1.00
H124   H     0.49597   0.05119   0.02211   0.00000  Uiso   1.00
H125   H     0.85169   0.03687   0.12555   0.00000  Uiso   1.00
H126   H     0.74029   0.13167   0.03061   0.00000  Uiso   1.00
H127   H     0.26203   0.02914   0.01073   0.00000  Uiso   1.00
H128   H     0.01211   0.99897   0.22884   0.00000  Uiso   1.00
H129   H     0.77720   0.19887   0.02863   0.00000  Uiso   1.00
O130   O     0.07777   0.02506   0.11532   0.00000  Uiso   1.00
O131   O     0.06185   0.98549   0.40147   0.00000  Uiso   1.00
O132   O     0.75366   0.24775   0.13880   0.00000  Uiso   1.00
N133   N     0.20841   0.04824   0.21444   0.00000  Uiso   1.00
N134   N     0.90967   0.02003   0.41836   0.00000  Uiso   1.00
N135   N     0.69008   0.20692   0.23119   0.00000  Uiso   1.00
N136   N     0.26512   0.03700   0.07548   0.00000  Uiso   1.00
N137   N     0.96638   0.00879   0.27940   0.00000  Uiso   1.00
N138   N     0.74680   0.19568   0.09223   0.00000  Uiso   1.00
C139   C     0.90233   0.90727   0.30021   0.00000  Uiso   1.00
C140   C     0.99575   0.92228   0.24261   0.00000  Uiso   1.00
C141   C     0.10589   0.92863   0.27158   0.00000  Uiso   1.00
C142   C     0.17862   0.94244   0.20859   0.00000  Uiso   1.00
C143   C     0.32918   0.96466   0.13267   0.00000  Uiso   1.00
C144   C     0.80249   0.93006   0.29881   0.00000  Uiso   1.00
C145   C     0.75013   0.94295   0.37504   0.00000  Uiso   1.00
C146   C     0.66015   0.96331   0.35935   0.00000  Uiso   1.00
C147   C     0.51061   0.99759   0.37069   0.00000  Uiso   1.00
C148   C     0.86303   0.87855   0.24722   0.00000  Uiso   1.00
C149   C     0.86153   0.84814   0.28009   0.00000  Uiso   1.00
C150   C     0.82250   0.82513   0.22097   0.00000  Uiso   1.00
C151   C     0.76695   0.77943   0.15221   0.00000  Uiso   1.00
C152   C     0.83562   0.92049   0.13679   0.00000  Uiso   1.00
C153   C     0.95952   0.92946   0.15385   0.00000  Uiso   1.00
C154   C     0.03209   0.94326   0.09079   0.00000  Uiso   1.00
C155   C     0.14233   0.94963   0.11967   0.00000  Uiso   1.00
C156   C     0.76626   0.93724   0.21005   0.00000  Uiso   1.00
C157   C     0.67633   0.95758   0.19425   0.00000  Uiso   1.00
C158   C     0.62385   0.97050   0.27043   0.00000  Uiso   1.00
C159   C     0.82680   0.88573   0.15846   0.00000  Uiso   1.00
C160   C     0.78774   0.86276   0.09929   0.00000  Uiso   1.00
C161   C     0.78620   0.83232   0.13205   0.00000  Uiso   1.00
H162   H     0.93053   0.90169   0.36931   0.00000  Uiso   1.00
H163   H     0.13390   0.92308   0.34028   0.00000  Uiso   1.00
H164   H     0.77818   0.93739   0.44372   0.00000  Uiso   1.00
H165   H     0.88958   0.84259   0.34877   0.00000  Uiso   1.00
H166   H     0.34338   0.94997   0.26897   0.00000  Uiso   1.00
H167   H     0.59330   0.98014   0.48707   0.00000  Uiso   1.00
H168   H     0.82820   0.78024   0.28687   0.00000  Uiso   1.00
H169   H     0.80741   0.92608   0.06769   0.00000  Uiso   1.00
H170   H     0.00403   0.94881   0.02211   0.00000  Uiso   1.00
H171   H     0.64831   0.96313   0.12555   0.00000  Uiso   1.00
H172   H     0.75971   0.86833   0.03061   0.00000  Uiso   1.00
H173   H     0.23797   0.97086   0.01073   0.00000  Uiso   1.00
H174   H     0.48789   0.00103   0.22884   0.00000  Uiso   1.00
H175   H     0.72280   0.80113   0.02863   0.00000  Uiso   1.00
O176   O     0.42223   0.97494   0.11532   0.00000  Uiso   1.00
O177   O     0.43815   0.01451   0.40147   0.00000  Uiso   1.00
O178   O     0.74634   0.75225   0.13880   0.00000  Uiso   1.00
N179   N     0.29159   0.95176   0.21444   0.00000  Uiso   1.00
N180   N     0.59033   0.97997   0.41836   0.00000  Uiso   1.00
N181   N     0.80992   0.79308   0.23119   0.00000  Uiso   1.00
N182   N     0.23488   0.96300   0.07548   0.00000  Uiso   1.00
N183   N     0.53362   0.99121   0.27940   0.00000  Uiso   1.00
N184   N     0.75320   0.80432   0.09223   0.00000  Uiso   1.00
C185   C     0.09767   0.40727   0.80021   0.00000  Uiso   1.00
C186   C     0.00425   0.42228   0.74261   0.00000  Uiso   1.00
C187   C     0.89411   0.42863   0.77158   0.00000  Uiso   1.00
C188   C     0.82138   0.44244   0.70859   0.00000  Uiso   1.00
C189   C     0.67082   0.46466   0.63267   0.00000  Uiso   1.00
C190   C     0.19751   0.43006   0.79881   0.00000  Uiso   1.00
C191   C     0.24987   0.44295   0.87504   0.00000  Uiso   1.00
C192   C     0.33985   0.46331   0.85935   0.00000  Uiso   1.00
C193   C     0.48939   0.49759   0.87069   0.00000  Uiso   1.00
C194   C     0.13697   0.37855   0.74722   0.00000  Uiso   1.00
C195   C     0.13847   0.34814   0.78009   0.00000  Uiso   1.00
C196   C     0.17750   0.32513   0.72097   0.00000  Uiso   1.00
C197   C     0.23305   0.27943   0.65221   0.00000  Uiso   1.00
C198   C     0.16438   0.42049   0.63679   0.00000  Uiso   1.00
C199   C     0.04048   0.42946   0.65385   0.00000  Uiso   1.00
C200   C     0.96791   0.44326   0.59079   0.00000  Uiso   1.00
C201   C     0.85767   0.44963   0.61967   0.00000  Uiso   1.00
C202   C     0.23374   0.43724   0.71005   0.00000  Uiso   1.00
C203   C     0.32367   0.45758   0.69425   0.00000  Uiso   1.00
C204   C     0.37615   0.47050   0.77043   0.00000  Uiso   1.00
C205   C     0.17320   0.38573   0.65846   0.00000  Uiso   1.00
C206   C     0.21226   0.36276   0.59929   0.00000  Uiso   1.00
C207   C     0.21380   0.33232   0.63205   0.00000  Uiso   1.00
H208   H     0.06947   0.40169   0.86931   0.00000  Uiso   1.00
H209   H     0.86610   0.42308   0.84028   0.00000  Uiso   1.00
H210   H     0.22182   0.43739   0.94372   0.00000  Uiso   1.00
H211   H     0.11042   0.34259   0.84877   0.00000  Uiso   1.00
H212   H     0.65662   0.44997   0.76897   0.00000  Uiso   1.00
H213   H     0.40670   0.48014   0.98707   0.00000  Uiso   1.00
H214   H     0.17180   0.28024   0.78687   0.00000  Uiso   1.00
H215   H     0.19259   0.42608   0.56769   0.00000  Uiso   1.00
H216   H     0.99597   0.44881   0.52211   0.00000  Uiso   1.00
H217   H     0.35169   0.46313   0.62555   0.00000  Uiso   1.00
H218   H     0.24029   0.36833   0.53061   0.00000  Uiso   1.00
H219   H     0.76203   0.47086   0.51073   0.00000  Uiso   1.00
H220   H     0.51211   0.50103   0.72884   0.00000  Uiso   1.00
H221   H     0.27720   0.30113   0.52863   0.00000  Uiso   1.00
O222   O     0.57777   0.47494   0.61532   0.00000  Uiso   1.00
O223   O     0.56185   0.51451   0.90147   0.00000  Uiso   1.00
O224   O     0.25366   0.25225   0.63880   0.00000  Uiso   1.00
N225   N     0.70841   0.45176   0.71444   0.00000  Uiso   1.00
N226   N     0.40967   0.47997   0.91836   0.00000  Uiso   1.00
N227   N     0.19008   0.29308   0.73119   0.00000  Uiso   1.00
N228   N     0.76512   0.46300   0.57548   0.00000  Uiso   1.00
N229   N     0.46638   0.49121   0.77940   0.00000  Uiso   1.00
N230   N     0.24680   0.30432   0.59223   0.00000  Uiso   1.00
C231   C     0.40233   0.59273   0.80021   0.00000  Uiso   1.00
C232   C     0.49575   0.57772   0.74261   0.00000  Uiso   1.00
C233   C     0.60589   0.57137   0.77158   0.00000  Uiso   1.00
C234   C     0.67862   0.55756   0.70859   0.00000  Uiso   1.00
C235   C     0.82918   0.53534   0.63267   0.00000  Uiso   1.00
C236   C     0.30249   0.56994   0.79881   0.00000  Uiso   1.00
C237   C     0.25013   0.55705   0.87504   0.00000  Uiso   1.00
C238   C     0.16015   0.53669   0.85935   0.00000  Uiso   1.00
C239   C     0.01061   0.50241   0.87069   0.00000  Uiso   1.00
C240   C     0.36303   0.62145   0.74722   0.00000  Uiso   1.00
C241   C     0.36153   0.65186   0.78009   0.00000  Uiso   1.00
C242   C     0.32250   0.67487   0.72097   0.00000  Uiso   1.00
C243   C     0.26695   0.72057   0.65221   0.00000  Uiso   1.00
C244   C     0.33562   0.57951   0.63679   0.00000  Uiso   1.00
C245   C     0.45952   0.57054   0.65385   0.00000  Uiso   1.00
C246   C     0.53209   0.55674   0.59079   0.00000  Uiso   1.00
C247   C     0.64233   0.55037   0.61967   0.00000  Uiso   1.00
C248   C     0.26626   0.56276   0.71005   0.00000  Uiso   1.00
C249   C     0.17633   0.54242   0.69425   0.00000  Uiso   1.00
C250   C     0.12385   0.52950   0.77043   0.00000  Uiso   1.00
C251   C     0.32680   0.61427   0.65846   0.00000  Uiso   1.00
C252   C     0.28774   0.63724   0.59929   0.00000  Uiso   1.00
C253   C     0.28620   0.66768   0.63205   0.00000  Uiso   1.00
H254   H     0.43053   0.59831   0.86931   0.00000  Uiso   1.00
H255   H     0.63390   0.57692   0.84028   0.00000  Uiso   1.00
H256   H     0.27818   0.56261   0.94372   0.00000  Uiso   1.00
H257   H     0.38958   0.65741   0.84877   0.00000  Uiso   1.00
H258   H     0.84338   0.55003   0.76897   0.00000  Uiso   1.00
H259   H     0.09330   0.51986   0.98707   0.00000  Uiso   1.00
H260   H     0.32820   0.71976   0.78687   0.00000  Uiso   1.00
H261   H     0.30741   0.57392   0.56769   0.00000  Uiso   1.00
H262   H     0.50403   0.55119   0.52211   0.00000  Uiso   1.00
H263   H     0.14831   0.53687   0.62555   0.00000  Uiso   1.00
H264   H     0.25971   0.63167   0.53061   0.00000  Uiso   1.00
H265   H     0.73797   0.52914   0.51073   0.00000  Uiso   1.00
H266   H     0.98789   0.49897   0.72884   0.00000  Uiso   1.00
H267   H     0.22280   0.69887   0.52863   0.00000  Uiso   1.00
O268   O     0.92223   0.52506   0.61532   0.00000  Uiso   1.00
O269   O     0.93815   0.48549   0.90147   0.00000  Uiso   1.00
O270   O     0.24634   0.74775   0.63880   0.00000  Uiso   1.00
N271   N     0.79159   0.54824   0.71444   0.00000  Uiso   1.00
N272   N     0.09033   0.52003   0.91836   0.00000  Uiso   1.00
N273   N     0.30992   0.70692   0.73119   0.00000  Uiso   1.00
N274   N     0.73488   0.53700   0.57548   0.00000  Uiso   1.00
N275   N     0.03362   0.50879   0.77940   0.00000  Uiso   1.00
N276   N     0.25320   0.69568   0.59223   0.00000  Uiso   1.00
C277   C     0.40233   0.90727   0.69979   0.00000  Uiso   1.00
C278   C     0.49575   0.92228   0.75739   0.00000  Uiso   1.00
C279   C     0.60589   0.92863   0.72842   0.00000  Uiso   1.00
C280   C     0.67862   0.94244   0.79141   0.00000  Uiso   1.00
C281   C     0.82918   0.96466   0.86733   0.00000  Uiso   1.00
C282   C     0.30249   0.93006   0.70119   0.00000  Uiso   1.00
C283   C     0.25013   0.94295   0.62496   0.00000  Uiso   1.00
C284   C     0.16015   0.96331   0.64065   0.00000  Uiso   1.00
C285   C     0.01061   0.99759   0.62931   0.00000  Uiso   1.00
C286   C     0.36303   0.87855   0.75278   0.00000  Uiso   1.00
C287   C     0.36153   0.84814   0.71991   0.00000  Uiso   1.00
C288   C     0.32250   0.82513   0.77903   0.00000  Uiso   1.00
C289   C     0.26695   0.77943   0.84779   0.00000  Uiso   1.00
C290   C     0.33562   0.92049   0.86321   0.00000  Uiso   1.00
C291   C     0.45952   0.92946   0.84615   0.00000  Uiso   1.00
C292   C     0.53209   0.94326   0.90921   0.00000  Uiso   1.00
C293   C     0.64233   0.94963   0.88033   0.00000  Uiso   1.00
C294   C     0.26626   0.93724   0.78995   0.00000  Uiso   1.00
C295   C     0.17633   0.95758   0.80575   0.00000  Uiso   1.00
C296   C     0.12385   0.97050   0.72957   0.00000  Uiso   1.00
C297   C     0.32680   0.88573   0.84154   0.00000  Uiso   1.00
C298   C     0.28774   0.86276   0.90071   0.00000  Uiso   1.00
C299   C     0.28620   0.83232   0.86795   0.00000  Uiso   1.00
H300   H     0.43053   0.90169   0.63069   0.00000  Uiso   1.00
H301   H     0.63390   0.92308   0.65972   0.00000  Uiso   1.00
H302   H     0.27818   0.93739   0.55628   0.00000  Uiso   1.00
H303   H     0.38958   0.84259   0.65123   0.00000  Uiso   1.00
H304   H     0.84338   0.94997   0.73103   0.00000  Uiso   1.00
H305   H     0.09330   0.98014   0.51293   0.00000  Uiso   1.00
H306   H     0.32820   0.78024   0.71313   0.00000  Uiso   1.00
H307   H     0.30741   0.92608   0.93231   0.00000  Uiso   1.00
H308   H     0.50403   0.94881   0.97789   0.00000  Uiso   1.00
H309   H     0.14831   0.96313   0.87445   0.00000  Uiso   1.00
H310   H     0.25971   0.86833   0.96939   0.00000  Uiso   1.00
H311   H     0.73797   0.97086   0.98927   0.00000  Uiso   1.00
H312   H     0.98789   0.00103   0.77116   0.00000  Uiso   1.00
H313   H     0.22280   0.80113   0.97137   0.00000  Uiso   1.00
O314   O     0.92223   0.97494   0.88468   0.00000  Uiso   1.00
O315   O     0.93815   0.01451   0.59853   0.00000  Uiso   1.00
O316   O     0.24634   0.75225   0.86120   0.00000  Uiso   1.00
N317   N     0.79159   0.95176   0.78556   0.00000  Uiso   1.00
N318   N     0.09033   0.97997   0.58164   0.00000  Uiso   1.00
N319   N     0.30992   0.79308   0.76881   0.00000  Uiso   1.00
N320   N     0.73488   0.96300   0.92452   0.00000  Uiso   1.00
N321   N     0.03362   0.99121   0.72060   0.00000  Uiso   1.00
N322   N     0.25320   0.80432   0.90777   0.00000  Uiso   1.00
C323   C     0.09767   0.09273   0.69979   0.00000  Uiso   1.00
C324   C     0.00425   0.07772   0.75739   0.00000  Uiso   1.00
C325   C     0.89411   0.07137   0.72842   0.00000  Uiso   1.00
C326   C     0.82138   0.05756   0.79141   0.00000  Uiso   1.00
C327   C     0.67082   0.03534   0.86733   0.00000  Uiso   1.00
C328   C     0.19751   0.06994   0.70119   0.00000  Uiso   1.00
C329   C     0.24987   0.05705   0.62496   0.00000  Uiso   1.00
C330   C     0.33985   0.03669   0.64065   0.00000  Uiso   1.00
C331   C     0.48939   0.00241   0.62931   0.00000  Uiso   1.00
C332   C     0.13697   0.12145   0.75278   0.00000  Uiso   1.00
C333   C     0.13847   0.15186   0.71991   0.00000  Uiso   1.00
C334   C     0.17750   0.17487   0.77903   0.00000  Uiso   1.00
C335   C     0.23305   0.22057   0.84779   0.00000  Uiso   1.00
C336   C     0.16438   0.07951   0.86321   0.00000  Uiso   1.00
C337   C     0.04048   0.07054   0.84615   0.00000  Uiso   1.00
C338   C     0.96791   0.05674   0.90921   0.00000  Uiso   1.00
C339   C     0.85767   0.05037   0.88033   0.00000  Uiso   1.00
C340   C     0.23374   0.06276   0.78995   0.00000  Uiso   1.00
C341   C     0.32367   0.04242   0.80575   0.00000  Uiso   1.00
C342   C     0.37615   0.02950   0.72957   0.00000  Uiso   1.00
C343   C     0.17320   0.11427   0.84154   0.00000  Uiso   1.00
C344   C     0.21226   0.13724   0.90071   0.00000  Uiso   1.00
C345   C     0.21380   0.16768   0.86795   0.00000  Uiso   1.00
H346   H     0.06947   0.09831   0.63069   0.00000  Uiso   1.00
H347   H     0.86610   0.07692   0.65972   0.00000  Uiso   1.00
H348   H     0.22182   0.06261   0.55628   0.00000  Uiso   1.00
H349   H     0.11042   0.15741   0.65123   0.00000  Uiso   1.00
H350   H     0.65662   0.05003   0.73103   0.00000  Uiso   1.00
H351   H     0.40670   0.01986   0.51293   0.00000  Uiso   1.00
H352   H     0.17180   0.21976   0.71313   0.00000  Uiso   1.00
H353   H     0.19259   0.07392   0.93231   0.00000  Uiso   1.00
H354   H     0.99597   0.05119   0.97789   0.00000  Uiso   1.00
H355   H     0.35169   0.03687   0.87445   0.00000  Uiso   1.00
H356   H     0.24029   0.13167   0.96939   0.00000  Uiso   1.00
H357   H     0.76203   0.02914   0.98927   0.00000  Uiso   1.00
H358   H     0.51211   0.99897   0.77116   0.00000  Uiso   1.00
H359   H     0.27720   0.19887   0.97137   0.00000  Uiso   1.00
O360   O     0.57777   0.02506   0.88468   0.00000  Uiso   1.00
O361   O     0.56185   0.98549   0.59853   0.00000  Uiso   1.00
O362   O     0.25366   0.24775   0.86120   0.00000  Uiso   1.00
N363   N     0.70841   0.04824   0.78556   0.00000  Uiso   1.00
N364   N     0.40967   0.02003   0.58164   0.00000  Uiso   1.00
N365   N     0.19008   0.20692   0.76881   0.00000  Uiso   1.00
N366   N     0.76512   0.03700   0.92452   0.00000  Uiso   1.00
N367   N     0.46638   0.00879   0.72060   0.00000  Uiso   1.00
N368   N     0.24680   0.19568   0.90777   0.00000  Uiso   1.00
