data_job_03201
_audit_creation_date              2018-12-19
_audit_creation_method            'Materials Studio'
_symmetry_space_group_name_H-M    'P1'
_symmetry_Int_Tables_number       1
_symmetry_cell_setting            triclinic
loop_
_symmetry_equiv_pos_as_xyz
  x,y,z
_cell_length_a                    18.6368
_cell_length_b                    9.9316
_cell_length_c                    17.7536
_cell_angle_alpha                 90.0000
_cell_angle_beta                  54.8941
_cell_angle_gamma                 90.0000
loop_
_atom_site_label
_atom_site_type_symbol
_atom_site_fract_x
_atom_site_fract_y
_atom_site_fract_z
_atom_site_U_iso_or_equiv
_atom_site_adp_type
_atom_site_occupancy
C1     C     0.27917   0.91809   0.21350   0.00000  Uiso   1.00
C2     C     0.27628   0.07156   0.21637   0.00000  Uiso   1.00
C3     C     0.31899   0.15391   0.24199   0.00000  Uiso   1.00
C4     C     0.30808   0.29186   0.24007   0.00000  Uiso   1.00
C5     C     0.31142   0.52200   0.24862   0.00000  Uiso   1.00
C6     C     0.18402   0.87133   0.27499   0.00000  Uiso   1.00
C7     C     0.14918   0.78532   0.34988   0.00000  Uiso   1.00
C8     C     0.06060   0.75471   0.39729   0.00000  Uiso   1.00
C9     C     0.92073   0.67393   0.49679   0.00000  Uiso   1.00
C10    C     0.31188   0.87892   0.11560   0.00000  Uiso   1.00
C11    C     0.38452   0.79925   0.05649   0.00000  Uiso   1.00
C12    C     0.40358   0.77501   0.96972   0.00000  Uiso   1.00
C13    C     0.46223   0.70600   0.82176   0.00000  Uiso   1.00
C14    C     0.18383   0.01665   0.16453   0.00000  Uiso   1.00
C15    C     0.22449   0.12508   0.18978   0.00000  Uiso   1.00
C16    C     0.21351   0.26295   0.18781   0.00000  Uiso   1.00
C17    C     0.25620   0.34549   0.21342   0.00000  Uiso   1.00
C18    C     0.13224   0.92486   0.24839   0.00000  Uiso   1.00
C19    C     0.04369   0.89436   0.29570   0.00000  Uiso   1.00
C20    C     0.00872   0.80834   0.37065   0.00000  Uiso   1.00
C21    C     0.26010   0.93245   0.08900   0.00000  Uiso   1.00
C22    C     0.27904   0.90831   0.00231   0.00000  Uiso   1.00
C23    C     0.35170   0.82863   0.94308   0.00000  Uiso   1.00
H24    H     0.31949   0.87641   0.23421   0.00000  Uiso   1.00
H25    H     0.35906   0.11244   0.26258   0.00000  Uiso   1.00
H26    H     0.18927   0.74390   0.37044   0.00000  Uiso   1.00
H27    H     0.42458   0.75785   0.07710   0.00000  Uiso   1.00
H28    H     0.38006   0.39773   0.28233   0.00000  Uiso   1.00
H29    H     0.02206   0.62061   0.50974   0.00000  Uiso   1.00
H30    H     0.51826   0.65001   0.89117   0.00000  Uiso   1.00
H31    H     0.14351   0.05832   0.14383   0.00000  Uiso   1.00
H32    H     0.17343   0.30434   0.16723   0.00000  Uiso   1.00
H33    H     0.00364   0.93580   0.27510   0.00000  Uiso   1.00
H34    H     0.23895   0.94975   0.98175   0.00000  Uiso   1.00
H35    H     0.22940   0.55348   0.20495   0.00000  Uiso   1.00
H36    H     0.87140   0.77636   0.43236   0.00000  Uiso   1.00
H37    H     0.36760   0.80577   0.81379   0.00000  Uiso   1.00
O38    O     0.32756   0.63416   0.26069   0.00000  Uiso   1.00
O39    O     0.85789   0.61460   0.55903   0.00000  Uiso   1.00
O40    O     0.50889   0.65317   0.74749   0.00000  Uiso   1.00
N41    N     0.34051   0.40062   0.26089   0.00000  Uiso   1.00
N42    N     0.00580   0.67408   0.47351   0.00000  Uiso   1.00
N43    N     0.46969   0.70154   0.89521   0.00000  Uiso   1.00
N44    N     0.25944   0.48443   0.21925   0.00000  Uiso   1.00
N45    N     0.92473   0.75790   0.43187   0.00000  Uiso   1.00
N46    N     0.38862   0.78535   0.85357   0.00000  Uiso   1.00
C47    C     0.72083   0.41809   0.28650   0.00000  Uiso   1.00
C48    C     0.72372   0.57156   0.28363   0.00000  Uiso   1.00
C49    C     0.68101   0.65391   0.25801   0.00000  Uiso   1.00
C50    C     0.69192   0.79186   0.25993   0.00000  Uiso   1.00
C51    C     0.68858   0.02200   0.25138   0.00000  Uiso   1.00
C52    C     0.81598   0.37133   0.22501   0.00000  Uiso   1.00
C53    C     0.85082   0.28532   0.15012   0.00000  Uiso   1.00
C54    C     0.93940   0.25471   0.10271   0.00000  Uiso   1.00
C55    C     0.07927   0.17393   0.00321   0.00000  Uiso   1.00
C56    C     0.68812   0.37892   0.38440   0.00000  Uiso   1.00
C57    C     0.61548   0.29925   0.44351   0.00000  Uiso   1.00
C58    C     0.59642   0.27501   0.53028   0.00000  Uiso   1.00
C59    C     0.53777   0.20600   0.67824   0.00000  Uiso   1.00
C60    C     0.81617   0.51665   0.33547   0.00000  Uiso   1.00
C61    C     0.77551   0.62508   0.31022   0.00000  Uiso   1.00
C62    C     0.78649   0.76295   0.31219   0.00000  Uiso   1.00
C63    C     0.74380   0.84549   0.28658   0.00000  Uiso   1.00
C64    C     0.86776   0.42486   0.25161   0.00000  Uiso   1.00
C65    C     0.95631   0.39436   0.20430   0.00000  Uiso   1.00
C66    C     0.99128   0.30834   0.12935   0.00000  Uiso   1.00
C67    C     0.73990   0.43245   0.41100   0.00000  Uiso   1.00
C68    C     0.72096   0.40831   0.49769   0.00000  Uiso   1.00
C69    C     0.64830   0.32863   0.55692   0.00000  Uiso   1.00
H70    H     0.68051   0.37641   0.26579   0.00000  Uiso   1.00
H71    H     0.64094   0.61244   0.23742   0.00000  Uiso   1.00
H72    H     0.81073   0.24390   0.12956   0.00000  Uiso   1.00
H73    H     0.57542   0.25785   0.42290   0.00000  Uiso   1.00
H74    H     0.61994   0.89773   0.21767   0.00000  Uiso   1.00
H75    H     0.97794   0.12061   0.99026   0.00000  Uiso   1.00
H76    H     0.48174   0.15001   0.60883   0.00000  Uiso   1.00
H77    H     0.85649   0.55832   0.35617   0.00000  Uiso   1.00
H78    H     0.82657   0.80434   0.33277   0.00000  Uiso   1.00
H79    H     0.99636   0.43580   0.22490   0.00000  Uiso   1.00
H80    H     0.76105   0.44975   0.51825   0.00000  Uiso   1.00
H81    H     0.77060   0.05348   0.29505   0.00000  Uiso   1.00
H82    H     0.12860   0.27636   0.06764   0.00000  Uiso   1.00
H83    H     0.63240   0.30577   0.68621   0.00000  Uiso   1.00
O84    O     0.67244   0.13416   0.23931   0.00000  Uiso   1.00
O85    O     0.14211   0.11460   0.94097   0.00000  Uiso   1.00
O86    O     0.49111   0.15317   0.75251   0.00000  Uiso   1.00
N87    N     0.65949   0.90062   0.23911   0.00000  Uiso   1.00
N88    N     0.99420   0.17408   0.02649   0.00000  Uiso   1.00
N89    N     0.53031   0.20154   0.60479   0.00000  Uiso   1.00
N90    N     0.74056   0.98443   0.28075   0.00000  Uiso   1.00
N91    N     0.07527   0.25790   0.06813   0.00000  Uiso   1.00
N92    N     0.61138   0.28535   0.64643   0.00000  Uiso   1.00
C93    C     0.72083   0.08191   0.78650   0.00000  Uiso   1.00
C94    C     0.72372   0.92844   0.78363   0.00000  Uiso   1.00
C95    C     0.68101   0.84609   0.75801   0.00000  Uiso   1.00
C96    C     0.69192   0.70814   0.75993   0.00000  Uiso   1.00
C97    C     0.68858   0.47800   0.75138   0.00000  Uiso   1.00
C98    C     0.81598   0.12867   0.72501   0.00000  Uiso   1.00
C99    C     0.85082   0.21468   0.65012   0.00000  Uiso   1.00
C100   C     0.93940   0.24529   0.60271   0.00000  Uiso   1.00
C101   C     0.07927   0.32607   0.50321   0.00000  Uiso   1.00
C102   C     0.68812   0.12108   0.88440   0.00000  Uiso   1.00
C103   C     0.61548   0.20075   0.94351   0.00000  Uiso   1.00
C104   C     0.59642   0.22499   0.03028   0.00000  Uiso   1.00
C105   C     0.53777   0.29400   0.17824   0.00000  Uiso   1.00
C106   C     0.81617   0.98335   0.83547   0.00000  Uiso   1.00
C107   C     0.77551   0.87492   0.81022   0.00000  Uiso   1.00
C108   C     0.78649   0.73705   0.81219   0.00000  Uiso   1.00
C109   C     0.74380   0.65451   0.78658   0.00000  Uiso   1.00
C110   C     0.86776   0.07514   0.75161   0.00000  Uiso   1.00
C111   C     0.95631   0.10564   0.70430   0.00000  Uiso   1.00
C112   C     0.99128   0.19166   0.62935   0.00000  Uiso   1.00
C113   C     0.73990   0.06755   0.91100   0.00000  Uiso   1.00
C114   C     0.72096   0.09169   0.99769   0.00000  Uiso   1.00
C115   C     0.64830   0.17137   0.05692   0.00000  Uiso   1.00
H116   H     0.68051   0.12359   0.76579   0.00000  Uiso   1.00
H117   H     0.64094   0.88756   0.73742   0.00000  Uiso   1.00
H118   H     0.81073   0.25610   0.62956   0.00000  Uiso   1.00
H119   H     0.57542   0.24215   0.92290   0.00000  Uiso   1.00
H120   H     0.61994   0.60227   0.71767   0.00000  Uiso   1.00
H121   H     0.97794   0.37939   0.49026   0.00000  Uiso   1.00
H122   H     0.48174   0.34999   0.10883   0.00000  Uiso   1.00
H123   H     0.85649   0.94168   0.85617   0.00000  Uiso   1.00
H124   H     0.82657   0.69566   0.83277   0.00000  Uiso   1.00
H125   H     0.99636   0.06420   0.72490   0.00000  Uiso   1.00
H126   H     0.76105   0.05025   0.01825   0.00000  Uiso   1.00
H127   H     0.77060   0.44652   0.79505   0.00000  Uiso   1.00
H128   H     0.12860   0.22364   0.56764   0.00000  Uiso   1.00
H129   H     0.63240   0.19423   0.18621   0.00000  Uiso   1.00
O130   O     0.67244   0.36584   0.73931   0.00000  Uiso   1.00
O131   O     0.14211   0.38540   0.44097   0.00000  Uiso   1.00
O132   O     0.49111   0.34683   0.25251   0.00000  Uiso   1.00
N133   N     0.65949   0.59938   0.73911   0.00000  Uiso   1.00
N134   N     0.99420   0.32592   0.52649   0.00000  Uiso   1.00
N135   N     0.53031   0.29846   0.10479   0.00000  Uiso   1.00
N136   N     0.74056   0.51557   0.78075   0.00000  Uiso   1.00
N137   N     0.07527   0.24210   0.56813   0.00000  Uiso   1.00
N138   N     0.61138   0.21465   0.14643   0.00000  Uiso   1.00
C139   C     0.27917   0.58191   0.71350   0.00000  Uiso   1.00
C140   C     0.27628   0.42844   0.71637   0.00000  Uiso   1.00
C141   C     0.31899   0.34609   0.74199   0.00000  Uiso   1.00
C142   C     0.30808   0.20814   0.74007   0.00000  Uiso   1.00
C143   C     0.31142   0.97800   0.74862   0.00000  Uiso   1.00
C144   C     0.18402   0.62867   0.77499   0.00000  Uiso   1.00
C145   C     0.14918   0.71468   0.84988   0.00000  Uiso   1.00
C146   C     0.06060   0.74529   0.89729   0.00000  Uiso   1.00
C147   C     0.92073   0.82607   0.99679   0.00000  Uiso   1.00
C148   C     0.31188   0.62108   0.61560   0.00000  Uiso   1.00
C149   C     0.38452   0.70075   0.55649   0.00000  Uiso   1.00
C150   C     0.40358   0.72499   0.46972   0.00000  Uiso   1.00
C151   C     0.46223   0.79400   0.32176   0.00000  Uiso   1.00
C152   C     0.18383   0.48335   0.66453   0.00000  Uiso   1.00
C153   C     0.22449   0.37492   0.68978   0.00000  Uiso   1.00
C154   C     0.21351   0.23705   0.68781   0.00000  Uiso   1.00
C155   C     0.25620   0.15451   0.71342   0.00000  Uiso   1.00
C156   C     0.13224   0.57514   0.74839   0.00000  Uiso   1.00
C157   C     0.04369   0.60564   0.79570   0.00000  Uiso   1.00
C158   C     0.00872   0.69166   0.87065   0.00000  Uiso   1.00
C159   C     0.26010   0.56755   0.58900   0.00000  Uiso   1.00
C160   C     0.27904   0.59169   0.50231   0.00000  Uiso   1.00
C161   C     0.35170   0.67137   0.44308   0.00000  Uiso   1.00
H162   H     0.31949   0.62359   0.73421   0.00000  Uiso   1.00
H163   H     0.35906   0.38756   0.76258   0.00000  Uiso   1.00
H164   H     0.18927   0.75610   0.87044   0.00000  Uiso   1.00
H165   H     0.42458   0.74215   0.57710   0.00000  Uiso   1.00
H166   H     0.38006   0.10227   0.78233   0.00000  Uiso   1.00
H167   H     0.02206   0.87939   0.00974   0.00000  Uiso   1.00
H168   H     0.51826   0.84999   0.39117   0.00000  Uiso   1.00
H169   H     0.14351   0.44168   0.64383   0.00000  Uiso   1.00
H170   H     0.17343   0.19566   0.66723   0.00000  Uiso   1.00
H171   H     0.00364   0.56420   0.77510   0.00000  Uiso   1.00
H172   H     0.23895   0.55025   0.48175   0.00000  Uiso   1.00
H173   H     0.22940   0.94652   0.70495   0.00000  Uiso   1.00
H174   H     0.87140   0.72364   0.93236   0.00000  Uiso   1.00
H175   H     0.36760   0.69423   0.31379   0.00000  Uiso   1.00
O176   O     0.32756   0.86584   0.76069   0.00000  Uiso   1.00
O177   O     0.85789   0.88540   0.05903   0.00000  Uiso   1.00
O178   O     0.50889   0.84683   0.24749   0.00000  Uiso   1.00
N179   N     0.34051   0.09938   0.76089   0.00000  Uiso   1.00
N180   N     0.00580   0.82592   0.97351   0.00000  Uiso   1.00
N181   N     0.46969   0.79846   0.39521   0.00000  Uiso   1.00
N182   N     0.25944   0.01557   0.71925   0.00000  Uiso   1.00
N183   N     0.92473   0.74210   0.93187   0.00000  Uiso   1.00
N184   N     0.38862   0.71465   0.35357   0.00000  Uiso   1.00
