data_job_02482
_audit_creation_date              2018-12-19
_audit_creation_method            'Materials Studio'
_symmetry_space_group_name_H-M    'P1'
_symmetry_Int_Tables_number       1
_symmetry_cell_setting            triclinic
loop_
_symmetry_equiv_pos_as_xyz
  x,y,z
_cell_length_a                    9.7941
_cell_length_b                    15.5872
_cell_length_c                    22.3947
_cell_angle_alpha                 90.0000
_cell_angle_beta                  120.9970
_cell_angle_gamma                 90.0000
loop_
_atom_site_label
_atom_site_type_symbol
_atom_site_fract_x
_atom_site_fract_y
_atom_site_fract_z
_atom_site_U_iso_or_equiv
_atom_site_adp_type
_atom_site_occupancy
C1     C     0.29742   0.98989   0.19183   0.00000  Uiso   1.00
C2     C     0.27052   0.92149   0.13814   0.00000  Uiso   1.00
C3     C     0.28661   0.93316   0.08063   0.00000  Uiso   1.00
C4     C     0.25668   0.86261   0.03774   0.00000  Uiso   1.00
C5     C     0.22160   0.76848   0.95220   0.00000  Uiso   1.00
C6     C     0.14317   0.99468   0.19289   0.00000  Uiso   1.00
C7     C     0.05220   0.06788   0.18142   0.00000  Uiso   1.00
C8     C     0.91508   0.05894   0.18463   0.00000  Uiso   1.00
C9     C     0.68234   0.07845   0.18414   0.00000  Uiso   1.00
C10    C     0.42252   0.95343   0.26234   0.00000  Uiso   1.00
C11    C     0.56642   0.99196   0.30928   0.00000  Uiso   1.00
C12    C     0.66447   0.94830   0.37098   0.00000  Uiso   1.00
C13    C     0.86546   0.90376   0.47833   0.00000  Uiso   1.00
C14    C     0.21566   0.84385   0.21794   0.00000  Uiso   1.00
C15    C     0.22611   0.84216   0.15233   0.00000  Uiso   1.00
C16    C     0.19616   0.77158   0.10952   0.00000  Uiso   1.00
C17    C     0.21220   0.78314   0.05195   0.00000  Uiso   1.00
C18    C     0.09876   0.91535   0.20707   0.00000  Uiso   1.00
C19    C     0.96175   0.90630   0.21031   0.00000  Uiso   1.00
C20    C     0.87059   0.97947   0.19884   0.00000  Uiso   1.00
C21    C     0.37811   0.87410   0.27653   0.00000  Uiso   1.00
C22    C     0.47596   0.83037   0.33817   0.00000  Uiso   1.00
C23    C     0.61998   0.86883   0.38519   0.00000  Uiso   1.00
H24    H     0.33199   0.05165   0.18079   0.00000  Uiso   1.00
H25    H     0.32097   0.99456   0.06967   0.00000  Uiso   1.00
H26    H     0.08661   0.12926   0.17045   0.00000  Uiso   1.00
H27    H     0.60074   0.05335   0.29829   0.00000  Uiso   1.00
H28    H     0.28911   0.89629   0.95271   0.00000  Uiso   1.00
H29    H     0.79498   0.18033   0.16523   0.00000  Uiso   1.00
H30    H     0.87913   0.02024   0.43482   0.00000  Uiso   1.00
H31    H     0.18108   0.78209   0.22898   0.00000  Uiso   1.00
H32    H     0.16179   0.71020   0.12051   0.00000  Uiso   1.00
H33    H     0.92742   0.84491   0.22129   0.00000  Uiso   1.00
H34    H     0.44155   0.76899   0.34913   0.00000  Uiso   1.00
H35    H     0.15991   0.66549   0.99397   0.00000  Uiso   1.00
H36    H     0.66577   0.94953   0.20650   0.00000  Uiso   1.00
H37    H     0.74992   0.78945   0.47608   0.00000  Uiso   1.00
O38    O     0.21449   0.73847   0.90110   0.00000  Uiso   1.00
O39    O     0.56622   0.11112   0.17994   0.00000  Uiso   1.00
O40    O     0.98860   0.90109   0.53362   0.00000  Uiso   1.00
N41    N     0.26138   0.85183   0.97732   0.00000  Uiso   1.00
N42    N     0.79938   0.11739   0.17600   0.00000  Uiso   1.00
N43    N     0.81295   0.96773   0.42805   0.00000  Uiso   1.00
N44    N     0.19186   0.72764   0.99952   0.00000  Uiso   1.00
N45    N     0.72986   0.99320   0.19821   0.00000  Uiso   1.00
N46    N     0.74343   0.84354   0.45025   0.00000  Uiso   1.00
C47    C     0.70258   0.48989   0.30817   0.00000  Uiso   1.00
C48    C     0.72948   0.42149   0.36186   0.00000  Uiso   1.00
C49    C     0.71339   0.43316   0.41937   0.00000  Uiso   1.00
C50    C     0.74332   0.36261   0.46226   0.00000  Uiso   1.00
C51    C     0.77840   0.26848   0.54780   0.00000  Uiso   1.00
C52    C     0.85683   0.49468   0.30711   0.00000  Uiso   1.00
C53    C     0.94780   0.56788   0.31858   0.00000  Uiso   1.00
C54    C     0.08492   0.55894   0.31537   0.00000  Uiso   1.00
C55    C     0.31766   0.57845   0.31586   0.00000  Uiso   1.00
C56    C     0.57748   0.45343   0.23766   0.00000  Uiso   1.00
C57    C     0.43358   0.49196   0.19072   0.00000  Uiso   1.00
C58    C     0.33553   0.44830   0.12902   0.00000  Uiso   1.00
C59    C     0.13454   0.40376   0.02167   0.00000  Uiso   1.00
C60    C     0.78434   0.34385   0.28206   0.00000  Uiso   1.00
C61    C     0.77389   0.34216   0.34767   0.00000  Uiso   1.00
C62    C     0.80384   0.27158   0.39048   0.00000  Uiso   1.00
C63    C     0.78780   0.28314   0.44805   0.00000  Uiso   1.00
C64    C     0.90124   0.41535   0.29293   0.00000  Uiso   1.00
C65    C     0.03825   0.40630   0.28969   0.00000  Uiso   1.00
C66    C     0.12941   0.47947   0.30116   0.00000  Uiso   1.00
C67    C     0.62189   0.37410   0.22347   0.00000  Uiso   1.00
C68    C     0.52404   0.33037   0.16183   0.00000  Uiso   1.00
C69    C     0.38002   0.36883   0.11481   0.00000  Uiso   1.00
H70    H     0.66801   0.55165   0.31921   0.00000  Uiso   1.00
H71    H     0.67903   0.49456   0.43033   0.00000  Uiso   1.00
H72    H     0.91339   0.62926   0.32955   0.00000  Uiso   1.00
H73    H     0.39926   0.55335   0.20171   0.00000  Uiso   1.00
H74    H     0.71089   0.39629   0.54729   0.00000  Uiso   1.00
H75    H     0.20502   0.68033   0.33477   0.00000  Uiso   1.00
H76    H     0.12087   0.52024   0.06518   0.00000  Uiso   1.00
H77    H     0.81892   0.28209   0.27102   0.00000  Uiso   1.00
H78    H     0.83821   0.21020   0.37949   0.00000  Uiso   1.00
H79    H     0.07258   0.34491   0.27871   0.00000  Uiso   1.00
H80    H     0.55845   0.26899   0.15087   0.00000  Uiso   1.00
H81    H     0.84009   0.16549   0.50603   0.00000  Uiso   1.00
H82    H     0.33423   0.44953   0.29350   0.00000  Uiso   1.00
H83    H     0.25008   0.28945   0.02392   0.00000  Uiso   1.00
O84    O     0.78551   0.23847   0.59890   0.00000  Uiso   1.00
O85    O     0.43378   0.61112   0.32006   0.00000  Uiso   1.00
O86    O     0.01140   0.40109   0.96638   0.00000  Uiso   1.00
N87    N     0.73862   0.35183   0.52268   0.00000  Uiso   1.00
N88    N     0.20062   0.61739   0.32400   0.00000  Uiso   1.00
N89    N     0.18705   0.46773   0.07195   0.00000  Uiso   1.00
N90    N     0.80814   0.22764   0.50048   0.00000  Uiso   1.00
N91    N     0.27014   0.49320   0.30179   0.00000  Uiso   1.00
N92    N     0.25657   0.34354   0.04975   0.00000  Uiso   1.00
C93    C     0.70258   0.01011   0.80817   0.00000  Uiso   1.00
C94    C     0.72948   0.07851   0.86186   0.00000  Uiso   1.00
C95    C     0.71339   0.06684   0.91937   0.00000  Uiso   1.00
C96    C     0.74332   0.13739   0.96226   0.00000  Uiso   1.00
C97    C     0.77840   0.23152   0.04780   0.00000  Uiso   1.00
C98    C     0.85683   0.00532   0.80711   0.00000  Uiso   1.00
C99    C     0.94780   0.93212   0.81858   0.00000  Uiso   1.00
C100   C     0.08492   0.94106   0.81537   0.00000  Uiso   1.00
C101   C     0.31766   0.92155   0.81586   0.00000  Uiso   1.00
C102   C     0.57748   0.04657   0.73766   0.00000  Uiso   1.00
C103   C     0.43358   0.00804   0.69072   0.00000  Uiso   1.00
C104   C     0.33553   0.05170   0.62902   0.00000  Uiso   1.00
C105   C     0.13454   0.09624   0.52167   0.00000  Uiso   1.00
C106   C     0.78434   0.15615   0.78206   0.00000  Uiso   1.00
C107   C     0.77389   0.15784   0.84767   0.00000  Uiso   1.00
C108   C     0.80384   0.22842   0.89048   0.00000  Uiso   1.00
C109   C     0.78780   0.21686   0.94805   0.00000  Uiso   1.00
C110   C     0.90124   0.08465   0.79293   0.00000  Uiso   1.00
C111   C     0.03825   0.09370   0.78969   0.00000  Uiso   1.00
C112   C     0.12941   0.02053   0.80116   0.00000  Uiso   1.00
C113   C     0.62189   0.12590   0.72347   0.00000  Uiso   1.00
C114   C     0.52404   0.16963   0.66183   0.00000  Uiso   1.00
C115   C     0.38002   0.13117   0.61481   0.00000  Uiso   1.00
H116   H     0.66801   0.94835   0.81921   0.00000  Uiso   1.00
H117   H     0.67903   0.00544   0.93033   0.00000  Uiso   1.00
H118   H     0.91339   0.87074   0.82955   0.00000  Uiso   1.00
H119   H     0.39926   0.94665   0.70171   0.00000  Uiso   1.00
H120   H     0.71089   0.10371   0.04729   0.00000  Uiso   1.00
H121   H     0.20502   0.81967   0.83477   0.00000  Uiso   1.00
H122   H     0.12087   0.97976   0.56518   0.00000  Uiso   1.00
H123   H     0.81892   0.21791   0.77102   0.00000  Uiso   1.00
H124   H     0.83821   0.28980   0.87949   0.00000  Uiso   1.00
H125   H     0.07258   0.15509   0.77871   0.00000  Uiso   1.00
H126   H     0.55845   0.23101   0.65087   0.00000  Uiso   1.00
H127   H     0.84009   0.33451   0.00603   0.00000  Uiso   1.00
H128   H     0.33423   0.05047   0.79350   0.00000  Uiso   1.00
H129   H     0.25008   0.21055   0.52392   0.00000  Uiso   1.00
O130   O     0.78551   0.26153   0.09890   0.00000  Uiso   1.00
O131   O     0.43378   0.88888   0.82006   0.00000  Uiso   1.00
O132   O     0.01140   0.09891   0.46638   0.00000  Uiso   1.00
N133   N     0.73862   0.14817   0.02268   0.00000  Uiso   1.00
N134   N     0.20062   0.88261   0.82400   0.00000  Uiso   1.00
N135   N     0.18705   0.03227   0.57195   0.00000  Uiso   1.00
N136   N     0.80814   0.27236   0.00048   0.00000  Uiso   1.00
N137   N     0.27014   0.00680   0.80179   0.00000  Uiso   1.00
N138   N     0.25657   0.15646   0.54975   0.00000  Uiso   1.00
C139   C     0.29742   0.51011   0.69183   0.00000  Uiso   1.00
C140   C     0.27052   0.57851   0.63814   0.00000  Uiso   1.00
C141   C     0.28661   0.56684   0.58063   0.00000  Uiso   1.00
C142   C     0.25668   0.63739   0.53774   0.00000  Uiso   1.00
C143   C     0.22160   0.73152   0.45220   0.00000  Uiso   1.00
C144   C     0.14317   0.50532   0.69289   0.00000  Uiso   1.00
C145   C     0.05220   0.43212   0.68142   0.00000  Uiso   1.00
C146   C     0.91508   0.44106   0.68463   0.00000  Uiso   1.00
C147   C     0.68234   0.42155   0.68414   0.00000  Uiso   1.00
C148   C     0.42252   0.54657   0.76234   0.00000  Uiso   1.00
C149   C     0.56642   0.50804   0.80928   0.00000  Uiso   1.00
C150   C     0.66447   0.55170   0.87098   0.00000  Uiso   1.00
C151   C     0.86546   0.59624   0.97833   0.00000  Uiso   1.00
C152   C     0.21566   0.65615   0.71794   0.00000  Uiso   1.00
C153   C     0.22611   0.65784   0.65233   0.00000  Uiso   1.00
C154   C     0.19616   0.72842   0.60952   0.00000  Uiso   1.00
C155   C     0.21220   0.71686   0.55195   0.00000  Uiso   1.00
C156   C     0.09876   0.58465   0.70707   0.00000  Uiso   1.00
C157   C     0.96175   0.59370   0.71031   0.00000  Uiso   1.00
C158   C     0.87059   0.52053   0.69884   0.00000  Uiso   1.00
C159   C     0.37811   0.62590   0.77653   0.00000  Uiso   1.00
C160   C     0.47596   0.66963   0.83817   0.00000  Uiso   1.00
C161   C     0.61998   0.63117   0.88519   0.00000  Uiso   1.00
H162   H     0.33199   0.44835   0.68079   0.00000  Uiso   1.00
H163   H     0.32097   0.50544   0.56967   0.00000  Uiso   1.00
H164   H     0.08661   0.37074   0.67045   0.00000  Uiso   1.00
H165   H     0.60074   0.44665   0.79829   0.00000  Uiso   1.00
H166   H     0.28911   0.60371   0.45271   0.00000  Uiso   1.00
H167   H     0.79498   0.31967   0.66523   0.00000  Uiso   1.00
H168   H     0.87913   0.47976   0.93482   0.00000  Uiso   1.00
H169   H     0.18108   0.71791   0.72898   0.00000  Uiso   1.00
H170   H     0.16179   0.78980   0.62051   0.00000  Uiso   1.00
H171   H     0.92742   0.65509   0.72129   0.00000  Uiso   1.00
H172   H     0.44155   0.73101   0.84913   0.00000  Uiso   1.00
H173   H     0.15991   0.83451   0.49397   0.00000  Uiso   1.00
H174   H     0.66577   0.55047   0.70650   0.00000  Uiso   1.00
H175   H     0.74992   0.71055   0.97608   0.00000  Uiso   1.00
O176   O     0.21449   0.76153   0.40110   0.00000  Uiso   1.00
O177   O     0.56622   0.38888   0.67994   0.00000  Uiso   1.00
O178   O     0.98860   0.59891   0.03362   0.00000  Uiso   1.00
N179   N     0.26138   0.64817   0.47732   0.00000  Uiso   1.00
N180   N     0.79938   0.38261   0.67600   0.00000  Uiso   1.00
N181   N     0.81295   0.53227   0.92805   0.00000  Uiso   1.00
N182   N     0.19186   0.77236   0.49952   0.00000  Uiso   1.00
N183   N     0.72986   0.50680   0.69821   0.00000  Uiso   1.00
N184   N     0.74343   0.65646   0.95025   0.00000  Uiso   1.00
