data_job_00920
_audit_creation_date              2018-12-19
_audit_creation_method            'Materials Studio'
_symmetry_space_group_name_H-M    'P1'
_symmetry_Int_Tables_number       1
_symmetry_cell_setting            triclinic
loop_
_symmetry_equiv_pos_as_xyz
  x,y,z
_cell_length_a                    40.9693
_cell_length_b                    10.3981
_cell_length_c                    44.7420
_cell_angle_alpha                 90.0000
_cell_angle_beta                  159.9201
_cell_angle_gamma                 90.0000
loop_
_atom_site_label
_atom_site_type_symbol
_atom_site_fract_x
_atom_site_fract_y
_atom_site_fract_z
_atom_site_U_iso_or_equiv
_atom_site_adp_type
_atom_site_occupancy
C1     C     0.15815   0.44803   0.07494   0.00000  Uiso   1.00
C2     C     0.22464   0.43547   0.10536   0.00000  Uiso   1.00
C3     C     0.23033   0.33028   0.09125   0.00000  Uiso   1.00
C4     C     0.29574   0.33743   0.12432   0.00000  Uiso   1.00
C5     C     0.39026   0.30140   0.16468   0.00000  Uiso   1.00
C6     C     0.22166   0.47503   0.15646   0.00000  Uiso   1.00
C7     C     0.22482   0.40311   0.18529   0.00000  Uiso   1.00
C8     C     0.28771   0.44359   0.26137   0.00000  Uiso   1.00
C9     C     0.37754   0.46902   0.38101   0.00000  Uiso   1.00
C10    C     0.10082   0.57048   0.02045   0.00000  Uiso   1.00
C11    C     0.00239   0.57883   0.93493   0.00000  Uiso   1.00
C12    C     0.96354   0.69967   0.89650   0.00000  Uiso   1.00
C13    C     0.86576   0.87330   0.80497   0.00000  Uiso   1.00
C14    C     0.26418   0.64779   0.15876   0.00000  Uiso   1.00
C15    C     0.28224   0.54397   0.15090   0.00000  Uiso   1.00
C16    C     0.34765   0.55129   0.18399   0.00000  Uiso   1.00
C17    C     0.35344   0.44613   0.16993   0.00000  Uiso   1.00
C18    C     0.27925   0.58353   0.20199   0.00000  Uiso   1.00
C19    C     0.34214   0.62412   0.27803   0.00000  Uiso   1.00
C20    C     0.34540   0.55228   0.30698   0.00000  Uiso   1.00
C21    C     0.15842   0.67898   0.06598   0.00000  Uiso   1.00
C22    C     0.11971   0.79983   0.02767   0.00000  Uiso   1.00
C23    C     0.02124   0.80836   0.94212   0.00000  Uiso   1.00
H24    H     0.11331   0.36356   0.03950   0.00000  Uiso   1.00
H25    H     0.18576   0.24633   0.05602   0.00000  Uiso   1.00
H26    H     0.18024   0.31916   0.15004   0.00000  Uiso   1.00
H27    H     0.95784   0.49485   0.89972   0.00000  Uiso   1.00
H28    H     0.29150   0.16418   0.09445   0.00000  Uiso   1.00
H29    H     0.27984   0.31778   0.29268   0.00000  Uiso   1.00
H30    H     0.81087   0.68825   0.76483   0.00000  Uiso   1.00
H31    H     0.30903   0.73226   0.19421   0.00000  Uiso   1.00
H32    H     0.39221   0.63526   0.21922   0.00000  Uiso   1.00
H33    H     0.38669   0.70809   0.31324   0.00000  Uiso   1.00
H34    H     0.16430   0.88378   0.06293   0.00000  Uiso   1.00
H35    H     0.45907   0.47985   0.22691   0.00000  Uiso   1.00
H36    H     0.44740   0.63346   0.42514   0.00000  Uiso   1.00
H37    H     0.97844   0.00392   0.89729   0.00000  Uiso   1.00
O38    O     0.42649   0.25154   0.17437   0.00000  Uiso   1.00
O39    O     0.41118   0.45307   0.43442   0.00000  Uiso   1.00
O40    O     0.79591   0.93910   0.74190   0.00000  Uiso   1.00
N41    N     0.31951   0.25180   0.12217   0.00000  Uiso   1.00
N42    N     0.30862   0.39539   0.30751   0.00000  Uiso   1.00
N43    N     0.87017   0.74175   0.81403   0.00000  Uiso   1.00
N44    N     0.40967   0.42166   0.19345   0.00000  Uiso   1.00
N45    N     0.39878   0.56525   0.37879   0.00000  Uiso   1.00
N46    N     0.96034   0.91161   0.88531   0.00000  Uiso   1.00
C47    C     0.49694   0.03693   0.91848   0.00000  Uiso   1.00
C48    C     0.52531   0.06266   0.91053   0.00000  Uiso   1.00
C49    C     0.57264   0.17100   0.94090   0.00000  Uiso   1.00
C50    C     0.59211   0.17641   0.92725   0.00000  Uiso   1.00
C51    C     0.64022   0.23152   0.92134   0.00000  Uiso   1.00
C52    C     0.38981   0.01449   0.82601   0.00000  Uiso   1.00
C53    C     0.32322   0.08233   0.78533   0.00000  Uiso   1.00
C54    C     0.22862   0.04719   0.70053   0.00000  Uiso   1.00
C55    C     0.06636   0.02746   0.56342   0.00000  Uiso   1.00
C56    C     0.54171   0.90820   0.96525   0.00000  Uiso   1.00
C57    C     0.60282   0.88665   0.04164   0.00000  Uiso   1.00
C58    C     0.63609   0.76201   0.07407   0.00000  Uiso   1.00
C59    C     0.70969   0.57724   0.15316   0.00000  Uiso   1.00
C60    C     0.44736   0.85389   0.84022   0.00000  Uiso   1.00
C61    C     0.49838   0.96323   0.86802   0.00000  Uiso   1.00
C62    C     0.51778   0.96848   0.85432   0.00000  Uiso   1.00
C63    C     0.56513   0.07681   0.88467   0.00000  Uiso   1.00
C64    C     0.36288   0.91508   0.78350   0.00000  Uiso   1.00
C65    C     0.26836   0.87982   0.69875   0.00000  Uiso   1.00
C66    C     0.20164   0.94759   0.65795   0.00000  Uiso   1.00
C67    C     0.51478   0.80878   0.92275   0.00000  Uiso   1.00
C68    C     0.54796   0.68414   0.95506   0.00000  Uiso   1.00
C69    C     0.60911   0.66241   0.03148   0.00000  Uiso   1.00
H70    H     0.51790   0.11433   0.95156   0.00000  Uiso   1.00
H71    H     0.59346   0.24792   0.97379   0.00000  Uiso   1.00
H72    H     0.34408   0.15926   0.81824   0.00000  Uiso   1.00
H73    H     0.62364   0.96361   0.07451   0.00000  Uiso   1.00
H74    H     0.66533   0.35221   0.97965   0.00000  Uiso   1.00
H75    H     0.13949   0.16523   0.65169   0.00000  Uiso   1.00
H76    H     0.72900   0.75267   0.19209   0.00000  Uiso   1.00
H77    H     0.42638   0.77648   0.80713   0.00000  Uiso   1.00
H78    H     0.49693   0.89153   0.82143   0.00000  Uiso   1.00
H79    H     0.24754   0.80287   0.66588   0.00000  Uiso   1.00
H80    H     0.52710   0.60723   0.92215   0.00000  Uiso   1.00
H81    H     0.58697   0.06296   0.85599   0.00000  Uiso   1.00
H82    H     0.06113   0.87597   0.52802   0.00000  Uiso   1.00
H83    H     0.65065   0.46342   0.06842   0.00000  Uiso   1.00
O84    O     0.67418   0.28938   0.92981   0.00000  Uiso   1.00
O85    O     0.98431   0.04406   0.49954   0.00000  Uiso   1.00
O86    O     0.75773   0.50280   0.20853   0.00000  Uiso   1.00
N87    N     0.63722   0.26833   0.94860   0.00000  Uiso   1.00
N88    N     0.14560   0.09353   0.64197   0.00000  Uiso   1.00
N89    N     0.69672   0.70782   0.14718   0.00000  Uiso   1.00
N90    N     0.59506   0.11269   0.88206   0.00000  Uiso   1.00
N91    N     0.10343   0.93789   0.57543   0.00000  Uiso   1.00
N92    N     0.65456   0.55217   0.08064   0.00000  Uiso   1.00
C93    C     0.47625   0.23157   0.55221   0.00000  Uiso   1.00
C94    C     0.45868   0.23656   0.57071   0.00000  Uiso   1.00
C95    C     0.41707   0.33780   0.55033   0.00000  Uiso   1.00
C96    C     0.40733   0.32383   0.57266   0.00000  Uiso   1.00
C97    C     0.37541   0.34853   0.59516   0.00000  Uiso   1.00
C98    C     0.58246   0.20732   0.63968   0.00000  Uiso   1.00
C99    C     0.64491   0.28396   0.67729   0.00000  Uiso   1.00
C100   C     0.73937   0.24535   0.75768   0.00000  Uiso   1.00
C101   C     0.89960   0.22460   0.88723   0.00000  Uiso   1.00
C102   C     0.42647   0.11045   0.49824   0.00000  Uiso   1.00
C103   C     0.35778   0.10564   0.41693   0.00000  Uiso   1.00
C104   C     0.32092   0.98546   0.37825   0.00000  Uiso   1.00
C105   C     0.23895   0.81432   0.28819   0.00000  Uiso   1.00
C106   C     0.53295   0.02672   0.62810   0.00000  Uiso   1.00
C107   C     0.48948   0.12530   0.61194   0.00000  Uiso   1.00
C108   C     0.47980   0.11116   0.63430   0.00000  Uiso   1.00
C109   C     0.43817   0.21236   0.61395   0.00000  Uiso   1.00
C110   C     0.61326   0.09606   0.68091   0.00000  Uiso   1.00
C111   C     0.70764   0.05732   0.76126   0.00000  Uiso   1.00
C112   C     0.77022   0.13388   0.79898   0.00000  Uiso   1.00
C113   C     0.45726   0.99918   0.53947   0.00000  Uiso   1.00
C114   C     0.42050   0.87900   0.50090   0.00000  Uiso   1.00
C115   C     0.35177   0.87400   0.41955   0.00000  Uiso   1.00
H116   H     0.45228   0.31820   0.52011   0.00000  Uiso   1.00
H117   H     0.39325   0.42390   0.51843   0.00000  Uiso   1.00
H118   H     0.62106   0.37005   0.64536   0.00000  Uiso   1.00
H119   H     0.33397   0.19176   0.38505   0.00000  Uiso   1.00
H120   H     0.34143   0.49204   0.53477   0.00000  Uiso   1.00
H121   H     0.82176   0.37848   0.80241   0.00000  Uiso   1.00
H122   H     0.21637   0.00252   0.25348   0.00000  Uiso   1.00
H123   H     0.55692   0.94009   0.66020   0.00000  Uiso   1.00
H124   H     0.50363   0.02504   0.66620   0.00000  Uiso   1.00
H125   H     0.73144   0.97120   0.79314   0.00000  Uiso   1.00
H126   H     0.44435   0.79291   0.53283   0.00000  Uiso   1.00
H127   H     0.43102   0.16832   0.65472   0.00000  Uiso   1.00
H128   H     0.91135   0.05476   0.92235   0.00000  Uiso   1.00
H129   H     0.30596   0.67879   0.37342   0.00000  Uiso   1.00
O130   O     0.34931   0.39290   0.59619   0.00000  Uiso   1.00
O131   O     0.97948   0.24391   0.94730   0.00000  Uiso   1.00
O132   O     0.18522   0.75065   0.22713   0.00000  Uiso   1.00
N133   N     0.36981   0.40418   0.56216   0.00000  Uiso   1.00
N134   N     0.81889   0.29802   0.81239   0.00000  Uiso   1.00
N135   N     0.25292   0.94652   0.29920   0.00000  Uiso   1.00
N136   N     0.41802   0.22999   0.62670   0.00000  Uiso   1.00
N137   N     0.86710   0.12383   0.87693   0.00000  Uiso   1.00
N138   N     0.30113   0.77233   0.36374   0.00000  Uiso   1.00
C139   C     0.81721   0.26552   0.38470   0.00000  Uiso   1.00
C140   C     0.75774   0.23646   0.36124   0.00000  Uiso   1.00
C141   C     0.76393   0.12619   0.38392   0.00000  Uiso   1.00
C142   C     0.70332   0.11780   0.35621   0.00000  Uiso   1.00
C143   C     0.62074   0.05768   0.32715   0.00000  Uiso   1.00
C144   C     0.74652   0.29045   0.29872   0.00000  Uiso   1.00
C145   C     0.74328   0.22558   0.26885   0.00000  Uiso   1.00
C146   C     0.67323   0.26267   0.18851   0.00000  Uiso   1.00
C147   C     0.57329   0.28643   0.06242   0.00000  Uiso   1.00
C148   C     0.86606   0.39382   0.43276   0.00000  Uiso   1.00
C149   C     0.96333   0.41588   0.51558   0.00000  Uiso   1.00
C150   C     0.99392   0.54001   0.54808   0.00000  Uiso   1.00
C151   C     0.07957   0.72427   0.63010   0.00000  Uiso   1.00
C152   C     0.69857   0.44674   0.29515   0.00000  Uiso   1.00
C153   C     0.69330   0.33489   0.31260   0.00000  Uiso   1.00
C154   C     0.63266   0.32668   0.28484   0.00000  Uiso   1.00
C155   C     0.63876   0.21641   0.30748   0.00000  Uiso   1.00
C156   C     0.68208   0.38888   0.25008   0.00000  Uiso   1.00
C157   C     0.61202   0.42608   0.16977   0.00000  Uiso   1.00
C158   C     0.60867   0.36128   0.13978   0.00000  Uiso   1.00
C159   C     0.80162   0.49226   0.38412   0.00000  Uiso   1.00
C160   C     0.83206   0.61637   0.41650   0.00000  Uiso   1.00
C161   C     0.92936   0.63862   0.49935   0.00000  Uiso   1.00
H162   H     0.86738   0.18889   0.42256   0.00000  Uiso   1.00
H163   H     0.81380   0.05003   0.42156   0.00000  Uiso   1.00
H164   H     0.79317   0.14942   0.30651   0.00000  Uiso   1.00
H165   H     0.01317   0.33969   0.55320   0.00000  Uiso   1.00
H166   H     0.72596   0.93946   0.39897   0.00000  Uiso   1.00
H167   H     0.68247   0.14907   0.15639   0.00000  Uiso   1.00
H168   H     0.14640   0.55028   0.67658   0.00000  Uiso   1.00
H169   H     0.64839   0.52337   0.25728   0.00000  Uiso   1.00
H170   H     0.58280   0.40287   0.24720   0.00000  Uiso   1.00
H171   H     0.56217   0.50226   0.13215   0.00000  Uiso   1.00
H172   H     0.78217   0.69252   0.37884   0.00000  Uiso   1.00
H173   H     0.53847   0.22584   0.25745   0.00000  Uiso   1.00
H174   H     0.49499   0.43545   0.01487   0.00000  Uiso   1.00
H175   H     0.95891   0.83666   0.53506   0.00000  Uiso   1.00
O176   O     0.59299   0.99732   0.32454   0.00000  Uiso   1.00
O177   O     0.53596   0.27234   0.00630   0.00000  Uiso   1.00
O178   O     0.14462   0.79871   0.68877   0.00000  Uiso   1.00
N179   N     0.69085   0.02341   0.36706   0.00000  Uiso   1.00
N180   N     0.65018   0.21937   0.14026   0.00000  Uiso   1.00
N181   N     0.08391   0.59447   0.62658   0.00000  Uiso   1.00
N182   N     0.58996   0.17751   0.29091   0.00000  Uiso   1.00
N183   N     0.54930   0.37346   0.06411   0.00000  Uiso   1.00
N184   N     0.98303   0.74857   0.55043   0.00000  Uiso   1.00
C185   C     0.15815   0.55197   0.57494   0.00000  Uiso   1.00
C186   C     0.22464   0.56453   0.60536   0.00000  Uiso   1.00
C187   C     0.23033   0.66972   0.59125   0.00000  Uiso   1.00
C188   C     0.29574   0.66257   0.62432   0.00000  Uiso   1.00
C189   C     0.39026   0.69860   0.66468   0.00000  Uiso   1.00
C190   C     0.22166   0.52497   0.65646   0.00000  Uiso   1.00
C191   C     0.22482   0.59689   0.68529   0.00000  Uiso   1.00
C192   C     0.28771   0.55641   0.76137   0.00000  Uiso   1.00
C193   C     0.37754   0.53098   0.88101   0.00000  Uiso   1.00
C194   C     0.10082   0.42952   0.52045   0.00000  Uiso   1.00
C195   C     0.00239   0.42117   0.43493   0.00000  Uiso   1.00
C196   C     0.96354   0.30033   0.39650   0.00000  Uiso   1.00
C197   C     0.86576   0.12670   0.30497   0.00000  Uiso   1.00
C198   C     0.26418   0.35221   0.65876   0.00000  Uiso   1.00
C199   C     0.28224   0.45603   0.65090   0.00000  Uiso   1.00
C200   C     0.34765   0.44871   0.68399   0.00000  Uiso   1.00
C201   C     0.35344   0.55387   0.66993   0.00000  Uiso   1.00
C202   C     0.27925   0.41647   0.70199   0.00000  Uiso   1.00
C203   C     0.34214   0.37588   0.77803   0.00000  Uiso   1.00
C204   C     0.34540   0.44772   0.80698   0.00000  Uiso   1.00
C205   C     0.15842   0.32102   0.56598   0.00000  Uiso   1.00
C206   C     0.11971   0.20017   0.52767   0.00000  Uiso   1.00
C207   C     0.02124   0.19164   0.44212   0.00000  Uiso   1.00
H208   H     0.11331   0.63644   0.53950   0.00000  Uiso   1.00
H209   H     0.18576   0.75367   0.55602   0.00000  Uiso   1.00
H210   H     0.18024   0.68084   0.65004   0.00000  Uiso   1.00
H211   H     0.95784   0.50515   0.39972   0.00000  Uiso   1.00
H212   H     0.29150   0.83582   0.59445   0.00000  Uiso   1.00
H213   H     0.27984   0.68222   0.79268   0.00000  Uiso   1.00
H214   H     0.81087   0.31175   0.26483   0.00000  Uiso   1.00
H215   H     0.30903   0.26774   0.69421   0.00000  Uiso   1.00
H216   H     0.39221   0.36474   0.71922   0.00000  Uiso   1.00
H217   H     0.38669   0.29191   0.81324   0.00000  Uiso   1.00
H218   H     0.16430   0.11622   0.56293   0.00000  Uiso   1.00
H219   H     0.45907   0.52015   0.72691   0.00000  Uiso   1.00
H220   H     0.44740   0.36654   0.92514   0.00000  Uiso   1.00
H221   H     0.97844   0.99608   0.39729   0.00000  Uiso   1.00
O222   O     0.42649   0.74846   0.67437   0.00000  Uiso   1.00
O223   O     0.41118   0.54693   0.93442   0.00000  Uiso   1.00
O224   O     0.79591   0.06090   0.24190   0.00000  Uiso   1.00
N225   N     0.31951   0.74820   0.62217   0.00000  Uiso   1.00
N226   N     0.30862   0.60461   0.80751   0.00000  Uiso   1.00
N227   N     0.87017   0.25825   0.31403   0.00000  Uiso   1.00
N228   N     0.40967   0.57834   0.69345   0.00000  Uiso   1.00
N229   N     0.39878   0.43475   0.87879   0.00000  Uiso   1.00
N230   N     0.96034   0.08839   0.38531   0.00000  Uiso   1.00
C231   C     0.49694   0.96307   0.41848   0.00000  Uiso   1.00
C232   C     0.52531   0.93734   0.41053   0.00000  Uiso   1.00
C233   C     0.57264   0.82900   0.44090   0.00000  Uiso   1.00
C234   C     0.59211   0.82359   0.42725   0.00000  Uiso   1.00
C235   C     0.64022   0.76848   0.42134   0.00000  Uiso   1.00
C236   C     0.38981   0.98551   0.32601   0.00000  Uiso   1.00
C237   C     0.32322   0.91767   0.28533   0.00000  Uiso   1.00
C238   C     0.22862   0.95281   0.20053   0.00000  Uiso   1.00
C239   C     0.06636   0.97254   0.06342   0.00000  Uiso   1.00
C240   C     0.54171   0.09180   0.46525   0.00000  Uiso   1.00
C241   C     0.60282   0.11335   0.54164   0.00000  Uiso   1.00
C242   C     0.63609   0.23799   0.57407   0.00000  Uiso   1.00
C243   C     0.70969   0.42276   0.65316   0.00000  Uiso   1.00
C244   C     0.44736   0.14611   0.34022   0.00000  Uiso   1.00
C245   C     0.49838   0.03677   0.36802   0.00000  Uiso   1.00
C246   C     0.51778   0.03152   0.35432   0.00000  Uiso   1.00
C247   C     0.56513   0.92319   0.38467   0.00000  Uiso   1.00
C248   C     0.36288   0.08492   0.28350   0.00000  Uiso   1.00
C249   C     0.26836   0.12018   0.19875   0.00000  Uiso   1.00
C250   C     0.20164   0.05241   0.15795   0.00000  Uiso   1.00
C251   C     0.51478   0.19122   0.42275   0.00000  Uiso   1.00
C252   C     0.54796   0.31586   0.45506   0.00000  Uiso   1.00
C253   C     0.60911   0.33759   0.53148   0.00000  Uiso   1.00
H254   H     0.51790   0.88567   0.45156   0.00000  Uiso   1.00
H255   H     0.59346   0.75208   0.47379   0.00000  Uiso   1.00
H256   H     0.34408   0.84074   0.31824   0.00000  Uiso   1.00
H257   H     0.62364   0.03639   0.57451   0.00000  Uiso   1.00
H258   H     0.66533   0.64779   0.47965   0.00000  Uiso   1.00
H259   H     0.13949   0.83477   0.15169   0.00000  Uiso   1.00
H260   H     0.72900   0.24733   0.69209   0.00000  Uiso   1.00
H261   H     0.42638   0.22352   0.30713   0.00000  Uiso   1.00
H262   H     0.49693   0.10847   0.32143   0.00000  Uiso   1.00
H263   H     0.24754   0.19713   0.16588   0.00000  Uiso   1.00
H264   H     0.52710   0.39277   0.42215   0.00000  Uiso   1.00
H265   H     0.58697   0.93704   0.35599   0.00000  Uiso   1.00
H266   H     0.06113   0.12403   0.02802   0.00000  Uiso   1.00
H267   H     0.65065   0.53658   0.56842   0.00000  Uiso   1.00
O268   O     0.67418   0.71062   0.42981   0.00000  Uiso   1.00
O269   O     0.98431   0.95594   0.99954   0.00000  Uiso   1.00
O270   O     0.75773   0.49720   0.70853   0.00000  Uiso   1.00
N271   N     0.63722   0.73167   0.44860   0.00000  Uiso   1.00
N272   N     0.14560   0.90647   0.14197   0.00000  Uiso   1.00
N273   N     0.69672   0.29218   0.64718   0.00000  Uiso   1.00
N274   N     0.59506   0.88731   0.38206   0.00000  Uiso   1.00
N275   N     0.10343   0.06211   0.07543   0.00000  Uiso   1.00
N276   N     0.65456   0.44783   0.58064   0.00000  Uiso   1.00
C277   C     0.47625   0.76843   0.05221   0.00000  Uiso   1.00
C278   C     0.45868   0.76344   0.07071   0.00000  Uiso   1.00
C279   C     0.41707   0.66220   0.05033   0.00000  Uiso   1.00
C280   C     0.40733   0.67617   0.07266   0.00000  Uiso   1.00
C281   C     0.37541   0.65147   0.09516   0.00000  Uiso   1.00
C282   C     0.58246   0.79268   0.13968   0.00000  Uiso   1.00
C283   C     0.64491   0.71604   0.17729   0.00000  Uiso   1.00
C284   C     0.73937   0.75465   0.25768   0.00000  Uiso   1.00
C285   C     0.89960   0.77540   0.38723   0.00000  Uiso   1.00
C286   C     0.42647   0.88955   0.99824   0.00000  Uiso   1.00
C287   C     0.35778   0.89436   0.91693   0.00000  Uiso   1.00
C288   C     0.32092   0.01454   0.87825   0.00000  Uiso   1.00
C289   C     0.23895   0.18568   0.78819   0.00000  Uiso   1.00
C290   C     0.53295   0.97328   0.12810   0.00000  Uiso   1.00
C291   C     0.48948   0.87470   0.11194   0.00000  Uiso   1.00
C292   C     0.47980   0.88884   0.13430   0.00000  Uiso   1.00
C293   C     0.43817   0.78764   0.11395   0.00000  Uiso   1.00
C294   C     0.61326   0.90394   0.18091   0.00000  Uiso   1.00
C295   C     0.70764   0.94268   0.26126   0.00000  Uiso   1.00
C296   C     0.77022   0.86612   0.29898   0.00000  Uiso   1.00
C297   C     0.45726   0.00082   0.03947   0.00000  Uiso   1.00
C298   C     0.42050   0.12100   0.00090   0.00000  Uiso   1.00
C299   C     0.35177   0.12600   0.91955   0.00000  Uiso   1.00
H300   H     0.45228   0.68180   0.02011   0.00000  Uiso   1.00
H301   H     0.39325   0.57610   0.01843   0.00000  Uiso   1.00
H302   H     0.62106   0.62995   0.14536   0.00000  Uiso   1.00
H303   H     0.33397   0.80824   0.88505   0.00000  Uiso   1.00
H304   H     0.34143   0.50796   0.03477   0.00000  Uiso   1.00
H305   H     0.82176   0.62152   0.30241   0.00000  Uiso   1.00
H306   H     0.21637   0.99748   0.75348   0.00000  Uiso   1.00
H307   H     0.55692   0.05991   0.16020   0.00000  Uiso   1.00
H308   H     0.50363   0.97496   0.16620   0.00000  Uiso   1.00
H309   H     0.73144   0.02880   0.29314   0.00000  Uiso   1.00
H310   H     0.44435   0.20709   0.03283   0.00000  Uiso   1.00
H311   H     0.43102   0.83168   0.15472   0.00000  Uiso   1.00
H312   H     0.91135   0.94524   0.42235   0.00000  Uiso   1.00
H313   H     0.30596   0.32121   0.87342   0.00000  Uiso   1.00
O314   O     0.34931   0.60710   0.09619   0.00000  Uiso   1.00
O315   O     0.97948   0.75609   0.44730   0.00000  Uiso   1.00
O316   O     0.18522   0.24935   0.72713   0.00000  Uiso   1.00
N317   N     0.36981   0.59582   0.06216   0.00000  Uiso   1.00
N318   N     0.81889   0.70198   0.31239   0.00000  Uiso   1.00
N319   N     0.25292   0.05348   0.79920   0.00000  Uiso   1.00
N320   N     0.41802   0.77001   0.12670   0.00000  Uiso   1.00
N321   N     0.86710   0.87617   0.37693   0.00000  Uiso   1.00
N322   N     0.30113   0.22767   0.86374   0.00000  Uiso   1.00
C323   C     0.81721   0.73448   0.88470   0.00000  Uiso   1.00
C324   C     0.75774   0.76354   0.86124   0.00000  Uiso   1.00
C325   C     0.76393   0.87381   0.88392   0.00000  Uiso   1.00
C326   C     0.70332   0.88220   0.85621   0.00000  Uiso   1.00
C327   C     0.62074   0.94232   0.82715   0.00000  Uiso   1.00
C328   C     0.74652   0.70955   0.79872   0.00000  Uiso   1.00
C329   C     0.74328   0.77442   0.76885   0.00000  Uiso   1.00
C330   C     0.67323   0.73733   0.68851   0.00000  Uiso   1.00
C331   C     0.57329   0.71357   0.56242   0.00000  Uiso   1.00
C332   C     0.86606   0.60618   0.93276   0.00000  Uiso   1.00
C333   C     0.96333   0.58412   0.01558   0.00000  Uiso   1.00
C334   C     0.99392   0.45999   0.04808   0.00000  Uiso   1.00
C335   C     0.07957   0.27573   0.13010   0.00000  Uiso   1.00
C336   C     0.69857   0.55326   0.79515   0.00000  Uiso   1.00
C337   C     0.69330   0.66511   0.81260   0.00000  Uiso   1.00
C338   C     0.63266   0.67332   0.78484   0.00000  Uiso   1.00
C339   C     0.63876   0.78359   0.80748   0.00000  Uiso   1.00
C340   C     0.68208   0.61112   0.75008   0.00000  Uiso   1.00
C341   C     0.61202   0.57392   0.66977   0.00000  Uiso   1.00
C342   C     0.60867   0.63872   0.63978   0.00000  Uiso   1.00
C343   C     0.80162   0.50774   0.88412   0.00000  Uiso   1.00
C344   C     0.83206   0.38363   0.91650   0.00000  Uiso   1.00
C345   C     0.92936   0.36138   0.99935   0.00000  Uiso   1.00
H346   H     0.86738   0.81111   0.92256   0.00000  Uiso   1.00
H347   H     0.81380   0.94997   0.92156   0.00000  Uiso   1.00
H348   H     0.79317   0.85058   0.80651   0.00000  Uiso   1.00
H349   H     0.01317   0.66031   0.05320   0.00000  Uiso   1.00
H350   H     0.72596   0.06054   0.89897   0.00000  Uiso   1.00
H351   H     0.68247   0.85093   0.65639   0.00000  Uiso   1.00
H352   H     0.14640   0.44972   0.17658   0.00000  Uiso   1.00
H353   H     0.64839   0.47663   0.75728   0.00000  Uiso   1.00
H354   H     0.58280   0.59713   0.74720   0.00000  Uiso   1.00
H355   H     0.56217   0.49774   0.63215   0.00000  Uiso   1.00
H356   H     0.78217   0.30748   0.87884   0.00000  Uiso   1.00
H357   H     0.53847   0.77416   0.75745   0.00000  Uiso   1.00
H358   H     0.49499   0.56455   0.51487   0.00000  Uiso   1.00
H359   H     0.95891   0.16334   0.03506   0.00000  Uiso   1.00
O360   O     0.59299   0.00268   0.82454   0.00000  Uiso   1.00
O361   O     0.53596   0.72766   0.50630   0.00000  Uiso   1.00
O362   O     0.14462   0.20129   0.18877   0.00000  Uiso   1.00
N363   N     0.69085   0.97659   0.86706   0.00000  Uiso   1.00
N364   N     0.65018   0.78063   0.64026   0.00000  Uiso   1.00
N365   N     0.08392   0.40553   0.12658   0.00000  Uiso   1.00
N366   N     0.58996   0.82249   0.79091   0.00000  Uiso   1.00
N367   N     0.54930   0.62654   0.56411   0.00000  Uiso   1.00
N368   N     0.98303   0.25143   0.05043   0.00000  Uiso   1.00
