data_job_00676
_audit_creation_date              2018-12-19
_audit_creation_method            'Materials Studio'
_symmetry_space_group_name_H-M    'P1'
_symmetry_Int_Tables_number       1
_symmetry_cell_setting            triclinic
loop_
_symmetry_equiv_pos_as_xyz
  x,y,z
_cell_length_a                    11.4236
_cell_length_b                    22.0617
_cell_length_c                    11.0164
_cell_angle_alpha                 90.0000
_cell_angle_beta                  113.2980
_cell_angle_gamma                 90.0000
loop_
_atom_site_label
_atom_site_type_symbol
_atom_site_fract_x
_atom_site_fract_y
_atom_site_fract_z
_atom_site_U_iso_or_equiv
_atom_site_adp_type
_atom_site_occupancy
C1     C     0.08836   0.41999   0.20438   0.00000  Uiso   1.00
C2     C     0.05811   0.40923   0.05830   0.00000  Uiso   1.00
C3     C     0.96309   0.43803   0.95335   0.00000  Uiso   1.00
C4     C     0.95066   0.42187   0.82703   0.00000  Uiso   1.00
C5     C     0.89151   0.41175   0.60332   0.00000  Uiso   1.00
C6     C     0.07890   0.35822   0.26197   0.00000  Uiso   1.00
C7     C     0.00138   0.34413   0.32827   0.00000  Uiso   1.00
C8     C     0.00647   0.28503   0.37341   0.00000  Uiso   1.00
C9     C     0.97968   0.19572   0.46599   0.00000  Uiso   1.00
C10    C     0.22871   0.43775   0.26701   0.00000  Uiso   1.00
C11    C     0.27715   0.49053   0.33759   0.00000  Uiso   1.00
C12    C     0.40837   0.49838   0.38700   0.00000  Uiso   1.00
C13    C     0.61417   0.53256   0.48741   0.00000  Uiso   1.00
C14    C     0.23525   0.34008   0.16666   0.00000  Uiso   1.00
C15    C     0.13790   0.36583   0.03782   0.00000  Uiso   1.00
C16    C     0.12561   0.34962   0.91162   0.00000  Uiso   1.00
C17    C     0.03059   0.37839   0.80650   0.00000  Uiso   1.00
C18    C     0.15868   0.31482   0.24148   0.00000  Uiso   1.00
C19    C     0.16390   0.25573   0.28654   0.00000  Uiso   1.00
C20    C     0.08639   0.24155   0.35289   0.00000  Uiso   1.00
C21    C     0.30850   0.39435   0.24652   0.00000  Uiso   1.00
C22    C     0.43967   0.40212   0.29585   0.00000  Uiso   1.00
C23    C     0.48830   0.45490   0.36648   0.00000  Uiso   1.00
H24    H     0.02624   0.45377   0.22033   0.00000  Uiso   1.00
H25    H     0.90136   0.47161   0.96925   0.00000  Uiso   1.00
H26    H     0.93966   0.37773   0.34412   0.00000  Uiso   1.00
H27    H     0.21538   0.52410   0.35342   0.00000  Uiso   1.00
H28    H     0.79806   0.47223   0.68184   0.00000  Uiso   1.00
H29    H     0.87884   0.27428   0.47232   0.00000  Uiso   1.00
H30    H     0.46026   0.58293   0.49194   0.00000  Uiso   1.00
H31    H     0.29737   0.30629   0.15071   0.00000  Uiso   1.00
H32    H     0.18736   0.31604   0.89580   0.00000  Uiso   1.00
H33    H     0.22565   0.22215   0.27067   0.00000  Uiso   1.00
H34    H     0.50138   0.36853   0.27997   0.00000  Uiso   1.00
H35    H     0.03019   0.34596   0.62222   0.00000  Uiso   1.00
H36    H     0.11097   0.14801   0.41271   0.00000  Uiso   1.00
H37    H     0.69239   0.45666   0.43233   0.00000  Uiso   1.00
O38    O     0.83684   0.41815   0.48560   0.00000  Uiso   1.00
O39    O     0.94284   0.15845   0.52270   0.00000  Uiso   1.00
O40    O     0.70565   0.56340   0.54843   0.00000  Uiso   1.00
N41    N     0.86780   0.44118   0.70279   0.00000  Uiso   1.00
N42    N     0.94331   0.25611   0.44183   0.00000  Uiso   1.00
N43    N     0.48690   0.54467   0.46020   0.00000  Uiso   1.00
N44    N     0.99271   0.37324   0.67071   0.00000  Uiso   1.00
N45    N     0.06822   0.18816   0.40975   0.00000  Uiso   1.00
N46    N     0.61181   0.47672   0.42812   0.00000  Uiso   1.00
C47    C     0.58836   0.91999   0.20438   0.00000  Uiso   1.00
C48    C     0.55811   0.90923   0.05830   0.00000  Uiso   1.00
C49    C     0.46309   0.93803   0.95335   0.00000  Uiso   1.00
C50    C     0.45066   0.92187   0.82703   0.00000  Uiso   1.00
C51    C     0.39151   0.91175   0.60332   0.00000  Uiso   1.00
C52    C     0.57890   0.85822   0.26197   0.00000  Uiso   1.00
C53    C     0.50138   0.84413   0.32827   0.00000  Uiso   1.00
C54    C     0.50647   0.78503   0.37341   0.00000  Uiso   1.00
C55    C     0.47968   0.69572   0.46599   0.00000  Uiso   1.00
C56    C     0.72871   0.93775   0.26701   0.00000  Uiso   1.00
C57    C     0.77715   0.99053   0.33759   0.00000  Uiso   1.00
C58    C     0.90837   0.99838   0.38700   0.00000  Uiso   1.00
C59    C     0.11417   0.03256   0.48741   0.00000  Uiso   1.00
C60    C     0.73525   0.84008   0.16666   0.00000  Uiso   1.00
C61    C     0.63790   0.86583   0.03782   0.00000  Uiso   1.00
C62    C     0.62561   0.84962   0.91162   0.00000  Uiso   1.00
C63    C     0.53059   0.87839   0.80650   0.00000  Uiso   1.00
C64    C     0.65868   0.81482   0.24148   0.00000  Uiso   1.00
C65    C     0.66390   0.75573   0.28654   0.00000  Uiso   1.00
C66    C     0.58639   0.74155   0.35289   0.00000  Uiso   1.00
C67    C     0.80850   0.89435   0.24652   0.00000  Uiso   1.00
C68    C     0.93967   0.90212   0.29585   0.00000  Uiso   1.00
C69    C     0.98830   0.95490   0.36648   0.00000  Uiso   1.00
H70    H     0.52624   0.95377   0.22033   0.00000  Uiso   1.00
H71    H     0.40136   0.97161   0.96925   0.00000  Uiso   1.00
H72    H     0.43966   0.87773   0.34412   0.00000  Uiso   1.00
H73    H     0.71538   0.02410   0.35342   0.00000  Uiso   1.00
H74    H     0.29806   0.97223   0.68184   0.00000  Uiso   1.00
H75    H     0.37884   0.77428   0.47232   0.00000  Uiso   1.00
H76    H     0.96026   0.08293   0.49194   0.00000  Uiso   1.00
H77    H     0.79737   0.80629   0.15071   0.00000  Uiso   1.00
H78    H     0.68736   0.81604   0.89580   0.00000  Uiso   1.00
H79    H     0.72565   0.72215   0.27067   0.00000  Uiso   1.00
H80    H     0.00138   0.86853   0.27997   0.00000  Uiso   1.00
H81    H     0.53019   0.84596   0.62222   0.00000  Uiso   1.00
H82    H     0.61097   0.64801   0.41271   0.00000  Uiso   1.00
H83    H     0.19239   0.95666   0.43233   0.00000  Uiso   1.00
O84    O     0.33684   0.91815   0.48560   0.00000  Uiso   1.00
O85    O     0.44284   0.65845   0.52270   0.00000  Uiso   1.00
O86    O     0.20565   0.06340   0.54843   0.00000  Uiso   1.00
N87    N     0.36780   0.94118   0.70279   0.00000  Uiso   1.00
N88    N     0.44331   0.75611   0.44183   0.00000  Uiso   1.00
N89    N     0.98690   0.04467   0.46020   0.00000  Uiso   1.00
N90    N     0.49271   0.87324   0.67071   0.00000  Uiso   1.00
N91    N     0.56822   0.68816   0.40975   0.00000  Uiso   1.00
N92    N     0.11181   0.97672   0.42812   0.00000  Uiso   1.00
C93    C     0.08836   0.58001   0.70438   0.00000  Uiso   1.00
C94    C     0.05811   0.59077   0.55830   0.00000  Uiso   1.00
C95    C     0.96309   0.56197   0.45335   0.00000  Uiso   1.00
C96    C     0.95066   0.57813   0.32703   0.00000  Uiso   1.00
C97    C     0.89151   0.58825   0.10332   0.00000  Uiso   1.00
C98    C     0.07890   0.64178   0.76197   0.00000  Uiso   1.00
C99    C     0.00138   0.65587   0.82827   0.00000  Uiso   1.00
C100   C     0.00647   0.71497   0.87341   0.00000  Uiso   1.00
C101   C     0.97968   0.80428   0.96599   0.00000  Uiso   1.00
C102   C     0.22871   0.56225   0.76701   0.00000  Uiso   1.00
C103   C     0.27715   0.50947   0.83759   0.00000  Uiso   1.00
C104   C     0.40837   0.50162   0.88700   0.00000  Uiso   1.00
C105   C     0.61417   0.46744   0.98741   0.00000  Uiso   1.00
C106   C     0.23525   0.65992   0.66666   0.00000  Uiso   1.00
C107   C     0.13790   0.63417   0.53782   0.00000  Uiso   1.00
C108   C     0.12561   0.65038   0.41162   0.00000  Uiso   1.00
C109   C     0.03059   0.62161   0.30650   0.00000  Uiso   1.00
C110   C     0.15868   0.68518   0.74148   0.00000  Uiso   1.00
C111   C     0.16390   0.74427   0.78654   0.00000  Uiso   1.00
C112   C     0.08639   0.75845   0.85289   0.00000  Uiso   1.00
C113   C     0.30850   0.60565   0.74652   0.00000  Uiso   1.00
C114   C     0.43967   0.59788   0.79585   0.00000  Uiso   1.00
C115   C     0.48830   0.54510   0.86648   0.00000  Uiso   1.00
H116   H     0.02624   0.54623   0.72033   0.00000  Uiso   1.00
H117   H     0.90136   0.52839   0.46925   0.00000  Uiso   1.00
H118   H     0.93966   0.62227   0.84412   0.00000  Uiso   1.00
H119   H     0.21538   0.47590   0.85342   0.00000  Uiso   1.00
H120   H     0.79806   0.52777   0.18184   0.00000  Uiso   1.00
H121   H     0.87884   0.72572   0.97232   0.00000  Uiso   1.00
H122   H     0.46026   0.41707   0.99194   0.00000  Uiso   1.00
H123   H     0.29737   0.69371   0.65071   0.00000  Uiso   1.00
H124   H     0.18736   0.68396   0.39580   0.00000  Uiso   1.00
H125   H     0.22565   0.77785   0.77067   0.00000  Uiso   1.00
H126   H     0.50138   0.63147   0.77997   0.00000  Uiso   1.00
H127   H     0.03019   0.65404   0.12222   0.00000  Uiso   1.00
H128   H     0.11097   0.85199   0.91271   0.00000  Uiso   1.00
H129   H     0.69239   0.54334   0.93233   0.00000  Uiso   1.00
O130   O     0.83684   0.58185   0.98560   0.00000  Uiso   1.00
O131   O     0.94284   0.84155   0.02270   0.00000  Uiso   1.00
O132   O     0.70565   0.43660   0.04843   0.00000  Uiso   1.00
N133   N     0.86780   0.55882   0.20279   0.00000  Uiso   1.00
N134   N     0.94331   0.74389   0.94183   0.00000  Uiso   1.00
N135   N     0.48690   0.45533   0.96020   0.00000  Uiso   1.00
N136   N     0.99271   0.62676   0.17071   0.00000  Uiso   1.00
N137   N     0.06822   0.81184   0.90975   0.00000  Uiso   1.00
N138   N     0.61181   0.52328   0.92812   0.00000  Uiso   1.00
C139   C     0.58836   0.08001   0.70438   0.00000  Uiso   1.00
C140   C     0.55811   0.09077   0.55830   0.00000  Uiso   1.00
C141   C     0.46309   0.06197   0.45335   0.00000  Uiso   1.00
C142   C     0.45066   0.07813   0.32703   0.00000  Uiso   1.00
C143   C     0.39151   0.08825   0.10332   0.00000  Uiso   1.00
C144   C     0.57890   0.14178   0.76197   0.00000  Uiso   1.00
C145   C     0.50138   0.15587   0.82827   0.00000  Uiso   1.00
C146   C     0.50647   0.21497   0.87341   0.00000  Uiso   1.00
C147   C     0.47968   0.30428   0.96599   0.00000  Uiso   1.00
C148   C     0.72871   0.06225   0.76701   0.00000  Uiso   1.00
C149   C     0.77715   0.00947   0.83759   0.00000  Uiso   1.00
C150   C     0.90837   0.00162   0.88700   0.00000  Uiso   1.00
C151   C     0.11417   0.96744   0.98741   0.00000  Uiso   1.00
C152   C     0.73525   0.15992   0.66666   0.00000  Uiso   1.00
C153   C     0.63790   0.13417   0.53782   0.00000  Uiso   1.00
C154   C     0.62561   0.15038   0.41162   0.00000  Uiso   1.00
C155   C     0.53059   0.12161   0.30650   0.00000  Uiso   1.00
C156   C     0.65868   0.18518   0.74148   0.00000  Uiso   1.00
C157   C     0.66390   0.24427   0.78654   0.00000  Uiso   1.00
C158   C     0.58639   0.25845   0.85289   0.00000  Uiso   1.00
C159   C     0.80850   0.10565   0.74652   0.00000  Uiso   1.00
C160   C     0.93967   0.09788   0.79585   0.00000  Uiso   1.00
C161   C     0.98830   0.04510   0.86648   0.00000  Uiso   1.00
H162   H     0.52624   0.04623   0.72033   0.00000  Uiso   1.00
H163   H     0.40136   0.02839   0.46925   0.00000  Uiso   1.00
H164   H     0.43966   0.12227   0.84412   0.00000  Uiso   1.00
H165   H     0.71538   0.97590   0.85342   0.00000  Uiso   1.00
H166   H     0.29806   0.02777   0.18184   0.00000  Uiso   1.00
H167   H     0.37884   0.22572   0.97232   0.00000  Uiso   1.00
H168   H     0.96026   0.91707   0.99194   0.00000  Uiso   1.00
H169   H     0.79737   0.19371   0.65071   0.00000  Uiso   1.00
H170   H     0.68736   0.18396   0.39580   0.00000  Uiso   1.00
H171   H     0.72565   0.27785   0.77067   0.00000  Uiso   1.00
H172   H     0.00138   0.13147   0.77997   0.00000  Uiso   1.00
H173   H     0.53019   0.15404   0.12222   0.00000  Uiso   1.00
H174   H     0.61097   0.35199   0.91271   0.00000  Uiso   1.00
H175   H     0.19239   0.04334   0.93233   0.00000  Uiso   1.00
O176   O     0.33684   0.08185   0.98560   0.00000  Uiso   1.00
O177   O     0.44284   0.34155   0.02270   0.00000  Uiso   1.00
O178   O     0.20565   0.93660   0.04843   0.00000  Uiso   1.00
N179   N     0.36780   0.05882   0.20279   0.00000  Uiso   1.00
N180   N     0.44331   0.24389   0.94183   0.00000  Uiso   1.00
N181   N     0.98690   0.95533   0.96020   0.00000  Uiso   1.00
N182   N     0.49271   0.12676   0.17071   0.00000  Uiso   1.00
N183   N     0.56822   0.31184   0.90975   0.00000  Uiso   1.00
N184   N     0.11181   0.02328   0.92812   0.00000  Uiso   1.00
