data_job_02412
_audit_creation_date              2018-12-19
_audit_creation_method            'Materials Studio'
_symmetry_space_group_name_H-M    'P1'
_symmetry_Int_Tables_number       1
_symmetry_cell_setting            triclinic
loop_
_symmetry_equiv_pos_as_xyz
  x,y,z
_cell_length_a                    12.3970
_cell_length_b                    19.3405
_cell_length_c                    10.0283
_cell_angle_alpha                 90.0000
_cell_angle_beta                  92.1876
_cell_angle_gamma                 90.0000
loop_
_atom_site_label
_atom_site_type_symbol
_atom_site_fract_x
_atom_site_fract_y
_atom_site_fract_z
_atom_site_U_iso_or_equiv
_atom_site_adp_type
_atom_site_occupancy
C1     C     0.67816   0.90603   0.58365   0.00000  Uiso   1.00
C2     C     0.59863   0.84686   0.60108   0.00000  Uiso   1.00
C3     C     0.50712   0.84915   0.67646   0.00000  Uiso   1.00
C4     C     0.44480   0.78957   0.67976   0.00000  Uiso   1.00
C5     C     0.31705   0.70675   0.71746   0.00000  Uiso   1.00
C6     C     0.78864   0.87793   0.62835   0.00000  Uiso   1.00
C7     C     0.85689   0.90635   0.72666   0.00000  Uiso   1.00
C8     C     0.95453   0.87294   0.75291   0.00000  Uiso   1.00
C9     C     0.12180   0.83839   0.83288   0.00000  Uiso   1.00
C10    C     0.68288   0.91801   0.43370   0.00000  Uiso   1.00
C11    C     0.66223   0.98014   0.36833   0.00000  Uiso   1.00
C12    C     0.67085   0.98047   0.23069   0.00000  Uiso   1.00
C13    C     0.67391   0.00815   0.00844   0.00000  Uiso   1.00
C14    C     0.73021   0.79616   0.45547   0.00000  Uiso   1.00
C15    C     0.62691   0.78718   0.53146   0.00000  Uiso   1.00
C16    C     0.56471   0.72759   0.53464   0.00000  Uiso   1.00
C17    C     0.47312   0.72979   0.61001   0.00000  Uiso   1.00
C18    C     0.81692   0.81826   0.55874   0.00000  Uiso   1.00
C19    C     0.91448   0.78479   0.58484   0.00000  Uiso   1.00
C20    C     0.98286   0.81315   0.68316   0.00000  Uiso   1.00
C21    C     0.71115   0.85833   0.36407   0.00000  Uiso   1.00
C22    C     0.71982   0.85857   0.22651   0.00000  Uiso   1.00
C23    C     0.69918   0.92068   0.16095   0.00000  Uiso   1.00
H24    H     0.65616   0.95250   0.63786   0.00000  Uiso   1.00
H25    H     0.48528   0.89534   0.73034   0.00000  Uiso   1.00
H26    H     0.83500   0.95254   0.78051   0.00000  Uiso   1.00
H27    H     0.64036   0.02631   0.42224   0.00000  Uiso   1.00
H28    H     0.30831   0.80564   0.80220   0.00000  Uiso   1.00
H29    H     0.04573   0.92627   0.90796   0.00000  Uiso   1.00
H30    H     0.63531   0.08183   0.15248   0.00000  Uiso   1.00
H31    H     0.75223   0.74970   0.40126   0.00000  Uiso   1.00
H32    H     0.58661   0.68141   0.48075   0.00000  Uiso   1.00
H33    H     0.93633   0.73861   0.53093   0.00000  Uiso   1.00
H34    H     0.74170   0.81238   0.17267   0.00000  Uiso   1.00
H35    H     0.39056   0.63201   0.59963   0.00000  Uiso   1.00
H36    H     0.12799   0.75264   0.70539   0.00000  Uiso   1.00
H37    H     0.71756   0.90819   0.94992   0.00000  Uiso   1.00
O38    O     0.23878   0.67756   0.75751   0.00000  Uiso   1.00
O39    O     0.20625   0.83582   0.89625   0.00000  Uiso   1.00
O40    O     0.66778   0.03991   0.90508   0.00000  Uiso   1.00
N41    N     0.35039   0.77416   0.74359   0.00000  Uiso   1.00
N42    N     0.03982   0.88693   0.84249   0.00000  Uiso   1.00
N43    N     0.65614   0.03236   0.13619   0.00000  Uiso   1.00
N44    N     0.39464   0.68073   0.63459   0.00000  Uiso   1.00
N45    N     0.08408   0.79350   0.73349   0.00000  Uiso   1.00
N46    N     0.70040   0.93893   0.02719   0.00000  Uiso   1.00
C47    C     0.32184   0.40603   0.91635   0.00000  Uiso   1.00
C48    C     0.40137   0.34686   0.89892   0.00000  Uiso   1.00
C49    C     0.49288   0.34915   0.82354   0.00000  Uiso   1.00
C50    C     0.55520   0.28957   0.82024   0.00000  Uiso   1.00
C51    C     0.68295   0.20675   0.78254   0.00000  Uiso   1.00
C52    C     0.21136   0.37793   0.87165   0.00000  Uiso   1.00
C53    C     0.14311   0.40635   0.77334   0.00000  Uiso   1.00
C54    C     0.04547   0.37294   0.74709   0.00000  Uiso   1.00
C55    C     0.87820   0.33839   0.66712   0.00000  Uiso   1.00
C56    C     0.31712   0.41801   0.06630   0.00000  Uiso   1.00
C57    C     0.33777   0.48014   0.13167   0.00000  Uiso   1.00
C58    C     0.32915   0.48047   0.26931   0.00000  Uiso   1.00
C59    C     0.32609   0.50815   0.49156   0.00000  Uiso   1.00
C60    C     0.26979   0.29616   0.04453   0.00000  Uiso   1.00
C61    C     0.37309   0.28718   0.96854   0.00000  Uiso   1.00
C62    C     0.43529   0.22759   0.96536   0.00000  Uiso   1.00
C63    C     0.52688   0.22979   0.88999   0.00000  Uiso   1.00
C64    C     0.18308   0.31826   0.94126   0.00000  Uiso   1.00
C65    C     0.08552   0.28479   0.91516   0.00000  Uiso   1.00
C66    C     0.01714   0.31315   0.81684   0.00000  Uiso   1.00
C67    C     0.28885   0.35833   0.13593   0.00000  Uiso   1.00
C68    C     0.28018   0.35857   0.27349   0.00000  Uiso   1.00
C69    C     0.30082   0.42068   0.33905   0.00000  Uiso   1.00
H70    H     0.34384   0.45250   0.86214   0.00000  Uiso   1.00
H71    H     0.51472   0.39534   0.76966   0.00000  Uiso   1.00
H72    H     0.16500   0.45254   0.71949   0.00000  Uiso   1.00
H73    H     0.35964   0.52631   0.07776   0.00000  Uiso   1.00
H74    H     0.69169   0.30564   0.69780   0.00000  Uiso   1.00
H75    H     0.95427   0.42627   0.59204   0.00000  Uiso   1.00
H76    H     0.36469   0.58183   0.34752   0.00000  Uiso   1.00
H77    H     0.24777   0.24970   0.09874   0.00000  Uiso   1.00
H78    H     0.41339   0.18141   0.01925   0.00000  Uiso   1.00
H79    H     0.06367   0.23861   0.96907   0.00000  Uiso   1.00
H80    H     0.25830   0.31238   0.32733   0.00000  Uiso   1.00
H81    H     0.60944   0.13201   0.90037   0.00000  Uiso   1.00
H82    H     0.87201   0.25264   0.79461   0.00000  Uiso   1.00
H83    H     0.28244   0.40819   0.55008   0.00000  Uiso   1.00
O84    O     0.76122   0.17756   0.74249   0.00000  Uiso   1.00
O85    O     0.79375   0.33582   0.60375   0.00000  Uiso   1.00
O86    O     0.33222   0.53991   0.59492   0.00000  Uiso   1.00
N87    N     0.64961   0.27416   0.75641   0.00000  Uiso   1.00
N88    N     0.96018   0.38693   0.65751   0.00000  Uiso   1.00
N89    N     0.34386   0.53236   0.36381   0.00000  Uiso   1.00
N90    N     0.60536   0.18073   0.86541   0.00000  Uiso   1.00
N91    N     0.91592   0.29350   0.76651   0.00000  Uiso   1.00
N92    N     0.29960   0.43893   0.47281   0.00000  Uiso   1.00
C93    C     0.32184   0.09397   0.41635   0.00000  Uiso   1.00
C94    C     0.40137   0.15314   0.39892   0.00000  Uiso   1.00
C95    C     0.49288   0.15085   0.32354   0.00000  Uiso   1.00
C96    C     0.55520   0.21043   0.32024   0.00000  Uiso   1.00
C97    C     0.68295   0.29325   0.28254   0.00000  Uiso   1.00
C98    C     0.21136   0.12207   0.37165   0.00000  Uiso   1.00
C99    C     0.14311   0.09365   0.27334   0.00000  Uiso   1.00
C100   C     0.04547   0.12706   0.24709   0.00000  Uiso   1.00
C101   C     0.87820   0.16161   0.16712   0.00000  Uiso   1.00
C102   C     0.31712   0.08199   0.56630   0.00000  Uiso   1.00
C103   C     0.33777   0.01986   0.63167   0.00000  Uiso   1.00
C104   C     0.32915   0.01953   0.76931   0.00000  Uiso   1.00
C105   C     0.32609   0.99185   0.99156   0.00000  Uiso   1.00
C106   C     0.26979   0.20384   0.54453   0.00000  Uiso   1.00
C107   C     0.37309   0.21282   0.46854   0.00000  Uiso   1.00
C108   C     0.43529   0.27241   0.46536   0.00000  Uiso   1.00
C109   C     0.52688   0.27021   0.38999   0.00000  Uiso   1.00
C110   C     0.18308   0.18174   0.44126   0.00000  Uiso   1.00
C111   C     0.08552   0.21521   0.41516   0.00000  Uiso   1.00
C112   C     0.01714   0.18685   0.31684   0.00000  Uiso   1.00
C113   C     0.28885   0.14167   0.63593   0.00000  Uiso   1.00
C114   C     0.28018   0.14143   0.77349   0.00000  Uiso   1.00
C115   C     0.30082   0.07932   0.83905   0.00000  Uiso   1.00
H116   H     0.34384   0.04750   0.36214   0.00000  Uiso   1.00
H117   H     0.51472   0.10466   0.26966   0.00000  Uiso   1.00
H118   H     0.16500   0.04746   0.21949   0.00000  Uiso   1.00
H119   H     0.35964   0.97369   0.57776   0.00000  Uiso   1.00
H120   H     0.69169   0.19436   0.19780   0.00000  Uiso   1.00
H121   H     0.95427   0.07373   0.09204   0.00000  Uiso   1.00
H122   H     0.36469   0.91817   0.84752   0.00000  Uiso   1.00
H123   H     0.24777   0.25030   0.59874   0.00000  Uiso   1.00
H124   H     0.41339   0.31859   0.51925   0.00000  Uiso   1.00
H125   H     0.06367   0.26139   0.46907   0.00000  Uiso   1.00
H126   H     0.25830   0.18762   0.82733   0.00000  Uiso   1.00
H127   H     0.60944   0.36799   0.40037   0.00000  Uiso   1.00
H128   H     0.87201   0.24736   0.29461   0.00000  Uiso   1.00
H129   H     0.28244   0.09181   0.05008   0.00000  Uiso   1.00
O130   O     0.76122   0.32244   0.24249   0.00000  Uiso   1.00
O131   O     0.79375   0.16418   0.10375   0.00000  Uiso   1.00
O132   O     0.33222   0.96009   0.09492   0.00000  Uiso   1.00
N133   N     0.64961   0.22584   0.25641   0.00000  Uiso   1.00
N134   N     0.96018   0.11307   0.15751   0.00000  Uiso   1.00
N135   N     0.34386   0.96764   0.86381   0.00000  Uiso   1.00
N136   N     0.60536   0.31927   0.36541   0.00000  Uiso   1.00
N137   N     0.91592   0.20650   0.26651   0.00000  Uiso   1.00
N138   N     0.29960   0.06107   0.97281   0.00000  Uiso   1.00
C139   C     0.67816   0.59397   0.08365   0.00000  Uiso   1.00
C140   C     0.59863   0.65314   0.10108   0.00000  Uiso   1.00
C141   C     0.50712   0.65085   0.17646   0.00000  Uiso   1.00
C142   C     0.44480   0.71043   0.17976   0.00000  Uiso   1.00
C143   C     0.31705   0.79325   0.21746   0.00000  Uiso   1.00
C144   C     0.78864   0.62207   0.12835   0.00000  Uiso   1.00
C145   C     0.85689   0.59365   0.22666   0.00000  Uiso   1.00
C146   C     0.95453   0.62706   0.25291   0.00000  Uiso   1.00
C147   C     0.12180   0.66161   0.33288   0.00000  Uiso   1.00
C148   C     0.68288   0.58199   0.93370   0.00000  Uiso   1.00
C149   C     0.66223   0.51986   0.86833   0.00000  Uiso   1.00
C150   C     0.67085   0.51953   0.73069   0.00000  Uiso   1.00
C151   C     0.67391   0.49185   0.50844   0.00000  Uiso   1.00
C152   C     0.73021   0.70384   0.95547   0.00000  Uiso   1.00
C153   C     0.62691   0.71282   0.03146   0.00000  Uiso   1.00
C154   C     0.56471   0.77241   0.03464   0.00000  Uiso   1.00
C155   C     0.47312   0.77021   0.11001   0.00000  Uiso   1.00
C156   C     0.81692   0.68174   0.05874   0.00000  Uiso   1.00
C157   C     0.91448   0.71521   0.08484   0.00000  Uiso   1.00
C158   C     0.98286   0.68685   0.18316   0.00000  Uiso   1.00
C159   C     0.71115   0.64167   0.86407   0.00000  Uiso   1.00
C160   C     0.71982   0.64143   0.72651   0.00000  Uiso   1.00
C161   C     0.69918   0.57932   0.66095   0.00000  Uiso   1.00
H162   H     0.65616   0.54750   0.13786   0.00000  Uiso   1.00
H163   H     0.48528   0.60466   0.23034   0.00000  Uiso   1.00
H164   H     0.83500   0.54746   0.28051   0.00000  Uiso   1.00
H165   H     0.64036   0.47369   0.92224   0.00000  Uiso   1.00
H166   H     0.30831   0.69436   0.30220   0.00000  Uiso   1.00
H167   H     0.04573   0.57373   0.40796   0.00000  Uiso   1.00
H168   H     0.63531   0.41817   0.65248   0.00000  Uiso   1.00
H169   H     0.75223   0.75030   0.90126   0.00000  Uiso   1.00
H170   H     0.58661   0.81859   0.98075   0.00000  Uiso   1.00
H171   H     0.93633   0.76139   0.03093   0.00000  Uiso   1.00
H172   H     0.74170   0.68762   0.67267   0.00000  Uiso   1.00
H173   H     0.39056   0.86799   0.09963   0.00000  Uiso   1.00
H174   H     0.12799   0.74736   0.20539   0.00000  Uiso   1.00
H175   H     0.71756   0.59181   0.44992   0.00000  Uiso   1.00
O176   O     0.23878   0.82244   0.25751   0.00000  Uiso   1.00
O177   O     0.20625   0.66418   0.39625   0.00000  Uiso   1.00
O178   O     0.66778   0.46009   0.40508   0.00000  Uiso   1.00
N179   N     0.35039   0.72584   0.24359   0.00000  Uiso   1.00
N180   N     0.03982   0.61307   0.34249   0.00000  Uiso   1.00
N181   N     0.65614   0.46764   0.63619   0.00000  Uiso   1.00
N182   N     0.39464   0.81927   0.13459   0.00000  Uiso   1.00
N183   N     0.08408   0.70650   0.23349   0.00000  Uiso   1.00
N184   N     0.70040   0.56107   0.52719   0.00000  Uiso   1.00
