data_job_00296
_audit_creation_date              2018-12-19
_audit_creation_method            'Materials Studio'
_symmetry_space_group_name_H-M    'P1'
_symmetry_Int_Tables_number       1
_symmetry_cell_setting            triclinic
loop_
_symmetry_equiv_pos_as_xyz
  x,y,z
_cell_length_a                    20.7063
_cell_length_b                    20.7063
_cell_length_c                    10.9844
_cell_angle_alpha                 90.0000
_cell_angle_beta                  90.0000
_cell_angle_gamma                 90.0000
loop_
_atom_site_label
_atom_site_type_symbol
_atom_site_fract_x
_atom_site_fract_y
_atom_site_fract_z
_atom_site_U_iso_or_equiv
_atom_site_adp_type
_atom_site_occupancy
C1     C     0.63470   0.70346   0.95412   0.00000  Uiso   1.00
C2     C     0.65511   0.77119   0.99278   0.00000  Uiso   1.00
C3     C     0.63791   0.82823   0.93492   0.00000  Uiso   1.00
C4     C     0.66155   0.88523   0.98438   0.00000  Uiso   1.00
C5     C     0.68727   0.99040   0.02860   0.00000  Uiso   1.00
C6     C     0.69705   0.66552   0.93566   0.00000  Uiso   1.00
C7     C     0.71510   0.63370   0.82978   0.00000  Uiso   1.00
C8     C     0.77404   0.60174   0.83118   0.00000  Uiso   1.00
C9     C     0.86486   0.54282   0.78675   0.00000  Uiso   1.00
C10    C     0.60168   0.67354   0.06464   0.00000  Uiso   1.00
C11    C     0.53954   0.64845   0.06721   0.00000  Uiso   1.00
C12    C     0.51818   0.62323   0.17719   0.00000  Uiso   1.00
C13    C     0.46091   0.57676   0.33303   0.00000  Uiso   1.00
C14    C     0.70727   0.70325   0.14486   0.00000  Uiso   1.00
C15    C     0.69453   0.77107   0.09637   0.00000  Uiso   1.00
C16    C     0.71820   0.82800   0.14594   0.00000  Uiso   1.00
C17    C     0.70103   0.88511   0.08817   0.00000  Uiso   1.00
C18    C     0.73647   0.66540   0.03925   0.00000  Uiso   1.00
C19    C     0.79540   0.63347   0.04081   0.00000  Uiso   1.00
C20    C     0.81354   0.60162   0.93496   0.00000  Uiso   1.00
C21    C     0.64109   0.67342   0.16824   0.00000  Uiso   1.00
C22    C     0.61983   0.64822   0.27824   0.00000  Uiso   1.00
C23    C     0.55767   0.62311   0.28098   0.00000  Uiso   1.00
H24    H     0.60402   0.70355   0.87347   0.00000  Uiso   1.00
H25    H     0.60741   0.82830   0.85474   0.00000  Uiso   1.00
H26    H     0.68459   0.63380   0.74963   0.00000  Uiso   1.00
H27    H     0.50905   0.64855   0.98702   0.00000  Uiso   1.00
H28    H     0.62857   0.96655   0.87964   0.00000  Uiso   1.00
H29    H     0.79130   0.55642   0.65802   0.00000  Uiso   1.00
H30    H     0.42114   0.58752   0.15861   0.00000  Uiso   1.00
H31    H     0.73797   0.70316   0.22552   0.00000  Uiso   1.00
H32    H     0.74871   0.82789   0.22612   0.00000  Uiso   1.00
H33    H     0.82589   0.63339   0.12100   0.00000  Uiso   1.00
H34    H     0.65035   0.64814   0.35839   0.00000  Uiso   1.00
H35    H     0.74325   0.96622   0.18106   0.00000  Uiso   1.00
H36    H     0.90598   0.55608   0.95944   0.00000  Uiso   1.00
H37    H     0.53583   0.58719   0.46002   0.00000  Uiso   1.00
O38    O     0.69058   0.04844   0.02436   0.00000  Uiso   1.00
O39    O     0.90407   0.51035   0.73361   0.00000  Uiso   1.00
O40    O     0.41843   0.55117   0.39037   0.00000  Uiso   1.00
N41    N     0.65408   0.94936   0.95051   0.00000  Uiso   1.00
N42    N     0.80622   0.56592   0.74330   0.00000  Uiso   1.00
N43    N     0.46016   0.59498   0.21130   0.00000  Uiso   1.00
N44    N     0.71579   0.94918   0.11270   0.00000  Uiso   1.00
N45    N     0.86793   0.56574   0.90549   0.00000  Uiso   1.00
N46    N     0.52187   0.59480   0.37349   0.00000  Uiso   1.00
C47    C     0.36530   0.29654   0.95412   0.00000  Uiso   1.00
C48    C     0.34489   0.22881   0.99278   0.00000  Uiso   1.00
C49    C     0.36209   0.17177   0.93492   0.00000  Uiso   1.00
C50    C     0.33845   0.11477   0.98438   0.00000  Uiso   1.00
C51    C     0.31273   0.00960   0.02860   0.00000  Uiso   1.00
C52    C     0.30295   0.33448   0.93566   0.00000  Uiso   1.00
C53    C     0.28490   0.36630   0.82978   0.00000  Uiso   1.00
C54    C     0.22596   0.39826   0.83118   0.00000  Uiso   1.00
C55    C     0.13514   0.45718   0.78675   0.00000  Uiso   1.00
C56    C     0.39832   0.32646   0.06464   0.00000  Uiso   1.00
C57    C     0.46046   0.35155   0.06721   0.00000  Uiso   1.00
C58    C     0.48182   0.37677   0.17719   0.00000  Uiso   1.00
C59    C     0.53909   0.42324   0.33303   0.00000  Uiso   1.00
C60    C     0.29273   0.29675   0.14486   0.00000  Uiso   1.00
C61    C     0.30547   0.22893   0.09637   0.00000  Uiso   1.00
C62    C     0.28180   0.17200   0.14594   0.00000  Uiso   1.00
C63    C     0.29897   0.11489   0.08817   0.00000  Uiso   1.00
C64    C     0.26353   0.33460   0.03925   0.00000  Uiso   1.00
C65    C     0.20460   0.36653   0.04081   0.00000  Uiso   1.00
C66    C     0.18646   0.39838   0.93496   0.00000  Uiso   1.00
C67    C     0.35891   0.32658   0.16824   0.00000  Uiso   1.00
C68    C     0.38017   0.35178   0.27824   0.00000  Uiso   1.00
C69    C     0.44233   0.37689   0.28098   0.00000  Uiso   1.00
H70    H     0.39598   0.29645   0.87347   0.00000  Uiso   1.00
H71    H     0.39259   0.17170   0.85474   0.00000  Uiso   1.00
H72    H     0.31541   0.36620   0.74963   0.00000  Uiso   1.00
H73    H     0.49095   0.35145   0.98702   0.00000  Uiso   1.00
H74    H     0.37143   0.03345   0.87964   0.00000  Uiso   1.00
H75    H     0.20870   0.44358   0.65802   0.00000  Uiso   1.00
H76    H     0.57886   0.41248   0.15861   0.00000  Uiso   1.00
H77    H     0.26203   0.29684   0.22552   0.00000  Uiso   1.00
H78    H     0.25129   0.17211   0.22612   0.00000  Uiso   1.00
H79    H     0.17411   0.36661   0.12100   0.00000  Uiso   1.00
H80    H     0.34965   0.35186   0.35839   0.00000  Uiso   1.00
H81    H     0.25675   0.03378   0.18106   0.00000  Uiso   1.00
H82    H     0.09402   0.44392   0.95944   0.00000  Uiso   1.00
H83    H     0.46417   0.41281   0.46002   0.00000  Uiso   1.00
O84    O     0.30942   0.95156   0.02436   0.00000  Uiso   1.00
O85    O     0.09593   0.48965   0.73361   0.00000  Uiso   1.00
O86    O     0.58157   0.44883   0.39037   0.00000  Uiso   1.00
N87    N     0.34592   0.05064   0.95051   0.00000  Uiso   1.00
N88    N     0.19378   0.43408   0.74330   0.00000  Uiso   1.00
N89    N     0.53984   0.40502   0.21130   0.00000  Uiso   1.00
N90    N     0.28421   0.05082   0.11270   0.00000  Uiso   1.00
N91    N     0.13207   0.43426   0.90549   0.00000  Uiso   1.00
N92    N     0.47813   0.40520   0.37349   0.00000  Uiso   1.00
C93    C     0.70346   0.36530   0.04588   0.00000  Uiso   1.00
C94    C     0.77119   0.34489   0.00722   0.00000  Uiso   1.00
C95    C     0.82823   0.36209   0.06508   0.00000  Uiso   1.00
C96    C     0.88523   0.33845   0.01562   0.00000  Uiso   1.00
C97    C     0.99040   0.31273   0.97140   0.00000  Uiso   1.00
C98    C     0.66552   0.30295   0.06434   0.00000  Uiso   1.00
C99    C     0.63370   0.28490   0.17022   0.00000  Uiso   1.00
C100   C     0.60174   0.22596   0.16882   0.00000  Uiso   1.00
C101   C     0.54282   0.13514   0.21325   0.00000  Uiso   1.00
C102   C     0.67354   0.39832   0.93536   0.00000  Uiso   1.00
C103   C     0.64845   0.46046   0.93279   0.00000  Uiso   1.00
C104   C     0.62323   0.48182   0.82281   0.00000  Uiso   1.00
C105   C     0.57676   0.53909   0.66697   0.00000  Uiso   1.00
C106   C     0.70325   0.29273   0.85514   0.00000  Uiso   1.00
C107   C     0.77107   0.30547   0.90363   0.00000  Uiso   1.00
C108   C     0.82800   0.28180   0.85406   0.00000  Uiso   1.00
C109   C     0.88511   0.29897   0.91183   0.00000  Uiso   1.00
C110   C     0.66540   0.26353   0.96075   0.00000  Uiso   1.00
C111   C     0.63347   0.20460   0.95919   0.00000  Uiso   1.00
C112   C     0.60162   0.18646   0.06504   0.00000  Uiso   1.00
C113   C     0.67342   0.35891   0.83176   0.00000  Uiso   1.00
C114   C     0.64822   0.38017   0.72176   0.00000  Uiso   1.00
C115   C     0.62311   0.44233   0.71902   0.00000  Uiso   1.00
H116   H     0.70355   0.39598   0.12653   0.00000  Uiso   1.00
H117   H     0.82830   0.39259   0.14526   0.00000  Uiso   1.00
H118   H     0.63380   0.31541   0.25037   0.00000  Uiso   1.00
H119   H     0.64855   0.49095   0.01298   0.00000  Uiso   1.00
H120   H     0.96655   0.37143   0.12036   0.00000  Uiso   1.00
H121   H     0.55642   0.20870   0.34198   0.00000  Uiso   1.00
H122   H     0.58752   0.57886   0.84139   0.00000  Uiso   1.00
H123   H     0.70316   0.26203   0.77448   0.00000  Uiso   1.00
H124   H     0.82789   0.25129   0.77388   0.00000  Uiso   1.00
H125   H     0.63339   0.17411   0.87900   0.00000  Uiso   1.00
H126   H     0.64814   0.34965   0.64161   0.00000  Uiso   1.00
H127   H     0.96622   0.25675   0.81894   0.00000  Uiso   1.00
H128   H     0.55608   0.09402   0.04056   0.00000  Uiso   1.00
H129   H     0.58719   0.46417   0.53998   0.00000  Uiso   1.00
O130   O     0.04844   0.30942   0.97564   0.00000  Uiso   1.00
O131   O     0.51035   0.09593   0.26639   0.00000  Uiso   1.00
O132   O     0.55117   0.58157   0.60963   0.00000  Uiso   1.00
N133   N     0.94936   0.34592   0.04949   0.00000  Uiso   1.00
N134   N     0.56592   0.19378   0.25670   0.00000  Uiso   1.00
N135   N     0.59498   0.53984   0.78870   0.00000  Uiso   1.00
N136   N     0.94918   0.28421   0.88730   0.00000  Uiso   1.00
N137   N     0.56574   0.13207   0.09451   0.00000  Uiso   1.00
N138   N     0.59480   0.47813   0.62651   0.00000  Uiso   1.00
C139   C     0.29654   0.63470   0.04588   0.00000  Uiso   1.00
C140   C     0.22881   0.65511   0.00722   0.00000  Uiso   1.00
C141   C     0.17177   0.63791   0.06508   0.00000  Uiso   1.00
C142   C     0.11477   0.66155   0.01562   0.00000  Uiso   1.00
C143   C     0.00960   0.68727   0.97140   0.00000  Uiso   1.00
C144   C     0.33448   0.69705   0.06434   0.00000  Uiso   1.00
C145   C     0.36630   0.71510   0.17022   0.00000  Uiso   1.00
C146   C     0.39826   0.77404   0.16882   0.00000  Uiso   1.00
C147   C     0.45718   0.86486   0.21325   0.00000  Uiso   1.00
C148   C     0.32646   0.60168   0.93536   0.00000  Uiso   1.00
C149   C     0.35155   0.53954   0.93279   0.00000  Uiso   1.00
C150   C     0.37677   0.51818   0.82281   0.00000  Uiso   1.00
C151   C     0.42324   0.46091   0.66697   0.00000  Uiso   1.00
C152   C     0.29675   0.70727   0.85514   0.00000  Uiso   1.00
C153   C     0.22893   0.69453   0.90363   0.00000  Uiso   1.00
C154   C     0.17200   0.71820   0.85406   0.00000  Uiso   1.00
C155   C     0.11489   0.70103   0.91183   0.00000  Uiso   1.00
C156   C     0.33460   0.73647   0.96075   0.00000  Uiso   1.00
C157   C     0.36653   0.79540   0.95919   0.00000  Uiso   1.00
C158   C     0.39838   0.81354   0.06504   0.00000  Uiso   1.00
C159   C     0.32658   0.64109   0.83176   0.00000  Uiso   1.00
C160   C     0.35178   0.61983   0.72176   0.00000  Uiso   1.00
C161   C     0.37689   0.55767   0.71902   0.00000  Uiso   1.00
H162   H     0.29645   0.60402   0.12653   0.00000  Uiso   1.00
H163   H     0.17170   0.60741   0.14526   0.00000  Uiso   1.00
H164   H     0.36620   0.68459   0.25037   0.00000  Uiso   1.00
H165   H     0.35145   0.50905   0.01298   0.00000  Uiso   1.00
H166   H     0.03345   0.62857   0.12036   0.00000  Uiso   1.00
H167   H     0.44358   0.79130   0.34198   0.00000  Uiso   1.00
H168   H     0.41248   0.42114   0.84139   0.00000  Uiso   1.00
H169   H     0.29684   0.73797   0.77448   0.00000  Uiso   1.00
H170   H     0.17211   0.74871   0.77388   0.00000  Uiso   1.00
H171   H     0.36661   0.82589   0.87900   0.00000  Uiso   1.00
H172   H     0.35186   0.65035   0.64161   0.00000  Uiso   1.00
H173   H     0.03378   0.74325   0.81894   0.00000  Uiso   1.00
H174   H     0.44392   0.90598   0.04056   0.00000  Uiso   1.00
H175   H     0.41281   0.53583   0.53998   0.00000  Uiso   1.00
O176   O     0.95156   0.69058   0.97564   0.00000  Uiso   1.00
O177   O     0.48965   0.90407   0.26639   0.00000  Uiso   1.00
O178   O     0.44883   0.41843   0.60963   0.00000  Uiso   1.00
N179   N     0.05064   0.65408   0.04949   0.00000  Uiso   1.00
N180   N     0.43408   0.80622   0.25670   0.00000  Uiso   1.00
N181   N     0.40502   0.46016   0.78870   0.00000  Uiso   1.00
N182   N     0.05082   0.71579   0.88730   0.00000  Uiso   1.00
N183   N     0.43426   0.86793   0.09451   0.00000  Uiso   1.00
N184   N     0.40520   0.52187   0.62651   0.00000  Uiso   1.00
C185   C     0.86530   0.20346   0.54588   0.00000  Uiso   1.00
C186   C     0.84489   0.27119   0.50722   0.00000  Uiso   1.00
C187   C     0.86209   0.32823   0.56508   0.00000  Uiso   1.00
C188   C     0.83845   0.38523   0.51562   0.00000  Uiso   1.00
C189   C     0.81273   0.49040   0.47140   0.00000  Uiso   1.00
C190   C     0.80295   0.16552   0.56434   0.00000  Uiso   1.00
C191   C     0.78490   0.13370   0.67022   0.00000  Uiso   1.00
C192   C     0.72596   0.10174   0.66882   0.00000  Uiso   1.00
C193   C     0.63514   0.04282   0.71325   0.00000  Uiso   1.00
C194   C     0.89832   0.17354   0.43536   0.00000  Uiso   1.00
C195   C     0.96046   0.14845   0.43279   0.00000  Uiso   1.00
C196   C     0.98182   0.12323   0.32281   0.00000  Uiso   1.00
C197   C     0.03909   0.07676   0.16697   0.00000  Uiso   1.00
C198   C     0.79273   0.20325   0.35514   0.00000  Uiso   1.00
C199   C     0.80547   0.27107   0.40363   0.00000  Uiso   1.00
C200   C     0.78180   0.32800   0.35406   0.00000  Uiso   1.00
C201   C     0.79897   0.38511   0.41183   0.00000  Uiso   1.00
C202   C     0.76353   0.16540   0.46075   0.00000  Uiso   1.00
C203   C     0.70460   0.13347   0.45919   0.00000  Uiso   1.00
C204   C     0.68646   0.10162   0.56504   0.00000  Uiso   1.00
C205   C     0.85891   0.17342   0.33176   0.00000  Uiso   1.00
C206   C     0.88017   0.14822   0.22176   0.00000  Uiso   1.00
C207   C     0.94233   0.12311   0.21902   0.00000  Uiso   1.00
H208   H     0.89598   0.20355   0.62653   0.00000  Uiso   1.00
H209   H     0.89259   0.32830   0.64526   0.00000  Uiso   1.00
H210   H     0.81541   0.13380   0.75037   0.00000  Uiso   1.00
H211   H     0.99095   0.14855   0.51298   0.00000  Uiso   1.00
H212   H     0.87143   0.46655   0.62036   0.00000  Uiso   1.00
H213   H     0.70870   0.05642   0.84198   0.00000  Uiso   1.00
H214   H     0.07886   0.08752   0.34139   0.00000  Uiso   1.00
H215   H     0.76203   0.20316   0.27448   0.00000  Uiso   1.00
H216   H     0.75129   0.32789   0.27388   0.00000  Uiso   1.00
H217   H     0.67411   0.13339   0.37900   0.00000  Uiso   1.00
H218   H     0.84965   0.14814   0.14161   0.00000  Uiso   1.00
H219   H     0.75675   0.46622   0.31894   0.00000  Uiso   1.00
H220   H     0.59402   0.05608   0.54056   0.00000  Uiso   1.00
H221   H     0.96417   0.08719   0.03998   0.00000  Uiso   1.00
O222   O     0.80942   0.54844   0.47564   0.00000  Uiso   1.00
O223   O     0.59593   0.01035   0.76639   0.00000  Uiso   1.00
O224   O     0.08157   0.05117   0.10963   0.00000  Uiso   1.00
N225   N     0.84592   0.44936   0.54949   0.00000  Uiso   1.00
N226   N     0.69378   0.06592   0.75670   0.00000  Uiso   1.00
N227   N     0.03984   0.09498   0.28870   0.00000  Uiso   1.00
N228   N     0.78421   0.44918   0.38730   0.00000  Uiso   1.00
N229   N     0.63207   0.06574   0.59451   0.00000  Uiso   1.00
N230   N     0.97813   0.09480   0.12651   0.00000  Uiso   1.00
C231   C     0.13470   0.79654   0.54588   0.00000  Uiso   1.00
C232   C     0.15511   0.72881   0.50722   0.00000  Uiso   1.00
C233   C     0.13791   0.67177   0.56508   0.00000  Uiso   1.00
C234   C     0.16155   0.61477   0.51562   0.00000  Uiso   1.00
C235   C     0.18727   0.50960   0.47140   0.00000  Uiso   1.00
C236   C     0.19705   0.83448   0.56434   0.00000  Uiso   1.00
C237   C     0.21510   0.86630   0.67022   0.00000  Uiso   1.00
C238   C     0.27404   0.89826   0.66882   0.00000  Uiso   1.00
C239   C     0.36486   0.95718   0.71325   0.00000  Uiso   1.00
C240   C     0.10168   0.82646   0.43536   0.00000  Uiso   1.00
C241   C     0.03954   0.85155   0.43279   0.00000  Uiso   1.00
C242   C     0.01818   0.87677   0.32281   0.00000  Uiso   1.00
C243   C     0.96091   0.92324   0.16697   0.00000  Uiso   1.00
C244   C     0.20727   0.79675   0.35514   0.00000  Uiso   1.00
C245   C     0.19453   0.72893   0.40363   0.00000  Uiso   1.00
C246   C     0.21820   0.67200   0.35406   0.00000  Uiso   1.00
C247   C     0.20103   0.61489   0.41183   0.00000  Uiso   1.00
C248   C     0.23647   0.83460   0.46075   0.00000  Uiso   1.00
C249   C     0.29540   0.86653   0.45919   0.00000  Uiso   1.00
C250   C     0.31354   0.89838   0.56504   0.00000  Uiso   1.00
C251   C     0.14109   0.82658   0.33176   0.00000  Uiso   1.00
C252   C     0.11983   0.85178   0.22176   0.00000  Uiso   1.00
C253   C     0.05767   0.87689   0.21902   0.00000  Uiso   1.00
H254   H     0.10402   0.79645   0.62653   0.00000  Uiso   1.00
H255   H     0.10741   0.67170   0.64526   0.00000  Uiso   1.00
H256   H     0.18459   0.86620   0.75037   0.00000  Uiso   1.00
H257   H     0.00905   0.85145   0.51298   0.00000  Uiso   1.00
H258   H     0.12857   0.53345   0.62036   0.00000  Uiso   1.00
H259   H     0.29130   0.94358   0.84198   0.00000  Uiso   1.00
H260   H     0.92114   0.91248   0.34139   0.00000  Uiso   1.00
H261   H     0.23797   0.79684   0.27448   0.00000  Uiso   1.00
H262   H     0.24871   0.67211   0.27388   0.00000  Uiso   1.00
H263   H     0.32589   0.86661   0.37900   0.00000  Uiso   1.00
H264   H     0.15035   0.85186   0.14161   0.00000  Uiso   1.00
H265   H     0.24325   0.53378   0.31894   0.00000  Uiso   1.00
H266   H     0.40598   0.94392   0.54056   0.00000  Uiso   1.00
H267   H     0.03583   0.91281   0.03998   0.00000  Uiso   1.00
O268   O     0.19058   0.45156   0.47564   0.00000  Uiso   1.00
O269   O     0.40407   0.98965   0.76639   0.00000  Uiso   1.00
O270   O     0.91843   0.94883   0.10963   0.00000  Uiso   1.00
N271   N     0.15408   0.55064   0.54949   0.00000  Uiso   1.00
N272   N     0.30622   0.93408   0.75670   0.00000  Uiso   1.00
N273   N     0.96016   0.90502   0.28870   0.00000  Uiso   1.00
N274   N     0.21579   0.55082   0.38730   0.00000  Uiso   1.00
N275   N     0.36793   0.93426   0.59451   0.00000  Uiso   1.00
N276   N     0.02187   0.90520   0.12651   0.00000  Uiso   1.00
C277   C     0.79654   0.86530   0.45412   0.00000  Uiso   1.00
C278   C     0.72881   0.84489   0.49278   0.00000  Uiso   1.00
C279   C     0.67177   0.86209   0.43492   0.00000  Uiso   1.00
C280   C     0.61477   0.83845   0.48438   0.00000  Uiso   1.00
C281   C     0.50960   0.81273   0.52860   0.00000  Uiso   1.00
C282   C     0.83448   0.80295   0.43566   0.00000  Uiso   1.00
C283   C     0.86630   0.78490   0.32978   0.00000  Uiso   1.00
C284   C     0.89826   0.72596   0.33118   0.00000  Uiso   1.00
C285   C     0.95718   0.63514   0.28675   0.00000  Uiso   1.00
C286   C     0.82646   0.89832   0.56464   0.00000  Uiso   1.00
C287   C     0.85155   0.96046   0.56721   0.00000  Uiso   1.00
C288   C     0.87677   0.98182   0.67719   0.00000  Uiso   1.00
C289   C     0.92324   0.03909   0.83303   0.00000  Uiso   1.00
C290   C     0.79675   0.79273   0.64486   0.00000  Uiso   1.00
C291   C     0.72893   0.80547   0.59637   0.00000  Uiso   1.00
C292   C     0.67200   0.78180   0.64594   0.00000  Uiso   1.00
C293   C     0.61489   0.79897   0.58817   0.00000  Uiso   1.00
C294   C     0.83460   0.76353   0.53925   0.00000  Uiso   1.00
C295   C     0.86653   0.70460   0.54081   0.00000  Uiso   1.00
C296   C     0.89838   0.68646   0.43496   0.00000  Uiso   1.00
C297   C     0.82658   0.85891   0.66824   0.00000  Uiso   1.00
C298   C     0.85178   0.88017   0.77824   0.00000  Uiso   1.00
C299   C     0.87689   0.94233   0.78098   0.00000  Uiso   1.00
H300   H     0.79645   0.89598   0.37347   0.00000  Uiso   1.00
H301   H     0.67170   0.89259   0.35474   0.00000  Uiso   1.00
H302   H     0.86620   0.81541   0.24963   0.00000  Uiso   1.00
H303   H     0.85145   0.99095   0.48702   0.00000  Uiso   1.00
H304   H     0.53345   0.87143   0.37964   0.00000  Uiso   1.00
H305   H     0.94358   0.70870   0.15802   0.00000  Uiso   1.00
H306   H     0.91248   0.07886   0.65861   0.00000  Uiso   1.00
H307   H     0.79684   0.76203   0.72552   0.00000  Uiso   1.00
H308   H     0.67211   0.75129   0.72612   0.00000  Uiso   1.00
H309   H     0.86661   0.67411   0.62100   0.00000  Uiso   1.00
H310   H     0.85186   0.84965   0.85839   0.00000  Uiso   1.00
H311   H     0.53378   0.75675   0.68106   0.00000  Uiso   1.00
H312   H     0.94392   0.59402   0.45944   0.00000  Uiso   1.00
H313   H     0.91281   0.96417   0.96002   0.00000  Uiso   1.00
O314   O     0.45156   0.80942   0.52436   0.00000  Uiso   1.00
O315   O     0.98965   0.59593   0.23361   0.00000  Uiso   1.00
O316   O     0.94883   0.08157   0.89037   0.00000  Uiso   1.00
N317   N     0.55064   0.84592   0.45051   0.00000  Uiso   1.00
N318   N     0.93408   0.69378   0.24330   0.00000  Uiso   1.00
N319   N     0.90502   0.03984   0.71130   0.00000  Uiso   1.00
N320   N     0.55082   0.78421   0.61270   0.00000  Uiso   1.00
N321   N     0.93426   0.63207   0.40549   0.00000  Uiso   1.00
N322   N     0.90520   0.97813   0.87349   0.00000  Uiso   1.00
C323   C     0.20346   0.13470   0.45412   0.00000  Uiso   1.00
C324   C     0.27119   0.15511   0.49278   0.00000  Uiso   1.00
C325   C     0.32823   0.13791   0.43492   0.00000  Uiso   1.00
C326   C     0.38523   0.16155   0.48438   0.00000  Uiso   1.00
C327   C     0.49040   0.18727   0.52860   0.00000  Uiso   1.00
C328   C     0.16552   0.19705   0.43566   0.00000  Uiso   1.00
C329   C     0.13370   0.21510   0.32978   0.00000  Uiso   1.00
C330   C     0.10174   0.27404   0.33118   0.00000  Uiso   1.00
C331   C     0.04282   0.36486   0.28675   0.00000  Uiso   1.00
C332   C     0.17354   0.10168   0.56464   0.00000  Uiso   1.00
C333   C     0.14845   0.03954   0.56721   0.00000  Uiso   1.00
C334   C     0.12323   0.01818   0.67719   0.00000  Uiso   1.00
C335   C     0.07676   0.96091   0.83303   0.00000  Uiso   1.00
C336   C     0.20325   0.20727   0.64486   0.00000  Uiso   1.00
C337   C     0.27107   0.19453   0.59637   0.00000  Uiso   1.00
C338   C     0.32800   0.21820   0.64594   0.00000  Uiso   1.00
C339   C     0.38511   0.20103   0.58817   0.00000  Uiso   1.00
C340   C     0.16540   0.23647   0.53925   0.00000  Uiso   1.00
C341   C     0.13347   0.29540   0.54081   0.00000  Uiso   1.00
C342   C     0.10162   0.31354   0.43496   0.00000  Uiso   1.00
C343   C     0.17342   0.14109   0.66824   0.00000  Uiso   1.00
C344   C     0.14822   0.11983   0.77824   0.00000  Uiso   1.00
C345   C     0.12311   0.05767   0.78098   0.00000  Uiso   1.00
H346   H     0.20355   0.10402   0.37347   0.00000  Uiso   1.00
H347   H     0.32830   0.10741   0.35474   0.00000  Uiso   1.00
H348   H     0.13380   0.18459   0.24963   0.00000  Uiso   1.00
H349   H     0.14855   0.00905   0.48702   0.00000  Uiso   1.00
H350   H     0.46655   0.12857   0.37964   0.00000  Uiso   1.00
H351   H     0.05642   0.29130   0.15802   0.00000  Uiso   1.00
H352   H     0.08752   0.92114   0.65861   0.00000  Uiso   1.00
H353   H     0.20316   0.23797   0.72552   0.00000  Uiso   1.00
H354   H     0.32789   0.24871   0.72612   0.00000  Uiso   1.00
H355   H     0.13339   0.32589   0.62100   0.00000  Uiso   1.00
H356   H     0.14814   0.15035   0.85839   0.00000  Uiso   1.00
H357   H     0.46622   0.24325   0.68106   0.00000  Uiso   1.00
H358   H     0.05608   0.40598   0.45944   0.00000  Uiso   1.00
H359   H     0.08719   0.03583   0.96002   0.00000  Uiso   1.00
O360   O     0.54844   0.19058   0.52436   0.00000  Uiso   1.00
O361   O     0.01035   0.40407   0.23361   0.00000  Uiso   1.00
O362   O     0.05117   0.91843   0.89037   0.00000  Uiso   1.00
N363   N     0.44936   0.15408   0.45051   0.00000  Uiso   1.00
N364   N     0.06592   0.30622   0.24330   0.00000  Uiso   1.00
N365   N     0.09498   0.96016   0.71130   0.00000  Uiso   1.00
N366   N     0.44918   0.21579   0.61270   0.00000  Uiso   1.00
N367   N     0.06574   0.36793   0.40549   0.00000  Uiso   1.00
N368   N     0.09480   0.02187   0.87349   0.00000  Uiso   1.00
