data_job_03662
_audit_creation_date              2018-12-19
_audit_creation_method            'Materials Studio'
_symmetry_space_group_name_H-M    'P1'
_symmetry_Int_Tables_number       1
_symmetry_cell_setting            triclinic
loop_
_symmetry_equiv_pos_as_xyz
  x,y,z
_cell_length_a                    13.0568
_cell_length_b                    13.0568
_cell_length_c                    27.6617
_cell_angle_alpha                 90.0000
_cell_angle_beta                  90.0000
_cell_angle_gamma                 120.0000
loop_
_atom_site_label
_atom_site_type_symbol
_atom_site_fract_x
_atom_site_fract_y
_atom_site_fract_z
_atom_site_U_iso_or_equiv
_atom_site_adp_type
_atom_site_occupancy
C1     C     0.16300   0.14096   0.34877   0.00000  Uiso   1.00
C2     C     0.23132   0.09803   0.37935   0.00000  Uiso   1.00
C3     C     0.18415   0.98790   0.40118   0.00000  Uiso   1.00
C4     C     0.26127   0.96565   0.42765   0.00000  Uiso   1.00
C5     C     0.34910   0.88610   0.47448   0.00000  Uiso   1.00
C6     C     0.18268   0.25489   0.37244   0.00000  Uiso   1.00
C7     C     0.09461   0.27665   0.38845   0.00000  Uiso   1.00
C8     C     0.13080   0.38646   0.40910   0.00000  Uiso   1.00
C9     C     0.14311   0.55047   0.44516   0.00000  Uiso   1.00
C10    C     0.22635   0.17707   0.30015   0.00000  Uiso   1.00
C11    C     0.17498   0.13343   0.25538   0.00000  Uiso   1.00
C12    C     0.24793   0.17774   0.21517   0.00000  Uiso   1.00
C13    C     0.32804   0.22093   0.13899   0.00000  Uiso   1.00
C14    C     0.38386   0.29727   0.35697   0.00000  Uiso   1.00
C15    C     0.35129   0.18294   0.38380   0.00000  Uiso   1.00
C16    C     0.42851   0.16084   0.41025   0.00000  Uiso   1.00
C17    C     0.38145   0.05070   0.43212   0.00000  Uiso   1.00
C18    C     0.30264   0.33979   0.37689   0.00000  Uiso   1.00
C19    C     0.33897   0.44959   0.39752   0.00000  Uiso   1.00
C20    C     0.25098   0.47152   0.41357   0.00000  Uiso   1.00
C21    C     0.34631   0.26197   0.30460   0.00000  Uiso   1.00
C22    C     0.41935   0.30637   0.26446   0.00000  Uiso   1.00
C23    C     0.36811   0.26280   0.21963   0.00000  Uiso   1.00
H24    H     0.06960   0.07486   0.34530   0.00000  Uiso   1.00
H25    H     0.09130   0.92222   0.39772   0.00000  Uiso   1.00
H26    H     0.00178   0.21094   0.38499   0.00000  Uiso   1.00
H27    H     0.08215   0.06773   0.25194   0.00000  Uiso   1.00
H28    H     0.16825   0.79046   0.45782   0.00000  Uiso   1.00
H29    H     0.97949   0.39924   0.43096   0.00000  Uiso   1.00
H30    H     0.14896   0.09726   0.15040   0.00000  Uiso   1.00
H31    H     0.47727   0.36337   0.36044   0.00000  Uiso   1.00
H32    H     0.52134   0.22656   0.41370   0.00000  Uiso   1.00
H33    H     0.43181   0.51528   0.40097   0.00000  Uiso   1.00
H34    H     0.51218   0.37207   0.26792   0.00000  Uiso   1.00
H35    H     0.51729   0.03747   0.47079   0.00000  Uiso   1.00
H36    H     0.32852   0.64625   0.44393   0.00000  Uiso   1.00
H37    H     0.49799   0.34427   0.16337   0.00000  Uiso   1.00
O38    O     0.36440   0.81877   0.49908   0.00000  Uiso   1.00
O39    O     0.11675   0.61748   0.46383   0.00000  Uiso   1.00
O40    O     0.33909   0.22128   0.09575   0.00000  Uiso   1.00
N41    N     0.24435   0.86736   0.45356   0.00000  Uiso   1.00
N42    N     0.06787   0.43653   0.42845   0.00000  Uiso   1.00
N43    N     0.22630   0.15422   0.16615   0.00000  Uiso   1.00
N44    N     0.43217   0.00027   0.46053   0.00000  Uiso   1.00
N45    N     0.25569   0.56944   0.43543   0.00000  Uiso   1.00
N46    N     0.41412   0.28714   0.17313   0.00000  Uiso   1.00
C47    C     0.85904   0.02204   0.01543   0.00000  Uiso   1.00
C48    C     0.90197   0.13329   0.04601   0.00000  Uiso   1.00
C49    C     0.01210   0.19624   0.06784   0.00000  Uiso   1.00
C50    C     0.03435   0.29562   0.09432   0.00000  Uiso   1.00
C51    C     0.11390   0.46300   0.14114   0.00000  Uiso   1.00
C52    C     0.74511   0.92779   0.03910   0.00000  Uiso   1.00
C53    C     0.72335   0.81795   0.05511   0.00000  Uiso   1.00
C54    C     0.61354   0.74434   0.07577   0.00000  Uiso   1.00
C55    C     0.44953   0.59263   0.11183   0.00000  Uiso   1.00
C56    C     0.82293   0.04928   0.96681   0.00000  Uiso   1.00
C57    C     0.86657   0.04155   0.92204   0.00000  Uiso   1.00
C58    C     0.82226   0.07019   0.88184   0.00000  Uiso   1.00
C59    C     0.77907   0.10711   0.80566   0.00000  Uiso   1.00
C60    C     0.70273   0.08660   0.02364   0.00000  Uiso   1.00
C61    C     0.81706   0.16835   0.05047   0.00000  Uiso   1.00
C62    C     0.83916   0.26767   0.07692   0.00000  Uiso   1.00
C63    C     0.94930   0.33075   0.09878   0.00000  Uiso   1.00
C64    C     0.66021   0.96285   0.04356   0.00000  Uiso   1.00
C65    C     0.55041   0.88938   0.06419   0.00000  Uiso   1.00
C66    C     0.52848   0.77946   0.08023   0.00000  Uiso   1.00
C67    C     0.73803   0.08434   0.97127   0.00000  Uiso   1.00
C68    C     0.69363   0.11298   0.93112   0.00000  Uiso   1.00
C69    C     0.73720   0.10531   0.88630   0.00000  Uiso   1.00
H70    H     0.92514   0.99474   0.01197   0.00000  Uiso   1.00
H71    H     0.07778   0.16907   0.06439   0.00000  Uiso   1.00
H72    H     0.78906   0.79084   0.05166   0.00000  Uiso   1.00
H73    H     0.93227   0.01442   0.91861   0.00000  Uiso   1.00
H74    H     0.20954   0.37779   0.12449   0.00000  Uiso   1.00
H75    H     0.60076   0.58026   0.09763   0.00000  Uiso   1.00
H76    H     0.90274   0.05170   0.81707   0.00000  Uiso   1.00
H77    H     0.63663   0.11389   0.02711   0.00000  Uiso   1.00
H78    H     0.77344   0.29478   0.08036   0.00000  Uiso   1.00
H79    H     0.48472   0.91654   0.06763   0.00000  Uiso   1.00
H80    H     0.62793   0.14011   0.93458   0.00000  Uiso   1.00
H81    H     0.96253   0.47982   0.13746   0.00000  Uiso   1.00
H82    H     0.35375   0.68227   0.11059   0.00000  Uiso   1.00
H83    H     0.65573   0.15372   0.83004   0.00000  Uiso   1.00
O84    O     0.18123   0.54562   0.16574   0.00000  Uiso   1.00
O85    O     0.38252   0.49927   0.13050   0.00000  Uiso   1.00
O86    O     0.77872   0.11780   0.76241   0.00000  Uiso   1.00
N87    N     0.13264   0.37700   0.12022   0.00000  Uiso   1.00
N88    N     0.56347   0.63135   0.09512   0.00000  Uiso   1.00
N89    N     0.84578   0.07208   0.83282   0.00000  Uiso   1.00
N90    N     0.99973   0.43189   0.12720   0.00000  Uiso   1.00
N91    N     0.43056   0.68625   0.10210   0.00000  Uiso   1.00
N92    N     0.71286   0.12698   0.83980   0.00000  Uiso   1.00
C93    C     0.97796   0.83700   0.68210   0.00000  Uiso   1.00
C94    C     0.86671   0.76868   0.71268   0.00000  Uiso   1.00
C95    C     0.80376   0.81585   0.73451   0.00000  Uiso   1.00
C96    C     0.70438   0.73873   0.76099   0.00000  Uiso   1.00
C97    C     0.53700   0.65090   0.80781   0.00000  Uiso   1.00
C98    C     0.07221   0.81732   0.70577   0.00000  Uiso   1.00
C99    C     0.18205   0.90539   0.72178   0.00000  Uiso   1.00
C100   C     0.25566   0.86920   0.74244   0.00000  Uiso   1.00
C101   C     0.40737   0.85689   0.77850   0.00000  Uiso   1.00
C102   C     0.95072   0.77365   0.63348   0.00000  Uiso   1.00
C103   C     0.95845   0.82502   0.58871   0.00000  Uiso   1.00
C104   C     0.92981   0.75207   0.54850   0.00000  Uiso   1.00
C105   C     0.89289   0.67196   0.47233   0.00000  Uiso   1.00
C106   C     0.91340   0.61614   0.69030   0.00000  Uiso   1.00
C107   C     0.83165   0.64871   0.71714   0.00000  Uiso   1.00
C108   C     0.73233   0.57149   0.74359   0.00000  Uiso   1.00
C109   C     0.66925   0.61855   0.76545   0.00000  Uiso   1.00
C110   C     0.03715   0.69736   0.71023   0.00000  Uiso   1.00
C111   C     0.11062   0.66103   0.73086   0.00000  Uiso   1.00
C112   C     0.22054   0.74902   0.74690   0.00000  Uiso   1.00
C113   C     0.91566   0.65369   0.63794   0.00000  Uiso   1.00
C114   C     0.88702   0.58065   0.59779   0.00000  Uiso   1.00
C115   C     0.89469   0.63189   0.55297   0.00000  Uiso   1.00
H116   H     0.00526   0.93040   0.67863   0.00000  Uiso   1.00
H117   H     0.83093   0.90870   0.73106   0.00000  Uiso   1.00
H118   H     0.20916   0.99822   0.71832   0.00000  Uiso   1.00
H119   H     0.98558   0.91785   0.58528   0.00000  Uiso   1.00
H120   H     0.62221   0.83175   0.79116   0.00000  Uiso   1.00
H121   H     0.41974   0.02051   0.76430   0.00000  Uiso   1.00
H122   H     0.94830   0.85104   0.48374   0.00000  Uiso   1.00
H123   H     0.88611   0.52273   0.69377   0.00000  Uiso   1.00
H124   H     0.70522   0.47866   0.74703   0.00000  Uiso   1.00
H125   H     0.08346   0.56819   0.73430   0.00000  Uiso   1.00
H126   H     0.85989   0.48782   0.60125   0.00000  Uiso   1.00
H127   H     0.52018   0.48271   0.80412   0.00000  Uiso   1.00
H128   H     0.31773   0.67148   0.77726   0.00000  Uiso   1.00
H129   H     0.84628   0.50201   0.49670   0.00000  Uiso   1.00
O130   O     0.45438   0.63560   0.83241   0.00000  Uiso   1.00
O131   O     0.50073   0.88325   0.79716   0.00000  Uiso   1.00
O132   O     0.88220   0.66091   0.42908   0.00000  Uiso   1.00
N133   N     0.62300   0.75565   0.78689   0.00000  Uiso   1.00
N134   N     0.36865   0.93213   0.76179   0.00000  Uiso   1.00
N135   N     0.92792   0.77370   0.49949   0.00000  Uiso   1.00
N136   N     0.56811   0.56783   0.79387   0.00000  Uiso   1.00
N137   N     0.31375   0.74431   0.76876   0.00000  Uiso   1.00
N138   N     0.87302   0.58588   0.50646   0.00000  Uiso   1.00
C139   C     0.14096   0.16300   0.65123   0.00000  Uiso   1.00
C140   C     0.09803   0.23132   0.62065   0.00000  Uiso   1.00
C141   C     0.98790   0.18415   0.59882   0.00000  Uiso   1.00
C142   C     0.96565   0.26127   0.57235   0.00000  Uiso   1.00
C143   C     0.88610   0.34910   0.52552   0.00000  Uiso   1.00
C144   C     0.25489   0.18268   0.62756   0.00000  Uiso   1.00
C145   C     0.27665   0.09461   0.61155   0.00000  Uiso   1.00
C146   C     0.38646   0.13080   0.59090   0.00000  Uiso   1.00
C147   C     0.55047   0.14311   0.55484   0.00000  Uiso   1.00
C148   C     0.17707   0.22635   0.69985   0.00000  Uiso   1.00
C149   C     0.13343   0.17498   0.74462   0.00000  Uiso   1.00
C150   C     0.17774   0.24793   0.78483   0.00000  Uiso   1.00
C151   C     0.22093   0.32804   0.86101   0.00000  Uiso   1.00
C152   C     0.29727   0.38386   0.64303   0.00000  Uiso   1.00
C153   C     0.18294   0.35129   0.61620   0.00000  Uiso   1.00
C154   C     0.16084   0.42851   0.58975   0.00000  Uiso   1.00
C155   C     0.05070   0.38145   0.56788   0.00000  Uiso   1.00
C156   C     0.33979   0.30264   0.62311   0.00000  Uiso   1.00
C157   C     0.44959   0.33897   0.60248   0.00000  Uiso   1.00
C158   C     0.47152   0.25098   0.58643   0.00000  Uiso   1.00
C159   C     0.26197   0.34631   0.69540   0.00000  Uiso   1.00
C160   C     0.30637   0.41935   0.73554   0.00000  Uiso   1.00
C161   C     0.26280   0.36811   0.78037   0.00000  Uiso   1.00
H162   H     0.07486   0.06960   0.65470   0.00000  Uiso   1.00
H163   H     0.92222   0.09130   0.60228   0.00000  Uiso   1.00
H164   H     0.21094   0.00178   0.61501   0.00000  Uiso   1.00
H165   H     0.06773   0.08215   0.74806   0.00000  Uiso   1.00
H166   H     0.79046   0.16825   0.54218   0.00000  Uiso   1.00
H167   H     0.39924   0.97949   0.56904   0.00000  Uiso   1.00
H168   H     0.09726   0.14896   0.84960   0.00000  Uiso   1.00
H169   H     0.36337   0.47727   0.63956   0.00000  Uiso   1.00
H170   H     0.22656   0.52134   0.58630   0.00000  Uiso   1.00
H171   H     0.51528   0.43181   0.59903   0.00000  Uiso   1.00
H172   H     0.37207   0.51218   0.73208   0.00000  Uiso   1.00
H173   H     0.03747   0.51729   0.52921   0.00000  Uiso   1.00
H174   H     0.64625   0.32852   0.55607   0.00000  Uiso   1.00
H175   H     0.34427   0.49799   0.83663   0.00000  Uiso   1.00
O176   O     0.81877   0.36440   0.50092   0.00000  Uiso   1.00
O177   O     0.61748   0.11675   0.53617   0.00000  Uiso   1.00
O178   O     0.22128   0.33909   0.90425   0.00000  Uiso   1.00
N179   N     0.86736   0.24435   0.54644   0.00000  Uiso   1.00
N180   N     0.43653   0.06787   0.57155   0.00000  Uiso   1.00
N181   N     0.15422   0.22630   0.83385   0.00000  Uiso   1.00
N182   N     0.00027   0.43217   0.53947   0.00000  Uiso   1.00
N183   N     0.56944   0.25569   0.56457   0.00000  Uiso   1.00
N184   N     0.28714   0.41412   0.82687   0.00000  Uiso   1.00
C185   C     0.02204   0.85904   0.98457   0.00000  Uiso   1.00
C186   C     0.13329   0.90197   0.95399   0.00000  Uiso   1.00
C187   C     0.19624   0.01210   0.93216   0.00000  Uiso   1.00
C188   C     0.29562   0.03435   0.90568   0.00000  Uiso   1.00
C189   C     0.46300   0.11390   0.85886   0.00000  Uiso   1.00
C190   C     0.92779   0.74511   0.96090   0.00000  Uiso   1.00
C191   C     0.81795   0.72335   0.94489   0.00000  Uiso   1.00
C192   C     0.74434   0.61354   0.92423   0.00000  Uiso   1.00
C193   C     0.59263   0.44953   0.88817   0.00000  Uiso   1.00
C194   C     0.04928   0.82293   0.03319   0.00000  Uiso   1.00
C195   C     0.04155   0.86657   0.07796   0.00000  Uiso   1.00
C196   C     0.07019   0.82226   0.11816   0.00000  Uiso   1.00
C197   C     0.10711   0.77907   0.19434   0.00000  Uiso   1.00
C198   C     0.08660   0.70273   0.97636   0.00000  Uiso   1.00
C199   C     0.16835   0.81706   0.94953   0.00000  Uiso   1.00
C200   C     0.26767   0.83916   0.92308   0.00000  Uiso   1.00
C201   C     0.33075   0.94930   0.90122   0.00000  Uiso   1.00
C202   C     0.96285   0.66021   0.95644   0.00000  Uiso   1.00
C203   C     0.88938   0.55041   0.93581   0.00000  Uiso   1.00
C204   C     0.77946   0.52848   0.91977   0.00000  Uiso   1.00
C205   C     0.08434   0.73803   0.02873   0.00000  Uiso   1.00
C206   C     0.11298   0.69363   0.06888   0.00000  Uiso   1.00
C207   C     0.10531   0.73720   0.11370   0.00000  Uiso   1.00
H208   H     0.99474   0.92514   0.98803   0.00000  Uiso   1.00
H209   H     0.16907   0.07778   0.93561   0.00000  Uiso   1.00
H210   H     0.79084   0.78906   0.94834   0.00000  Uiso   1.00
H211   H     0.01442   0.93227   0.08139   0.00000  Uiso   1.00
H212   H     0.37779   0.20954   0.87551   0.00000  Uiso   1.00
H213   H     0.58026   0.60076   0.90237   0.00000  Uiso   1.00
H214   H     0.05170   0.90274   0.18293   0.00000  Uiso   1.00
H215   H     0.11389   0.63663   0.97289   0.00000  Uiso   1.00
H216   H     0.29478   0.77344   0.91964   0.00000  Uiso   1.00
H217   H     0.91654   0.48472   0.93237   0.00000  Uiso   1.00
H218   H     0.14011   0.62793   0.06542   0.00000  Uiso   1.00
H219   H     0.47982   0.96253   0.86254   0.00000  Uiso   1.00
H220   H     0.68227   0.35375   0.88941   0.00000  Uiso   1.00
H221   H     0.15372   0.65573   0.16996   0.00000  Uiso   1.00
O222   O     0.54562   0.18123   0.83426   0.00000  Uiso   1.00
O223   O     0.49927   0.38252   0.86950   0.00000  Uiso   1.00
O224   O     0.11780   0.77872   0.23759   0.00000  Uiso   1.00
N225   N     0.37700   0.13264   0.87978   0.00000  Uiso   1.00
N226   N     0.63135   0.56347   0.90488   0.00000  Uiso   1.00
N227   N     0.07208   0.84578   0.16718   0.00000  Uiso   1.00
N228   N     0.43189   0.99973   0.87280   0.00000  Uiso   1.00
N229   N     0.68625   0.43056   0.89790   0.00000  Uiso   1.00
N230   N     0.12698   0.71286   0.16020   0.00000  Uiso   1.00
C231   C     0.83700   0.97796   0.31790   0.00000  Uiso   1.00
C232   C     0.76868   0.86671   0.28732   0.00000  Uiso   1.00
C233   C     0.81585   0.80376   0.26549   0.00000  Uiso   1.00
C234   C     0.73873   0.70438   0.23901   0.00000  Uiso   1.00
C235   C     0.65090   0.53700   0.19219   0.00000  Uiso   1.00
C236   C     0.81732   0.07221   0.29423   0.00000  Uiso   1.00
C237   C     0.90539   0.18205   0.27822   0.00000  Uiso   1.00
C238   C     0.86920   0.25566   0.25756   0.00000  Uiso   1.00
C239   C     0.85689   0.40737   0.22150   0.00000  Uiso   1.00
C240   C     0.77365   0.95072   0.36652   0.00000  Uiso   1.00
C241   C     0.82502   0.95845   0.41129   0.00000  Uiso   1.00
C242   C     0.75207   0.92981   0.45150   0.00000  Uiso   1.00
C243   C     0.67196   0.89289   0.52767   0.00000  Uiso   1.00
C244   C     0.61614   0.91340   0.30970   0.00000  Uiso   1.00
C245   C     0.64871   0.83165   0.28286   0.00000  Uiso   1.00
C246   C     0.57149   0.73233   0.25641   0.00000  Uiso   1.00
C247   C     0.61855   0.66925   0.23455   0.00000  Uiso   1.00
C248   C     0.69736   0.03715   0.28977   0.00000  Uiso   1.00
C249   C     0.66103   0.11062   0.26914   0.00000  Uiso   1.00
C250   C     0.74902   0.22054   0.25310   0.00000  Uiso   1.00
C251   C     0.65369   0.91566   0.36206   0.00000  Uiso   1.00
C252   C     0.58065   0.88702   0.40221   0.00000  Uiso   1.00
C253   C     0.63189   0.89469   0.44703   0.00000  Uiso   1.00
H254   H     0.93040   0.00526   0.32137   0.00000  Uiso   1.00
H255   H     0.90870   0.83093   0.26894   0.00000  Uiso   1.00
H256   H     0.99822   0.20916   0.28168   0.00000  Uiso   1.00
H257   H     0.91785   0.98558   0.41472   0.00000  Uiso   1.00
H258   H     0.83175   0.62221   0.20884   0.00000  Uiso   1.00
H259   H     0.02051   0.41974   0.23570   0.00000  Uiso   1.00
H260   H     0.85104   0.94830   0.51626   0.00000  Uiso   1.00
H261   H     0.52273   0.88611   0.30623   0.00000  Uiso   1.00
H262   H     0.47866   0.70522   0.25297   0.00000  Uiso   1.00
H263   H     0.56819   0.08346   0.26570   0.00000  Uiso   1.00
H264   H     0.48782   0.85989   0.39875   0.00000  Uiso   1.00
H265   H     0.48271   0.52018   0.19588   0.00000  Uiso   1.00
H266   H     0.67148   0.31773   0.22274   0.00000  Uiso   1.00
H267   H     0.50201   0.84628   0.50330   0.00000  Uiso   1.00
O268   O     0.63560   0.45438   0.16759   0.00000  Uiso   1.00
O269   O     0.88325   0.50073   0.20284   0.00000  Uiso   1.00
O270   O     0.66091   0.88220   0.57092   0.00000  Uiso   1.00
N271   N     0.75565   0.62300   0.21311   0.00000  Uiso   1.00
N272   N     0.93213   0.36865   0.23821   0.00000  Uiso   1.00
N273   N     0.77370   0.92792   0.50051   0.00000  Uiso   1.00
N274   N     0.56783   0.56811   0.20613   0.00000  Uiso   1.00
N275   N     0.74431   0.31375   0.23124   0.00000  Uiso   1.00
N276   N     0.58588   0.87302   0.49354   0.00000  Uiso   1.00
