data_job_04741
_audit_creation_date              2018-12-19
_audit_creation_method            'Materials Studio'
_symmetry_space_group_name_H-M    'P1'
_symmetry_Int_Tables_number       1
_symmetry_cell_setting            triclinic
loop_
_symmetry_equiv_pos_as_xyz
  x,y,z
_cell_length_a                    30.7033
_cell_length_b                    14.9996
_cell_length_c                    9.7906
_cell_angle_alpha                 90.0000
_cell_angle_beta                  90.0000
_cell_angle_gamma                 90.0000
loop_
_atom_site_label
_atom_site_type_symbol
_atom_site_fract_x
_atom_site_fract_y
_atom_site_fract_z
_atom_site_U_iso_or_equiv
_atom_site_adp_type
_atom_site_occupancy
C1     C     0.09053   0.02549   0.77638   0.00000  Uiso   1.00
C2     C     0.13466   0.98824   0.81943   0.00000  Uiso   1.00
C3     C     0.14127   0.91630   0.90613   0.00000  Uiso   1.00
C4     C     0.18413   0.89256   0.93292   0.00000  Uiso   1.00
C5     C     0.24733   0.82765   0.00863   0.00000  Uiso   1.00
C6     C     0.09097   0.12381   0.81600   0.00000  Uiso   1.00
C7     C     0.06085   0.16587   0.89980   0.00000  Uiso   1.00
C8     C     0.06694   0.25625   0.92370   0.00000  Uiso   1.00
C9     C     0.06230   0.40184   0.99400   0.00000  Uiso   1.00
C10    C     0.09007   0.02320   0.62068   0.00000  Uiso   1.00
C11    C     0.05918   0.98069   0.54024   0.00000  Uiso   1.00
C12    C     0.06450   0.98639   0.39967   0.00000  Uiso   1.00
C13    C     0.05846   0.97577   0.16671   0.00000  Uiso   1.00
C14    C     0.15489   0.11124   0.66979   0.00000  Uiso   1.00
C15    C     0.16961   0.03481   0.76154   0.00000  Uiso   1.00
C16    C     0.21248   0.01117   0.78820   0.00000  Uiso   1.00
C17    C     0.21915   0.93921   0.87492   0.00000  Uiso   1.00
C18    C     0.12593   0.17038   0.75811   0.00000  Uiso   1.00
C19    C     0.13206   0.26073   0.78188   0.00000  Uiso   1.00
C20    C     0.10196   0.30291   0.86570   0.00000  Uiso   1.00
C21    C     0.12502   0.06978   0.56278   0.00000  Uiso   1.00
C22    C     0.13039   0.07555   0.42232   0.00000  Uiso   1.00
C23    C     0.09952   0.03305   0.34168   0.00000  Uiso   1.00
H24    H     0.06331   0.98924   0.82145   0.00000  Uiso   1.00
H25    H     0.11421   0.88028   0.95092   0.00000  Uiso   1.00
H26    H     0.03380   0.12981   0.94458   0.00000  Uiso   1.00
H27    H     0.03214   0.94466   0.58507   0.00000  Uiso   1.00
H28    H     0.18605   0.78004   0.06896   0.00000  Uiso   1.00
H29    H     0.01651   0.30619   0.05556   0.00000  Uiso   1.00
H30    H     0.01299   0.91576   0.29747   0.00000  Uiso   1.00
H31    H     0.18210   0.14750   0.62472   0.00000  Uiso   1.00
H32    H     0.23952   0.04722   0.74339   0.00000  Uiso   1.00
H33    H     0.15911   0.29675   0.73706   0.00000  Uiso   1.00
H34    H     0.15745   0.11160   0.37755   0.00000  Uiso   1.00
H35    H     0.28776   0.91554   0.90053   0.00000  Uiso   1.00
H36    H     0.11821   0.44169   0.88713   0.00000  Uiso   1.00
H37    H     0.11469   0.05126   0.12904   0.00000  Uiso   1.00
O38    O     0.27253   0.77899   0.06640   0.00000  Uiso   1.00
O39    O     0.05009   0.46927   0.04879   0.00000  Uiso   1.00
O40    O     0.04547   0.95704   0.05420   0.00000  Uiso   1.00
N41    N     0.20211   0.82568   0.01301   0.00000  Uiso   1.00
N42    N     0.04360   0.31759   0.00050   0.00000  Uiso   1.00
N43    N     0.04030   0.95260   0.29175   0.00000  Uiso   1.00
N44    N     0.25684   0.89859   0.92238   0.00000  Uiso   1.00
N45    N     0.09832   0.39050   0.90987   0.00000  Uiso   1.00
N46    N     0.09503   0.02551   0.20112   0.00000  Uiso   1.00
C47    C     0.58813   0.81366   0.30670   0.00000  Uiso   1.00
C48    C     0.63321   0.77838   0.34343   0.00000  Uiso   1.00
C49    C     0.64190   0.70889   0.43295   0.00000  Uiso   1.00
C50    C     0.68533   0.68667   0.45290   0.00000  Uiso   1.00
C51    C     0.75024   0.62498   0.52021   0.00000  Uiso   1.00
C52    C     0.58878   0.91293   0.34023   0.00000  Uiso   1.00
C53    C     0.56010   0.95657   0.42704   0.00000  Uiso   1.00
C54    C     0.56612   0.04761   0.44428   0.00000  Uiso   1.00
C55    C     0.56202   0.19482   0.50653   0.00000  Uiso   1.00
C56    C     0.58467   0.80731   0.15164   0.00000  Uiso   1.00
C57    C     0.55253   0.76216   0.07988   0.00000  Uiso   1.00
C58    C     0.55509   0.76429   0.93832   0.00000  Uiso   1.00
C59    C     0.54461   0.74750   0.70777   0.00000  Uiso   1.00
C60    C     0.64981   0.89777   0.18292   0.00000  Uiso   1.00
C61    C     0.66672   0.82407   0.27620   0.00000  Uiso   1.00
C62    C     0.71015   0.80195   0.29601   0.00000  Uiso   1.00
C63    C     0.71890   0.73244   0.38555   0.00000  Uiso   1.00
C64    C     0.62228   0.95862   0.27300   0.00000  Uiso   1.00
C65    C     0.62835   0.04962   0.29010   0.00000  Uiso   1.00
C66    C     0.59969   0.09338   0.37692   0.00000  Uiso   1.00
C67    C     0.61817   0.85299   0.08440   0.00000  Uiso   1.00
C68    C     0.62078   0.85521   0.94293   0.00000  Uiso   1.00
C69    C     0.58866   0.81007   0.87097   0.00000  Uiso   1.00
H70    H     0.56204   0.77810   0.35905   0.00000  Uiso   1.00
H71    H     0.61596   0.67356   0.48498   0.00000  Uiso   1.00
H72    H     0.53417   0.92119   0.47905   0.00000  Uiso   1.00
H73    H     0.52661   0.72681   0.13194   0.00000  Uiso   1.00
H74    H     0.69052   0.57783   0.59498   0.00000  Uiso   1.00
H75    H     0.51805   0.09999   0.58245   0.00000  Uiso   1.00
H76    H     0.50209   0.69009   0.85050   0.00000  Uiso   1.00
H77    H     0.67590   0.93334   0.13058   0.00000  Uiso   1.00
H78    H     0.73607   0.83732   0.24397   0.00000  Uiso   1.00
H79    H     0.65428   0.08496   0.23805   0.00000  Uiso   1.00
H80    H     0.64671   0.89057   0.89094   0.00000  Uiso   1.00
H81    H     0.78801   0.71074   0.39937   0.00000  Uiso   1.00
H82    H     0.61553   0.23291   0.38684   0.00000  Uiso   1.00
H83    H     0.59958   0.82301   0.65489   0.00000  Uiso   1.00
O84    O     0.77679   0.57834   0.57593   0.00000  Uiso   1.00
O85    O     0.55051   0.26339   0.55946   0.00000  Uiso   1.00
O86    O     0.52958   0.72561   0.59917   0.00000  Uiso   1.00
N87    N     0.70521   0.62228   0.53336   0.00000  Uiso   1.00
N88    N     0.54396   0.11046   0.52166   0.00000  Uiso   1.00
N89    N     0.52904   0.72726   0.83735   0.00000  Uiso   1.00
N90    N     0.75766   0.69380   0.42811   0.00000  Uiso   1.00
N91    N     0.59642   0.18198   0.41641   0.00000  Uiso   1.00
N92    N     0.58149   0.79878   0.73209   0.00000  Uiso   1.00
C93    C     0.90947   0.97451   0.27638   0.00000  Uiso   1.00
C94    C     0.86534   0.01176   0.31943   0.00000  Uiso   1.00
C95    C     0.85873   0.08370   0.40613   0.00000  Uiso   1.00
C96    C     0.81587   0.10744   0.43292   0.00000  Uiso   1.00
C97    C     0.75267   0.17235   0.50863   0.00000  Uiso   1.00
C98    C     0.90903   0.87619   0.31600   0.00000  Uiso   1.00
C99    C     0.93915   0.83413   0.39980   0.00000  Uiso   1.00
C100   C     0.93306   0.74375   0.42370   0.00000  Uiso   1.00
C101   C     0.93770   0.59816   0.49400   0.00000  Uiso   1.00
C102   C     0.90993   0.97680   0.12068   0.00000  Uiso   1.00
C103   C     0.94082   0.01931   0.04024   0.00000  Uiso   1.00
C104   C     0.93550   0.01361   0.89967   0.00000  Uiso   1.00
C105   C     0.94154   0.02423   0.66671   0.00000  Uiso   1.00
C106   C     0.84511   0.88876   0.16979   0.00000  Uiso   1.00
C107   C     0.83039   0.96519   0.26154   0.00000  Uiso   1.00
C108   C     0.78752   0.98883   0.28820   0.00000  Uiso   1.00
C109   C     0.78085   0.06079   0.37492   0.00000  Uiso   1.00
C110   C     0.87407   0.82962   0.25811   0.00000  Uiso   1.00
C111   C     0.86794   0.73927   0.28188   0.00000  Uiso   1.00
C112   C     0.89804   0.69709   0.36570   0.00000  Uiso   1.00
C113   C     0.87498   0.93022   0.06278   0.00000  Uiso   1.00
C114   C     0.86961   0.92445   0.92232   0.00000  Uiso   1.00
C115   C     0.90048   0.96695   0.84168   0.00000  Uiso   1.00
H116   H     0.93669   0.01076   0.32145   0.00000  Uiso   1.00
H117   H     0.88579   0.11972   0.45092   0.00000  Uiso   1.00
H118   H     0.96620   0.87019   0.44458   0.00000  Uiso   1.00
H119   H     0.96786   0.05534   0.08507   0.00000  Uiso   1.00
H120   H     0.81395   0.21996   0.56896   0.00000  Uiso   1.00
H121   H     0.98349   0.69381   0.55556   0.00000  Uiso   1.00
H122   H     0.98701   0.08424   0.79747   0.00000  Uiso   1.00
H123   H     0.81790   0.85250   0.12472   0.00000  Uiso   1.00
H124   H     0.76048   0.95278   0.24339   0.00000  Uiso   1.00
H125   H     0.84089   0.70325   0.23706   0.00000  Uiso   1.00
H126   H     0.84255   0.88840   0.87755   0.00000  Uiso   1.00
H127   H     0.71224   0.08446   0.40053   0.00000  Uiso   1.00
H128   H     0.88179   0.55831   0.38713   0.00000  Uiso   1.00
H129   H     0.88531   0.94874   0.62904   0.00000  Uiso   1.00
O130   O     0.72747   0.22101   0.56640   0.00000  Uiso   1.00
O131   O     0.94991   0.53073   0.54879   0.00000  Uiso   1.00
O132   O     0.95453   0.04296   0.55420   0.00000  Uiso   1.00
N133   N     0.79789   0.17432   0.51301   0.00000  Uiso   1.00
N134   N     0.95640   0.68241   0.50050   0.00000  Uiso   1.00
N135   N     0.95970   0.04740   0.79175   0.00000  Uiso   1.00
N136   N     0.74316   0.10141   0.42238   0.00000  Uiso   1.00
N137   N     0.90168   0.60950   0.40987   0.00000  Uiso   1.00
N138   N     0.90497   0.97449   0.70112   0.00000  Uiso   1.00
C139   C     0.41187   0.18634   0.80670   0.00000  Uiso   1.00
C140   C     0.36679   0.22162   0.84343   0.00000  Uiso   1.00
C141   C     0.35810   0.29111   0.93295   0.00000  Uiso   1.00
C142   C     0.31467   0.31333   0.95290   0.00000  Uiso   1.00
C143   C     0.24976   0.37502   0.02021   0.00000  Uiso   1.00
C144   C     0.41122   0.08707   0.84023   0.00000  Uiso   1.00
C145   C     0.43990   0.04343   0.92704   0.00000  Uiso   1.00
C146   C     0.43388   0.95239   0.94428   0.00000  Uiso   1.00
C147   C     0.43798   0.80518   0.00653   0.00000  Uiso   1.00
C148   C     0.41533   0.19269   0.65164   0.00000  Uiso   1.00
C149   C     0.44747   0.23784   0.57988   0.00000  Uiso   1.00
C150   C     0.44491   0.23571   0.43832   0.00000  Uiso   1.00
C151   C     0.45539   0.25250   0.20777   0.00000  Uiso   1.00
C152   C     0.35019   0.10223   0.68292   0.00000  Uiso   1.00
C153   C     0.33328   0.17593   0.77620   0.00000  Uiso   1.00
C154   C     0.28985   0.19805   0.79601   0.00000  Uiso   1.00
C155   C     0.28110   0.26756   0.88555   0.00000  Uiso   1.00
C156   C     0.37772   0.04138   0.77300   0.00000  Uiso   1.00
C157   C     0.37165   0.95038   0.79010   0.00000  Uiso   1.00
C158   C     0.40031   0.90662   0.87692   0.00000  Uiso   1.00
C159   C     0.38183   0.14701   0.58440   0.00000  Uiso   1.00
C160   C     0.37922   0.14479   0.44293   0.00000  Uiso   1.00
C161   C     0.41134   0.18993   0.37097   0.00000  Uiso   1.00
H162   H     0.43796   0.22190   0.85905   0.00000  Uiso   1.00
H163   H     0.38404   0.32644   0.98498   0.00000  Uiso   1.00
H164   H     0.46583   0.07881   0.97905   0.00000  Uiso   1.00
H165   H     0.47339   0.27319   0.63194   0.00000  Uiso   1.00
H166   H     0.30948   0.42217   0.09498   0.00000  Uiso   1.00
H167   H     0.48195   0.90001   0.08245   0.00000  Uiso   1.00
H168   H     0.49791   0.30991   0.35050   0.00000  Uiso   1.00
H169   H     0.32410   0.06666   0.63058   0.00000  Uiso   1.00
H170   H     0.26393   0.16268   0.74397   0.00000  Uiso   1.00
H171   H     0.34572   0.91504   0.73805   0.00000  Uiso   1.00
H172   H     0.35329   0.10943   0.39094   0.00000  Uiso   1.00
H173   H     0.21199   0.28926   0.89937   0.00000  Uiso   1.00
H174   H     0.38447   0.76709   0.88684   0.00000  Uiso   1.00
H175   H     0.40042   0.17699   0.15489   0.00000  Uiso   1.00
O176   O     0.22321   0.42166   0.07593   0.00000  Uiso   1.00
O177   O     0.44949   0.73661   0.05946   0.00000  Uiso   1.00
O178   O     0.47042   0.27439   0.09917   0.00000  Uiso   1.00
N179   N     0.29479   0.37772   0.03336   0.00000  Uiso   1.00
N180   N     0.45604   0.88954   0.02166   0.00000  Uiso   1.00
N181   N     0.47096   0.27274   0.33735   0.00000  Uiso   1.00
N182   N     0.24234   0.30620   0.92811   0.00000  Uiso   1.00
N183   N     0.40358   0.81802   0.91641   0.00000  Uiso   1.00
N184   N     0.41851   0.20122   0.23209   0.00000  Uiso   1.00
C185   C     0.59053   0.47451   0.77638   0.00000  Uiso   1.00
C186   C     0.63466   0.51176   0.81943   0.00000  Uiso   1.00
C187   C     0.64127   0.58370   0.90613   0.00000  Uiso   1.00
C188   C     0.68413   0.60744   0.93292   0.00000  Uiso   1.00
C189   C     0.74733   0.67235   0.00863   0.00000  Uiso   1.00
C190   C     0.59097   0.37619   0.81600   0.00000  Uiso   1.00
C191   C     0.56085   0.33413   0.89980   0.00000  Uiso   1.00
C192   C     0.56694   0.24375   0.92370   0.00000  Uiso   1.00
C193   C     0.56230   0.09816   0.99400   0.00000  Uiso   1.00
C194   C     0.59007   0.47680   0.62068   0.00000  Uiso   1.00
C195   C     0.55918   0.51931   0.54024   0.00000  Uiso   1.00
C196   C     0.56450   0.51361   0.39967   0.00000  Uiso   1.00
C197   C     0.55846   0.52423   0.16671   0.00000  Uiso   1.00
C198   C     0.65489   0.38876   0.66979   0.00000  Uiso   1.00
C199   C     0.66961   0.46519   0.76154   0.00000  Uiso   1.00
C200   C     0.71248   0.48883   0.78820   0.00000  Uiso   1.00
C201   C     0.71915   0.56079   0.87492   0.00000  Uiso   1.00
C202   C     0.62593   0.32962   0.75811   0.00000  Uiso   1.00
C203   C     0.63206   0.23927   0.78188   0.00000  Uiso   1.00
C204   C     0.60196   0.19709   0.86570   0.00000  Uiso   1.00
C205   C     0.62502   0.43022   0.56278   0.00000  Uiso   1.00
C206   C     0.63039   0.42445   0.42232   0.00000  Uiso   1.00
C207   C     0.59952   0.46695   0.34168   0.00000  Uiso   1.00
H208   H     0.56331   0.51076   0.82145   0.00000  Uiso   1.00
H209   H     0.61421   0.61972   0.95092   0.00000  Uiso   1.00
H210   H     0.53380   0.37019   0.94458   0.00000  Uiso   1.00
H211   H     0.53214   0.55534   0.58507   0.00000  Uiso   1.00
H212   H     0.68605   0.71996   0.06896   0.00000  Uiso   1.00
H213   H     0.51651   0.19381   0.05556   0.00000  Uiso   1.00
H214   H     0.51299   0.58424   0.29747   0.00000  Uiso   1.00
H215   H     0.68210   0.35250   0.62472   0.00000  Uiso   1.00
H216   H     0.73952   0.45278   0.74339   0.00000  Uiso   1.00
H217   H     0.65911   0.20325   0.73706   0.00000  Uiso   1.00
H218   H     0.65745   0.38840   0.37755   0.00000  Uiso   1.00
H219   H     0.78776   0.58446   0.90053   0.00000  Uiso   1.00
H220   H     0.61821   0.05831   0.88713   0.00000  Uiso   1.00
H221   H     0.61469   0.44874   0.12904   0.00000  Uiso   1.00
O222   O     0.77253   0.72101   0.06640   0.00000  Uiso   1.00
O223   O     0.55009   0.03073   0.04879   0.00000  Uiso   1.00
O224   O     0.54547   0.54296   0.05420   0.00000  Uiso   1.00
N225   N     0.70211   0.67432   0.01301   0.00000  Uiso   1.00
N226   N     0.54360   0.18241   0.00050   0.00000  Uiso   1.00
N227   N     0.54030   0.54740   0.29175   0.00000  Uiso   1.00
N228   N     0.75684   0.60141   0.92238   0.00000  Uiso   1.00
N229   N     0.59832   0.10950   0.90987   0.00000  Uiso   1.00
N230   N     0.59503   0.47449   0.20112   0.00000  Uiso   1.00
C231   C     0.08813   0.68634   0.30670   0.00000  Uiso   1.00
C232   C     0.13321   0.72162   0.34343   0.00000  Uiso   1.00
C233   C     0.14190   0.79111   0.43295   0.00000  Uiso   1.00
C234   C     0.18533   0.81333   0.45290   0.00000  Uiso   1.00
C235   C     0.25024   0.87502   0.52021   0.00000  Uiso   1.00
C236   C     0.08878   0.58707   0.34023   0.00000  Uiso   1.00
C237   C     0.06010   0.54343   0.42704   0.00000  Uiso   1.00
C238   C     0.06612   0.45239   0.44428   0.00000  Uiso   1.00
C239   C     0.06202   0.30518   0.50653   0.00000  Uiso   1.00
C240   C     0.08467   0.69269   0.15164   0.00000  Uiso   1.00
C241   C     0.05253   0.73784   0.07988   0.00000  Uiso   1.00
C242   C     0.05509   0.73571   0.93832   0.00000  Uiso   1.00
C243   C     0.04461   0.75250   0.70777   0.00000  Uiso   1.00
C244   C     0.14981   0.60223   0.18292   0.00000  Uiso   1.00
C245   C     0.16672   0.67593   0.27620   0.00000  Uiso   1.00
C246   C     0.21015   0.69805   0.29601   0.00000  Uiso   1.00
C247   C     0.21890   0.76756   0.38555   0.00000  Uiso   1.00
C248   C     0.12228   0.54138   0.27300   0.00000  Uiso   1.00
C249   C     0.12835   0.45038   0.29010   0.00000  Uiso   1.00
C250   C     0.09969   0.40662   0.37692   0.00000  Uiso   1.00
C251   C     0.11817   0.64701   0.08440   0.00000  Uiso   1.00
C252   C     0.12078   0.64479   0.94293   0.00000  Uiso   1.00
C253   C     0.08866   0.68993   0.87097   0.00000  Uiso   1.00
H254   H     0.06204   0.72190   0.35905   0.00000  Uiso   1.00
H255   H     0.11596   0.82644   0.48498   0.00000  Uiso   1.00
H256   H     0.03417   0.57881   0.47905   0.00000  Uiso   1.00
H257   H     0.02661   0.77319   0.13194   0.00000  Uiso   1.00
H258   H     0.19052   0.92217   0.59498   0.00000  Uiso   1.00
H259   H     0.01805   0.40001   0.58245   0.00000  Uiso   1.00
H260   H     0.00209   0.80991   0.85050   0.00000  Uiso   1.00
H261   H     0.17590   0.56666   0.13058   0.00000  Uiso   1.00
H262   H     0.23607   0.66268   0.24397   0.00000  Uiso   1.00
H263   H     0.15428   0.41504   0.23805   0.00000  Uiso   1.00
H264   H     0.14671   0.60943   0.89094   0.00000  Uiso   1.00
H265   H     0.28801   0.78926   0.39937   0.00000  Uiso   1.00
H266   H     0.11553   0.26709   0.38684   0.00000  Uiso   1.00
H267   H     0.09958   0.67699   0.65489   0.00000  Uiso   1.00
O268   O     0.27679   0.92166   0.57593   0.00000  Uiso   1.00
O269   O     0.05051   0.23661   0.55946   0.00000  Uiso   1.00
O270   O     0.02958   0.77439   0.59917   0.00000  Uiso   1.00
N271   N     0.20521   0.87772   0.53336   0.00000  Uiso   1.00
N272   N     0.04396   0.38954   0.52166   0.00000  Uiso   1.00
N273   N     0.02904   0.77274   0.83735   0.00000  Uiso   1.00
N274   N     0.25766   0.80620   0.42811   0.00000  Uiso   1.00
N275   N     0.09642   0.31802   0.41641   0.00000  Uiso   1.00
N276   N     0.08149   0.70122   0.73209   0.00000  Uiso   1.00
C277   C     0.40947   0.52549   0.27638   0.00000  Uiso   1.00
C278   C     0.36534   0.48824   0.31943   0.00000  Uiso   1.00
C279   C     0.35873   0.41630   0.40613   0.00000  Uiso   1.00
C280   C     0.31587   0.39256   0.43292   0.00000  Uiso   1.00
C281   C     0.25267   0.32765   0.50863   0.00000  Uiso   1.00
C282   C     0.40903   0.62381   0.31600   0.00000  Uiso   1.00
C283   C     0.43915   0.66587   0.39980   0.00000  Uiso   1.00
C284   C     0.43306   0.75625   0.42370   0.00000  Uiso   1.00
C285   C     0.43770   0.90184   0.49400   0.00000  Uiso   1.00
C286   C     0.40993   0.52320   0.12068   0.00000  Uiso   1.00
C287   C     0.44082   0.48069   0.04024   0.00000  Uiso   1.00
C288   C     0.43550   0.48639   0.89967   0.00000  Uiso   1.00
C289   C     0.44154   0.47577   0.66671   0.00000  Uiso   1.00
C290   C     0.34511   0.61124   0.16979   0.00000  Uiso   1.00
C291   C     0.33039   0.53481   0.26154   0.00000  Uiso   1.00
C292   C     0.28752   0.51117   0.28820   0.00000  Uiso   1.00
C293   C     0.28085   0.43921   0.37492   0.00000  Uiso   1.00
C294   C     0.37407   0.67038   0.25811   0.00000  Uiso   1.00
C295   C     0.36794   0.76073   0.28188   0.00000  Uiso   1.00
C296   C     0.39804   0.80291   0.36570   0.00000  Uiso   1.00
C297   C     0.37498   0.56978   0.06278   0.00000  Uiso   1.00
C298   C     0.36961   0.57555   0.92232   0.00000  Uiso   1.00
C299   C     0.40048   0.53305   0.84168   0.00000  Uiso   1.00
H300   H     0.43669   0.48924   0.32145   0.00000  Uiso   1.00
H301   H     0.38579   0.38028   0.45092   0.00000  Uiso   1.00
H302   H     0.46620   0.62981   0.44458   0.00000  Uiso   1.00
H303   H     0.46786   0.44466   0.08507   0.00000  Uiso   1.00
H304   H     0.31395   0.28004   0.56896   0.00000  Uiso   1.00
H305   H     0.48349   0.80619   0.55556   0.00000  Uiso   1.00
H306   H     0.48701   0.41576   0.79747   0.00000  Uiso   1.00
H307   H     0.31790   0.64750   0.12472   0.00000  Uiso   1.00
H308   H     0.26048   0.54722   0.24339   0.00000  Uiso   1.00
H309   H     0.34089   0.79675   0.23706   0.00000  Uiso   1.00
H310   H     0.34255   0.61160   0.87755   0.00000  Uiso   1.00
H311   H     0.21224   0.41554   0.40053   0.00000  Uiso   1.00
H312   H     0.38179   0.94169   0.38713   0.00000  Uiso   1.00
H313   H     0.38531   0.55126   0.62904   0.00000  Uiso   1.00
O314   O     0.22747   0.27899   0.56640   0.00000  Uiso   1.00
O315   O     0.44991   0.96927   0.54879   0.00000  Uiso   1.00
O316   O     0.45453   0.45704   0.55420   0.00000  Uiso   1.00
N317   N     0.29789   0.32568   0.51301   0.00000  Uiso   1.00
N318   N     0.45640   0.81759   0.50050   0.00000  Uiso   1.00
N319   N     0.45970   0.45260   0.79175   0.00000  Uiso   1.00
N320   N     0.24316   0.39859   0.42238   0.00000  Uiso   1.00
N321   N     0.40168   0.89050   0.40987   0.00000  Uiso   1.00
N322   N     0.40497   0.52551   0.70112   0.00000  Uiso   1.00
C323   C     0.91187   0.31366   0.80670   0.00000  Uiso   1.00
C324   C     0.86679   0.27838   0.84343   0.00000  Uiso   1.00
C325   C     0.85810   0.20889   0.93295   0.00000  Uiso   1.00
C326   C     0.81467   0.18667   0.95290   0.00000  Uiso   1.00
C327   C     0.74976   0.12498   0.02021   0.00000  Uiso   1.00
C328   C     0.91122   0.41293   0.84023   0.00000  Uiso   1.00
C329   C     0.93990   0.45657   0.92704   0.00000  Uiso   1.00
C330   C     0.93388   0.54761   0.94428   0.00000  Uiso   1.00
C331   C     0.93798   0.69482   0.00653   0.00000  Uiso   1.00
C332   C     0.91533   0.30731   0.65164   0.00000  Uiso   1.00
C333   C     0.94747   0.26216   0.57988   0.00000  Uiso   1.00
C334   C     0.94491   0.26429   0.43832   0.00000  Uiso   1.00
C335   C     0.95539   0.24750   0.20777   0.00000  Uiso   1.00
C336   C     0.85019   0.39777   0.68292   0.00000  Uiso   1.00
C337   C     0.83328   0.32407   0.77620   0.00000  Uiso   1.00
C338   C     0.78985   0.30195   0.79601   0.00000  Uiso   1.00
C339   C     0.78110   0.23244   0.88555   0.00000  Uiso   1.00
C340   C     0.87772   0.45862   0.77300   0.00000  Uiso   1.00
C341   C     0.87165   0.54962   0.79010   0.00000  Uiso   1.00
C342   C     0.90031   0.59338   0.87692   0.00000  Uiso   1.00
C343   C     0.88183   0.35299   0.58440   0.00000  Uiso   1.00
C344   C     0.87922   0.35521   0.44293   0.00000  Uiso   1.00
C345   C     0.91134   0.31007   0.37097   0.00000  Uiso   1.00
H346   H     0.93796   0.27810   0.85905   0.00000  Uiso   1.00
H347   H     0.88404   0.17356   0.98498   0.00000  Uiso   1.00
H348   H     0.96583   0.42119   0.97905   0.00000  Uiso   1.00
H349   H     0.97339   0.22681   0.63194   0.00000  Uiso   1.00
H350   H     0.80948   0.07783   0.09498   0.00000  Uiso   1.00
H351   H     0.98195   0.59999   0.08245   0.00000  Uiso   1.00
H352   H     0.99791   0.19009   0.35050   0.00000  Uiso   1.00
H353   H     0.82410   0.43334   0.63058   0.00000  Uiso   1.00
H354   H     0.76393   0.33732   0.74397   0.00000  Uiso   1.00
H355   H     0.84572   0.58496   0.73805   0.00000  Uiso   1.00
H356   H     0.85329   0.39057   0.39094   0.00000  Uiso   1.00
H357   H     0.71199   0.21074   0.89937   0.00000  Uiso   1.00
H358   H     0.88447   0.73291   0.88684   0.00000  Uiso   1.00
H359   H     0.90042   0.32301   0.15489   0.00000  Uiso   1.00
O360   O     0.72321   0.07834   0.07593   0.00000  Uiso   1.00
O361   O     0.94949   0.76339   0.05946   0.00000  Uiso   1.00
O362   O     0.97042   0.22561   0.09917   0.00000  Uiso   1.00
N363   N     0.79479   0.12228   0.03336   0.00000  Uiso   1.00
N364   N     0.95604   0.61046   0.02166   0.00000  Uiso   1.00
N365   N     0.97096   0.22726   0.33735   0.00000  Uiso   1.00
N366   N     0.74234   0.19380   0.92811   0.00000  Uiso   1.00
N367   N     0.90358   0.68198   0.91641   0.00000  Uiso   1.00
N368   N     0.91851   0.29878   0.23209   0.00000  Uiso   1.00
