data_job_06540
_audit_creation_date              2018-12-19
_audit_creation_method            'Materials Studio'
_symmetry_space_group_name_H-M    'P1'
_symmetry_Int_Tables_number       1
_symmetry_cell_setting            triclinic
loop_
_symmetry_equiv_pos_as_xyz
  x,y,z
_cell_length_a                    18.6921
_cell_length_b                    20.9253
_cell_length_c                    23.0442
_cell_angle_alpha                 63.3678
_cell_angle_beta                  102.4210
_cell_angle_gamma                 81.7276
loop_
_atom_site_label
_atom_site_type_symbol
_atom_site_fract_x
_atom_site_fract_y
_atom_site_fract_z
_atom_site_U_iso_or_equiv
_atom_site_adp_type
_atom_site_occupancy
C1     C     0.40956   0.13532   0.72004   0.00000  Uiso   1.00
C2     C     0.43037   0.16417   0.76977   0.00000  Uiso   1.00
C3     C     0.39573   0.23325   0.75963   0.00000  Uiso   1.00
C4     C     0.42304   0.24915   0.81123   0.00000  Uiso   1.00
C5     C     0.44629   0.30178   0.87937   0.00000  Uiso   1.00
C6     C     0.48268   0.11457   0.70551   0.00000  Uiso   1.00
C7     C     0.49201   0.14194   0.64132   0.00000  Uiso   1.00
C8     C     0.56335   0.11607   0.63883   0.00000  Uiso   1.00
C9     C     0.66779   0.09166   0.60719   0.00000  Uiso   1.00
C10    C     0.39108   0.06238   0.76001   0.00000  Uiso   1.00
C11    C     0.32340   0.04586   0.74164   0.00000  Uiso   1.00
C12    C     0.31763   0.97604   0.78503   0.00000  Uiso   1.00
C13    C     0.27985   0.87059   0.83801   0.00000  Uiso   1.00
C14    C     0.51967   0.04071   0.82973   0.00000  Uiso   1.00
C15    C     0.49018   0.11279   0.82935   0.00000  Uiso   1.00
C16    C     0.51755   0.12858   0.88098   0.00000  Uiso   1.00
C17    C     0.48295   0.19767   0.87092   0.00000  Uiso   1.00
C18    C     0.54249   0.06319   0.76508   0.00000  Uiso   1.00
C19    C     0.61383   0.03727   0.76268   0.00000  Uiso   1.00
C20    C     0.62326   0.06459   0.69851   0.00000  Uiso   1.00
C21    C     0.45089   0.01099   0.81959   0.00000  Uiso   1.00
C22    C     0.44522   0.94119   0.86300   0.00000  Uiso   1.00
C23    C     0.37754   0.92456   0.84471   0.00000  Uiso   1.00
H24    H     0.36300   0.17533   0.67366   0.00000  Uiso   1.00
H25    H     0.34945   0.27301   0.71351   0.00000  Uiso   1.00
H26    H     0.44571   0.18170   0.59523   0.00000  Uiso   1.00
H27    H     0.27713   0.08564   0.69554   0.00000  Uiso   1.00
H28    H     0.36083   0.35865   0.78396   0.00000  Uiso   1.00
H29    H     0.56379   0.16611   0.53455   0.00000  Uiso   1.00
H30    H     0.20830   0.96354   0.74607   0.00000  Uiso   1.00
H31    H     0.56623   0.00070   0.87611   0.00000  Uiso   1.00
H32    H     0.56384   0.08880   0.92708   0.00000  Uiso   1.00
H33    H     0.66010   0.99750   0.80879   0.00000  Uiso   1.00
H34    H     0.49152   0.90143   0.90910   0.00000  Uiso   1.00
H35    H     0.53483   0.20914   0.95730   0.00000  Uiso   1.00
H36    H     0.73779   0.01660   0.70789   0.00000  Uiso   1.00
H37    H     0.38231   0.81403   0.91941   0.00000  Uiso   1.00
O38    O     0.44260   0.34501   0.90050   0.00000  Uiso   1.00
O39    O     0.70887   0.09240   0.57328   0.00000  Uiso   1.00
O40    O     0.24248   0.82663   0.85079   0.00000  Uiso   1.00
N41    N     0.40210   0.31137   0.81777   0.00000  Uiso   1.00
N42    N     0.59186   0.13137   0.58459   0.00000  Uiso   1.00
N43    N     0.25951   0.94197   0.78233   0.00000  Uiso   1.00
N44    N     0.49573   0.23092   0.91104   0.00000  Uiso   1.00
N45    N     0.68549   0.05092   0.67786   0.00000  Uiso   1.00
N46    N     0.35314   0.86152   0.87560   0.00000  Uiso   1.00
C47    C     0.55422   0.66606   0.74640   0.00000  Uiso   1.00
C48    C     0.49891   0.63118   0.78217   0.00000  Uiso   1.00
C49    C     0.45467   0.59057   0.76498   0.00000  Uiso   1.00
C50    C     0.40767   0.56333   0.80394   0.00000  Uiso   1.00
C51    C     0.32215   0.50724   0.85121   0.00000  Uiso   1.00
C52    C     0.52915   0.74861   0.72350   0.00000  Uiso   1.00
C53    C     0.51035   0.80673   0.65699   0.00000  Uiso   1.00
C54    C     0.48881   0.87834   0.64657   0.00000  Uiso   1.00
C55    C     0.45030   0.00456   0.60276   0.00000  Uiso   1.00
C56    C     0.63130   0.63474   0.80190   0.00000  Uiso   1.00
C57    C     0.69840   0.59713   0.80130   0.00000  Uiso   1.00
C58    C     0.76288   0.57289   0.85689   0.00000  Uiso   1.00
C59    C     0.88297   0.52230   0.93481   0.00000  Uiso   1.00
C60    C     0.54940   0.68991   0.84617   0.00000  Uiso   1.00
C61    C     0.49629   0.64414   0.83636   0.00000  Uiso   1.00
C62    C     0.44934   0.61695   0.87536   0.00000  Uiso   1.00
C63    C     0.40505   0.57630   0.85823   0.00000  Uiso   1.00
C64    C     0.52653   0.76156   0.77769   0.00000  Uiso   1.00
C65    C     0.50502   0.83311   0.76737   0.00000  Uiso   1.00
C66    C     0.48619   0.89132   0.70085   0.00000  Uiso   1.00
C67    C     0.62869   0.64769   0.85610   0.00000  Uiso   1.00
C68    C     0.69307   0.62351   0.91169   0.00000  Uiso   1.00
C69    C     0.76026   0.58586   0.91117   0.00000  Uiso   1.00
H70    H     0.55626   0.65598   0.70421   0.00000  Uiso   1.00
H71    H     0.45671   0.58056   0.72303   0.00000  Uiso   1.00
H72    H     0.51239   0.79668   0.61506   0.00000  Uiso   1.00
H73    H     0.70041   0.58711   0.75936   0.00000  Uiso   1.00
H74    H     0.34517   0.50268   0.76778   0.00000  Uiso   1.00
H75    H     0.46259   0.95839   0.54012   0.00000  Uiso   1.00
H76    H     0.85907   0.51647   0.84440   0.00000  Uiso   1.00
H77    H     0.54737   0.69999   0.88836   0.00000  Uiso   1.00
H78    H     0.44733   0.62699   0.91729   0.00000  Uiso   1.00
H79    H     0.50301   0.84312   0.80931   0.00000  Uiso   1.00
H80    H     0.69103   0.63354   0.95361   0.00000  Uiso   1.00
H81    H     0.33755   0.54037   0.92545   0.00000  Uiso   1.00
H82    H     0.45498   0.99608   0.69778   0.00000  Uiso   1.00
H83    H     0.85146   0.55416   0.00206   0.00000  Uiso   1.00
O84    O     0.27570   0.47273   0.86231   0.00000  Uiso   1.00
O85    O     0.42977   0.07060   0.56362   0.00000  Uiso   1.00
O86    O     0.94993   0.49081   0.96283   0.00000  Uiso   1.00
N87    N     0.35712   0.52156   0.80093   0.00000  Uiso   1.00
N88    N     0.46689   0.94762   0.58807   0.00000  Uiso   1.00
N89    N     0.83757   0.53448   0.87254   0.00000  Uiso   1.00
N90    N     0.35302   0.54183   0.88577   0.00000  Uiso   1.00
N91    N     0.46279   0.96790   0.67291   0.00000  Uiso   1.00
N92    N     0.83347   0.55476   0.95738   0.00000  Uiso   1.00
C93    C     0.90739   0.86096   0.82504   0.00000  Uiso   1.00
C94    C     0.97463   0.79259   0.85517   0.00000  Uiso   1.00
C95    C     0.04999   0.79290   0.86078   0.00000  Uiso   1.00
C96    C     0.10307   0.72450   0.88984   0.00000  Uiso   1.00
C97    C     0.21076   0.62842   0.93315   0.00000  Uiso   1.00
C98    C     0.85029   0.85924   0.76785   0.00000  Uiso   1.00
C99    C     0.82110   0.91560   0.70005   0.00000  Uiso   1.00
C100   C     0.76950   0.90332   0.65560   0.00000  Uiso   1.00
C101   C     0.68410   0.91074   0.56337   0.00000  Uiso   1.00
C102   C     0.87001   0.84743   0.88061   0.00000  Uiso   1.00
C103   C     0.85738   0.89387   0.90761   0.00000  Uiso   1.00
C104   C     0.82237   0.87165   0.95809   0.00000  Uiso   1.00
C105   C     0.76759   0.86074   0.04093   0.00000  Uiso   1.00
C106   C     0.86766   0.73894   0.86667   0.00000  Uiso   1.00
C107   C     0.95305   0.72631   0.87779   0.00000  Uiso   1.00
C108   C     0.00603   0.65790   0.90685   0.00000  Uiso   1.00
C109   C     0.08145   0.65811   0.91249   0.00000  Uiso   1.00
C110   C     0.82871   0.79297   0.79047   0.00000  Uiso   1.00
C111   C     0.77714   0.78060   0.74611   0.00000  Uiso   1.00
C112   C     0.74788   0.83692   0.67826   0.00000  Uiso   1.00
C113   C     0.84843   0.78115   0.90323   0.00000  Uiso   1.00
C114   C     0.81343   0.75886   0.95367   0.00000  Uiso   1.00
C115   C     0.80074   0.80526   0.98074   0.00000  Uiso   1.00
H116   H     0.92419   0.91256   0.80743   0.00000  Uiso   1.00
H117   H     0.06667   0.84420   0.84327   0.00000  Uiso   1.00
H118   H     0.83780   0.96689   0.68256   0.00000  Uiso   1.00
H119   H     0.87408   0.94516   0.89009   0.00000  Uiso   1.00
H120   H     0.21511   0.73919   0.89295   0.00000  Uiso   1.00
H121   H     0.73252   0.99789   0.55410   0.00000  Uiso   1.00
H122   H     0.80902   0.95207   0.99172   0.00000  Uiso   1.00
H123   H     0.85085   0.68734   0.88428   0.00000  Uiso   1.00
H124   H     0.98932   0.60661   0.92434   0.00000  Uiso   1.00
H125   H     0.76045   0.72930   0.76363   0.00000  Uiso   1.00
H126   H     0.79673   0.70757   0.97116   0.00000  Uiso   1.00
H127   H     0.15233   0.54635   0.95875   0.00000  Uiso   1.00
H128   H     0.66973   0.80506   0.61990   0.00000  Uiso   1.00
H129   H     0.74624   0.75923   0.05752   0.00000  Uiso   1.00
O130   O     0.27612   0.59374   0.95079   0.00000  Uiso   1.00
O131   O     0.64297   0.93315   0.50624   0.00000  Uiso   1.00
O132   O     0.74335   0.87303   0.08039   0.00000  Uiso   1.00
N133   N     0.18134   0.70488   0.90295   0.00000  Uiso   1.00
N134   N     0.73015   0.94674   0.58614   0.00000  Uiso   1.00
N135   N     0.80166   0.90392   0.99527   0.00000  Uiso   1.00
N136   N     0.14755   0.60112   0.93836   0.00000  Uiso   1.00
N137   N     0.69637   0.84298   0.62155   0.00000  Uiso   1.00
N138   N     0.76788   0.80015   0.03067   0.00000  Uiso   1.00
C139   C     0.07571   0.14556   0.30669   0.00000  Uiso   1.00
C140   C     0.05354   0.17660   0.35084   0.00000  Uiso   1.00
C141   C     0.05758   0.24531   0.34379   0.00000  Uiso   1.00
C142   C     0.03465   0.26346   0.38923   0.00000  Uiso   1.00
C143   C     0.00414   0.31911   0.45006   0.00000  Uiso   1.00
C144   C     0.00549   0.12729   0.27717   0.00000  Uiso   1.00
C145   C     0.96913   0.15453   0.20817   0.00000  Uiso   1.00
C146   C     0.90576   0.13116   0.19160   0.00000  Uiso   1.00
C147   C     0.80068   0.11021   0.13804   0.00000  Uiso   1.00
C148   C     0.13528   0.07116   0.35596   0.00000  Uiso   1.00
C149   C     0.20804   0.05118   0.35321   0.00000  Uiso   1.00
C150   C     0.25393   0.98055   0.40296   0.00000  Uiso   1.00
C151   C     0.35038   0.87244   0.47175   0.00000  Uiso   1.00
C152   C     0.02782   0.05563   0.39994   0.00000  Uiso   1.00
C153   C     0.02753   0.12776   0.40149   0.00000  Uiso   1.00
C154   C     0.00459   0.14581   0.44696   0.00000  Uiso   1.00
C155   C     0.00859   0.21453   0.43998   0.00000  Uiso   1.00
C156   C     0.97947   0.07845   0.32782   0.00000  Uiso   1.00
C157   C     0.91614   0.05503   0.31134   0.00000  Uiso   1.00
C158   C     0.87969   0.08223   0.24234   0.00000  Uiso   1.00
C159   C     0.10926   0.02231   0.40661   0.00000  Uiso   1.00
C160   C     0.15505   0.95169   0.45638   0.00000  Uiso   1.00
C161   C     0.22787   0.93161   0.45370   0.00000  Uiso   1.00
H162   H     0.09597   0.18359   0.26726   0.00000  Uiso   1.00
H163   H     0.07771   0.28310   0.30458   0.00000  Uiso   1.00
H164   H     0.98928   0.19232   0.16899   0.00000  Uiso   1.00
H165   H     0.22816   0.08900   0.31400   0.00000  Uiso   1.00
H166   H     0.04597   0.37189   0.36829   0.00000  Uiso   1.00
H167   H     0.85953   0.18047   0.08237   0.00000  Uiso   1.00
H168   H     0.36324   0.96259   0.38817   0.00000  Uiso   1.00
H169   H     0.00756   0.01760   0.43938   0.00000  Uiso   1.00
H170   H     0.98446   0.10800   0.48615   0.00000  Uiso   1.00
H171   H     0.89603   0.01723   0.35055   0.00000  Uiso   1.00
H172   H     0.13490   0.91390   0.49557   0.00000  Uiso   1.00
H173   H     0.97028   0.22978   0.51565   0.00000  Uiso   1.00
H174   H     0.78384   0.03835   0.22974   0.00000  Uiso   1.00
H175   H     0.28755   0.82048   0.53553   0.00000  Uiso   1.00
O176   O     0.99450   0.36331   0.46962   0.00000  Uiso   1.00
O177   O     0.74991   0.11216   0.09451   0.00000  Uiso   1.00
O178   O     0.41076   0.82631   0.49571   0.00000  Uiso   1.00
N179   N     0.03134   0.32603   0.39656   0.00000  Uiso   1.00
N180   N     0.85703   0.14707   0.12925   0.00000  Uiso   1.00
N181   N     0.32795   0.94337   0.41513   0.00000  Uiso   1.00
N182   N     0.99061   0.24956   0.47586   0.00000  Uiso   1.00
N183   N     0.81630   0.07060   0.20854   0.00000  Uiso   1.00
N184   N     0.28722   0.86690   0.49442   0.00000  Uiso   1.00
C185   C     0.26726   0.73345   0.23554   0.00000  Uiso   1.00
C186   C     0.34675   0.69622   0.28798   0.00000  Uiso   1.00
C187   C     0.41369   0.67901   0.27461   0.00000  Uiso   1.00
C188   C     0.48060   0.64504   0.32952   0.00000  Uiso   1.00
C189   C     0.60405   0.58973   0.40091   0.00000  Uiso   1.00
C190   C     0.23600   0.80268   0.23897   0.00000  Uiso   1.00
C191   C     0.20981   0.87497   0.18439   0.00000  Uiso   1.00
C192   C     0.18347   0.93062   0.19806   0.00000  Uiso   1.00
C193   C     0.13493   0.04058   0.19336   0.00000  Uiso   1.00
C194   C     0.21888   0.68109   0.26280   0.00000  Uiso   1.00
C195   C     0.17828   0.65116   0.22825   0.00000  Uiso   1.00
C196   C     0.13752   0.60444   0.26197   0.00000  Uiso   1.00
C197   C     0.06240   0.52561   0.29426   0.00000  Uiso   1.00
C198   C     0.26705   0.70373   0.35684   0.00000  Uiso   1.00
C199   C     0.34663   0.68009   0.35386   0.00000  Uiso   1.00
C200   C     0.41346   0.64613   0.40881   0.00000  Uiso   1.00
C201   C     0.48048   0.62887   0.39552   0.00000  Uiso   1.00
C202   C     0.23588   0.78655   0.30485   0.00000  Uiso   1.00
C203   C     0.20957   0.84210   0.31860   0.00000  Uiso   1.00
C204   C     0.18336   0.91445   0.26406   0.00000  Uiso   1.00
C205   C     0.21877   0.66495   0.32869   0.00000  Uiso   1.00
C206   C     0.17805   0.61828   0.36246   0.00000  Uiso   1.00
C207   C     0.13740   0.58827   0.32797   0.00000  Uiso   1.00
H208   H     0.26735   0.74602   0.18424   0.00000  Uiso   1.00
H209   H     0.41376   0.69152   0.22361   0.00000  Uiso   1.00
H210   H     0.20990   0.88745   0.13341   0.00000  Uiso   1.00
H211   H     0.17839   0.66366   0.17726   0.00000  Uiso   1.00
H212   H     0.57603   0.62400   0.29630   0.00000  Uiso   1.00
H213   H     0.14616   0.03712   0.10611   0.00000  Uiso   1.00
H214   H     0.07970   0.56523   0.19858   0.00000  Uiso   1.00
H215   H     0.26696   0.69117   0.40814   0.00000  Uiso   1.00
H216   H     0.41335   0.63365   0.45979   0.00000  Uiso   1.00
H217   H     0.20949   0.82958   0.36959   0.00000  Uiso   1.00
H218   H     0.17798   0.60580   0.41344   0.00000  Uiso   1.00
H219   H     0.57570   0.57703   0.48800   0.00000  Uiso   1.00
H220   H     0.14583   0.99016   0.29781   0.00000  Uiso   1.00
H221   H     0.07937   0.51826   0.39027   0.00000  Uiso   1.00
O222   O     0.67218   0.56369   0.42208   0.00000  Uiso   1.00
O223   O     0.10819   0.10569   0.17256   0.00000  Uiso   1.00
O224   O     0.02101   0.48657   0.29387   0.00000  Uiso   1.00
N225   N     0.55586   0.62082   0.33433   0.00000  Uiso   1.00
N226   N     0.15397   0.00707   0.15652   0.00000  Uiso   1.00
N227   N     0.09182   0.56591   0.24296   0.00000  Uiso   1.00
N228   N     0.55568   0.59555   0.43748   0.00000  Uiso   1.00
N229   N     0.15379   0.98180   0.25967   0.00000  Uiso   1.00
N230   N     0.09164   0.54063   0.34611   0.00000  Uiso   1.00
C231   C     0.84378   0.83405   0.33404   0.00000  Uiso   1.00
C232   C     0.86455   0.74934   0.37047   0.00000  Uiso   1.00
C233   C     0.81346   0.70678   0.37385   0.00000  Uiso   1.00
C234   C     0.84380   0.63009   0.40962   0.00000  Uiso   1.00
C235   C     0.86410   0.50355   0.46140   0.00000  Uiso   1.00
C236   C     0.88825   0.85717   0.28318   0.00000  Uiso   1.00
C237   C     0.85708   0.90528   0.21317   0.00000  Uiso   1.00
C238   C     0.90738   0.91936   0.17546   0.00000  Uiso   1.00
C239   C     0.96447   0.96027   0.09173   0.00000  Uiso   1.00
C240   C     0.87773   0.85418   0.38786   0.00000  Uiso   1.00
C241   C     0.83772   0.89980   0.40588   0.00000  Uiso   1.00
C242   C     0.87917   0.91138   0.45629   0.00000  Uiso   1.00
C243   C     0.91993   0.94765   0.53511   0.00000  Uiso   1.00
C244   C     0.98853   0.77353   0.39153   0.00000  Uiso   1.00
C245   C     0.94318   0.71647   0.40169   0.00000  Uiso   1.00
C246   C     0.97361   0.63982   0.43746   0.00000  Uiso   1.00
C247   C     0.92256   0.59715   0.44090   0.00000  Uiso   1.00
C248   C     0.96687   0.82429   0.31440   0.00000  Uiso   1.00
C249   C     0.01723   0.83831   0.27678   0.00000  Uiso   1.00
C250   C     0.98614   0.88642   0.20674   0.00000  Uiso   1.00
C251   C     0.95636   0.82130   0.41909   0.00000  Uiso   1.00
C252   C     0.99787   0.83282   0.46948   0.00000  Uiso   1.00
C253   C     0.95793   0.87844   0.48757   0.00000  Uiso   1.00
H254   H     0.78257   0.85965   0.30973   0.00000  Uiso   1.00
H255   H     0.75261   0.73225   0.34968   0.00000  Uiso   1.00
H256   H     0.79624   0.93071   0.18903   0.00000  Uiso   1.00
H257   H     0.77688   0.92523   0.38170   0.00000  Uiso   1.00
H258   H     0.75408   0.57650   0.40772   0.00000  Uiso   1.00
H259   H     0.84606   0.99500   0.06898   0.00000  Uiso   1.00
H260   H     0.80524   0.98343   0.47527   0.00000  Uiso   1.00
H261   H     0.04975   0.74793   0.41584   0.00000  Uiso   1.00
H262   H     0.03445   0.61439   0.46162   0.00000  Uiso   1.00
H263   H     0.07807   0.81286   0.30096   0.00000  Uiso   1.00
H264   H     0.05872   0.80737   0.49364   0.00000  Uiso   1.00
H265   H     0.98283   0.48084   0.49857   0.00000  Uiso   1.00
H266   H     0.07481   0.89935   0.15983   0.00000  Uiso   1.00
H267   H     0.03399   0.88777   0.56612   0.00000  Uiso   1.00
O268   O     0.85357   0.44284   0.48133   0.00000  Uiso   1.00
O269   O     0.97424   0.99191   0.03691   0.00000  Uiso   1.00
O270   O     0.92069   0.97672   0.56996   0.00000  Uiso   1.00
N271   N     0.81001   0.57231   0.42283   0.00000  Uiso   1.00
N272   N     0.89601   0.96357   0.10613   0.00000  Uiso   1.00
N273   N     0.85785   0.95277   0.48596   0.00000  Uiso   1.00
N274   N     0.93310   0.52084   0.47172   0.00000  Uiso   1.00
N275   N     0.01909   0.91210   0.15501   0.00000  Uiso   1.00
N276   N     0.98094   0.90130   0.53485   0.00000  Uiso   1.00
C277   C     0.60770   0.10923   0.18367   0.00000  Uiso   1.00
C278   C     0.57890   0.07726   0.13819   0.00000  Uiso   1.00
C279   C     0.62172   0.02027   0.13420   0.00000  Uiso   1.00
C280   C     0.58490   0.99899   0.08950   0.00000  Uiso   1.00
C281   C     0.55186   0.94407   0.02488   0.00000  Uiso   1.00
C282   C     0.55523   0.10151   0.22734   0.00000  Uiso   1.00
C283   C     0.57814   0.06494   0.29831   0.00000  Uiso   1.00
C284   C     0.52140   0.06408   0.32865   0.00000  Uiso   1.00
C285   C     0.45161   0.04687   0.40243   0.00000  Uiso   1.00
C286   C     0.59200   0.19245   0.13594   0.00000  Uiso   1.00
C287   C     0.64582   0.23233   0.13007   0.00000  Uiso   1.00
C288   C     0.62002   0.30805   0.08347   0.00000  Uiso   1.00
C289   C     0.60732   0.43202   0.01534   0.00000  Uiso   1.00
C290   C     0.46618   0.17276   0.11136   0.00000  Uiso   1.00
C291   C     0.50203   0.11177   0.09891   0.00000  Uiso   1.00
C292   C     0.46514   0.09057   0.05420   0.00000  Uiso   1.00
C293   C     0.50789   0.03356   0.05015   0.00000  Uiso   1.00
C294   C     0.47836   0.13602   0.18807   0.00000  Uiso   1.00
C295   C     0.42157   0.13523   0.21831   0.00000  Uiso   1.00
C296   C     0.44439   0.09866   0.28931   0.00000  Uiso   1.00
C297   C     0.51513   0.22696   0.09666   0.00000  Uiso   1.00
C298   C     0.48924   0.30263   0.05007   0.00000  Uiso   1.00
C299   C     0.54301   0.34262   0.04413   0.00000  Uiso   1.00
H300   H     0.66755   0.08236   0.21425   0.00000  Uiso   1.00
H301   H     0.68121   0.99357   0.16461   0.00000  Uiso   1.00
H302   H     0.63764   0.03824   0.32869   0.00000  Uiso   1.00
H303   H     0.70530   0.20561   0.16047   0.00000  Uiso   1.00
H304   H     0.66244   0.91034   0.09227   0.00000  Uiso   1.00
H305   H     0.57057   0.00454   0.43824   0.00000  Uiso   1.00
H306   H     0.71326   0.35747   0.08353   0.00000  Uiso   1.00
H307   H     0.40633   0.19963   0.08079   0.00000  Uiso   1.00
H308   H     0.40565   0.11728   0.02382   0.00000  Uiso   1.00
H309   H     0.36209   0.16195   0.18790   0.00000  Uiso   1.00
H310   H     0.42975   0.32931   0.01968   0.00000  Uiso   1.00
H311   H     0.43879   0.01075   0.97801   0.00000  Uiso   1.00
H312   H     0.34692   0.10495   0.32398   0.00000  Uiso   1.00
H313   H     0.48961   0.45788   0.96926   0.00000  Uiso   1.00
O314   O     0.55487   0.90424   0.00009   0.00000  Uiso   1.00
O315   O     0.43435   0.02784   0.45399   0.00000  Uiso   1.00
O316   O     0.62155   0.49087   0.98861   0.00000  Uiso   1.00
N317   N     0.60990   0.94528   0.07319   0.00000  Uiso   1.00
N318   N     0.52401   0.03334   0.39665   0.00000  Uiso   1.00
N319   N     0.65740   0.36331   0.06503   0.00000  Uiso   1.00
N320   N     0.48955   0.99931   0.01170   0.00000  Uiso   1.00
N321   N     0.40367   0.08737   0.33516   0.00000  Uiso   1.00
N322   N     0.53706   0.41733   0.00355   0.00000  Uiso   1.00
C323   C     0.60718   0.44983   0.30276   0.00000  Uiso   1.00
C324   C     0.66431   0.48820   0.27292   0.00000  Uiso   1.00
C325   C     0.70851   0.52297   0.29904   0.00000  Uiso   1.00
C326   C     0.75734   0.55478   0.26432   0.00000  Uiso   1.00
C327   C     0.84540   0.61476   0.22693   0.00000  Uiso   1.00
C328   C     0.63152   0.37046   0.31609   0.00000  Uiso   1.00
C329   C     0.64814   0.30623   0.37850   0.00000  Uiso   1.00
C330   C     0.66935   0.23893   0.38012   0.00000  Uiso   1.00
C331   C     0.70644   0.11611   0.40974   0.00000  Uiso   1.00
C332   C     0.53128   0.48719   0.24520   0.00000  Uiso   1.00
C333   C     0.46361   0.52110   0.24801   0.00000  Uiso   1.00
C334   C     0.40041   0.55207   0.18995   0.00000  Uiso   1.00
C335   C     0.28187   0.61051   0.10951   0.00000  Uiso   1.00
C336   C     0.61528   0.44451   0.19465   0.00000  Uiso   1.00
C337   C     0.66871   0.48531   0.21420   0.00000  Uiso   1.00
C338   C     0.71748   0.51708   0.17943   0.00000  Uiso   1.00
C339   C     0.76174   0.55189   0.20549   0.00000  Uiso   1.00
C340   C     0.63592   0.36756   0.25737   0.00000  Uiso   1.00
C341   C     0.65710   0.30034   0.25889   0.00000  Uiso   1.00
C342   C     0.67375   0.23603   0.32129   0.00000  Uiso   1.00
C343   C     0.53568   0.48431   0.18648   0.00000  Uiso   1.00
C344   C     0.47257   0.51522   0.12841   0.00000  Uiso   1.00
C345   C     0.40482   0.54918   0.13113   0.00000  Uiso   1.00
H346   H     0.60376   0.45208   0.34848   0.00000  Uiso   1.00
H347   H     0.70510   0.52519   0.34448   0.00000  Uiso   1.00
H348   H     0.64472   0.30848   0.42393   0.00000  Uiso   1.00
H349   H     0.46022   0.52333   0.29346   0.00000  Uiso   1.00
H350   H     0.81941   0.60494   0.31417   0.00000  Uiso   1.00
H351   H     0.69208   0.14801   0.48169   0.00000  Uiso   1.00
H352   H     0.30303   0.60105   0.20658   0.00000  Uiso   1.00
H353   H     0.61871   0.44226   0.14894   0.00000  Uiso   1.00
H354   H     0.72087   0.51484   0.13399   0.00000  Uiso   1.00
H355   H     0.66050   0.29813   0.21344   0.00000  Uiso   1.00
H356   H     0.47600   0.51298   0.08297   0.00000  Uiso   1.00
H357   H     0.83222   0.59654   0.14333   0.00000  Uiso   1.00
H358   H     0.70488   0.13960   0.31085   0.00000  Uiso   1.00
H359   H     0.31583   0.59265   0.03573   0.00000  Uiso   1.00
O360   O     0.89277   0.64864   0.22253   0.00000  Uiso   1.00
O361   O     0.72570   0.04916   0.44231   0.00000  Uiso   1.00
O362   O     0.21528   0.64354   0.08136   0.00000  Uiso   1.00
N363   N     0.80839   0.59302   0.27601   0.00000  Uiso   1.00
N364   N     0.68936   0.16581   0.43263   0.00000  Uiso   1.00
N365   N     0.32562   0.58935   0.17543   0.00000  Uiso   1.00
N366   N     0.81528   0.58850   0.18408   0.00000  Uiso   1.00
N367   N     0.69625   0.16129   0.34070   0.00000  Uiso   1.00
N368   N     0.33251   0.58483   0.08350   0.00000  Uiso   1.00
C369   C     0.19150   0.29760   0.18889   0.00000  Uiso   1.00
C370   C     0.13562   0.37335   0.16004   0.00000  Uiso   1.00
C371   C     0.06383   0.38545   0.16715   0.00000  Uiso   1.00
C372   C     0.02144   0.45889   0.13699   0.00000  Uiso   1.00
C373   C     0.93036   0.56751   0.09770   0.00000  Uiso   1.00
C374   C     0.26484   0.29780   0.23321   0.00000  Uiso   1.00
C375   C     0.30169   0.24638   0.30184   0.00000  Uiso   1.00
C376   C     0.36808   0.25622   0.33328   0.00000  Uiso   1.00
C377   C     0.47764   0.24752   0.40757   0.00000  Uiso   1.00
C378   C     0.20995   0.29629   0.12805   0.00000  Uiso   1.00
C379   C     0.20068   0.24358   0.10827   0.00000  Uiso   1.00
C380   C     0.22088   0.25213   0.05117   0.00000  Uiso   1.00
C381   C     0.24522   0.24108   0.96218   0.00000  Uiso   1.00
C382   C     0.24389   0.40651   0.12268   0.00000  Uiso   1.00
C383   C     0.16408   0.43250   0.12408   0.00000  Uiso   1.00
C384   C     0.12179   0.50594   0.09390   0.00000  Uiso   1.00
C385   C     0.04995   0.51815   0.10096   0.00000  Uiso   1.00
C386   C     0.29329   0.35695   0.19725   0.00000  Uiso   1.00
C387   C     0.35965   0.36687   0.22859   0.00000  Uiso   1.00
C388   C     0.39659   0.31548   0.29725   0.00000  Uiso   1.00
C389   C     0.23840   0.35544   0.09208   0.00000  Uiso   1.00
C390   C     0.25863   0.36407   0.03501   0.00000  Uiso   1.00
C391   C     0.24938   0.31139   0.01514   0.00000  Uiso   1.00
H392   H     0.16935   0.25155   0.21689   0.00000  Uiso   1.00
H393   H     0.04183   0.33966   0.19499   0.00000  Uiso   1.00
H394   H     0.27966   0.20061   0.32966   0.00000  Uiso   1.00
H395   H     0.17866   0.19781   0.13611   0.00000  Uiso   1.00
H396   H     0.91301   0.46343   0.15488   0.00000  Uiso   1.00
H397   H     0.41449   0.17022   0.43882   0.00000  Uiso   1.00
H398   H     0.20152   0.16432   0.03069   0.00000  Uiso   1.00
H399   H     0.26604   0.45256   0.09468   0.00000  Uiso   1.00
H400   H     0.14382   0.55171   0.06607   0.00000  Uiso   1.00
H401   H     0.38165   0.41265   0.20074   0.00000  Uiso   1.00
H402   H     0.28065   0.40985   0.00719   0.00000  Uiso   1.00
H403   H     0.99579   0.63554   0.05024   0.00000  Uiso   1.00
H404   H     0.49728   0.34231   0.33419   0.00000  Uiso   1.00
H405   H     0.28429   0.33642   0.92605   0.00000  Uiso   1.00
O406   O     0.87227   0.61108   0.08597   0.00000  Uiso   1.00
O407   O     0.53020   0.22638   0.45849   0.00000  Uiso   1.00
O408   O     0.25077   0.21865   0.92302   0.00000  Uiso   1.00
N409   N     0.94926   0.49033   0.13417   0.00000  Uiso   1.00
N410   N     0.41811   0.21620   0.39964   0.00000  Uiso   1.00
N411   N     0.21901   0.21067   0.01808   0.00000  Uiso   1.00
N412   N     0.99380   0.58294   0.07786   0.00000  Uiso   1.00
N413   N     0.46265   0.30880   0.34334   0.00000  Uiso   1.00
N414   N     0.26355   0.30328   0.96177   0.00000  Uiso   1.00
C415   C     0.95016   0.07326   0.73580   0.00000  Uiso   1.00
C416   C     0.00404   0.04662   0.70508   0.00000  Uiso   1.00
C417   C     0.01501   0.97935   0.70555   0.00000  Uiso   1.00
C418   C     0.06682   0.96533   0.67477   0.00000  Uiso   1.00
C419   C     0.14452   0.91612   0.63168   0.00000  Uiso   1.00
C420   C     0.99906   0.09008   0.78649   0.00000  Uiso   1.00
C421   C     0.00582   0.05937   0.85540   0.00000  Uiso   1.00
C422   C     0.05343   0.08194   0.89314   0.00000  Uiso   1.00
C423   C     0.12335   0.10025   0.97642   0.00000  Uiso   1.00
C424   C     0.89708   0.14799   0.67781   0.00000  Uiso   1.00
C425   C     0.81809   0.16596   0.65535   0.00000  Uiso   1.00
C426   C     0.77984   0.23730   0.60160   0.00000  Uiso   1.00
C427   C     0.69141   0.34551   0.51615   0.00000  Uiso   1.00
C428   C     0.02267   0.16798   0.68029   0.00000  Uiso   1.00
C429   C     0.04343   0.09807   0.67493   0.00000  Uiso   1.00
C430   C     0.09523   0.08415   0.64413   0.00000  Uiso   1.00
C431   C     0.10627   0.01687   0.64456   0.00000  Uiso   1.00
C432   C     0.03844   0.14153   0.75634   0.00000  Uiso   1.00
C433   C     0.08605   0.16416   0.79398   0.00000  Uiso   1.00
C434   C     0.09289   0.13348   0.86293   0.00000  Uiso   1.00
C435   C     0.93646   0.19944   0.64765   0.00000  Uiso   1.00
C436   C     0.89832   0.27076   0.59393   0.00000  Uiso   1.00
C437   C     0.81929   0.28884   0.57140   0.00000  Uiso   1.00
H438   H     0.91950   0.03321   0.75928   0.00000  Uiso   1.00
H439   H     0.98452   0.93955   0.72890   0.00000  Uiso   1.00
H440   H     0.97533   0.01956   0.87872   0.00000  Uiso   1.00
H441   H     0.78763   0.12614   0.67870   0.00000  Uiso   1.00
H442   H     0.07400   0.85838   0.68193   0.00000  Uiso   1.00
H443   H     0.05461   0.02711   0.99783   0.00000  Uiso   1.00
H444   H     0.65880   0.25185   0.57606   0.00000  Uiso   1.00
H445   H     0.05333   0.20804   0.65682   0.00000  Uiso   1.00
H446   H     0.12570   0.12397   0.62081   0.00000  Uiso   1.00
H447   H     0.11651   0.20398   0.77063   0.00000  Uiso   1.00
H448   H     0.92881   0.31056   0.57061   0.00000  Uiso   1.00
H449   H     0.18859   0.00806   0.59421   0.00000  Uiso   1.00
H450   H     0.16919   0.17679   0.91011   0.00000  Uiso   1.00
H451   H     0.77339   0.40153   0.48833   0.00000  Uiso   1.00
O452   O     0.17651   0.87476   0.61625   0.00000  Uiso   1.00
O453   O     0.15105   0.09613   0.03070   0.00000  Uiso   1.00
O454   O     0.63176   0.39098   0.47734   0.00000  Uiso   1.00
N455   N     0.09103   0.90515   0.66622   0.00000  Uiso   1.00
N456   N     0.07290   0.06289   0.96157   0.00000  Uiso   1.00
N457   N     0.70286   0.27302   0.56726   0.00000  Uiso   1.00
N458   N     0.15269   0.98570   0.61901   0.00000  Uiso   1.00
N459   N     0.13456   0.14344   0.91436   0.00000  Uiso   1.00
N460   N     0.76452   0.35356   0.52005   0.00000  Uiso   1.00
C461   C     0.55967   0.41703   0.73033   0.00000  Uiso   1.00
C462   C     0.48683   0.42058   0.68251   0.00000  Uiso   1.00
C463   C     0.41312   0.44906   0.67869   0.00000  Uiso   1.00
C464   C     0.35414   0.44726   0.63163   0.00000  Uiso   1.00
C465   C     0.23887   0.45718   0.56376   0.00000  Uiso   1.00
C466   C     0.60577   0.33554   0.77129   0.00000  Uiso   1.00
C467   C     0.63206   0.29253   0.84212   0.00000  Uiso   1.00
C468   C     0.67320   0.21914   0.86978   0.00000  Uiso   1.00
C469   C     0.74262   0.09706   0.93974   0.00000  Uiso   1.00
C470   C     0.60446   0.45805   0.68455   0.00000  Uiso   1.00
C471   C     0.62967   0.51805   0.68246   0.00000  Uiso   1.00
C472   C     0.66973   0.54779   0.63710   0.00000  Uiso   1.00
C473   C     0.73711   0.61593   0.57239   0.00000  Uiso   1.00
C474   C     0.58600   0.36317   0.65353   0.00000  Uiso   1.00
C475   C     0.50113   0.39132   0.64080   0.00000  Uiso   1.00
C476   C     0.44225   0.38947   0.59373   0.00000  Uiso   1.00
C477   C     0.36846   0.41795   0.58984   0.00000  Uiso   1.00
C478   C     0.62006   0.30628   0.72958   0.00000  Uiso   1.00
C479   C     0.66118   0.23294   0.75715   0.00000  Uiso   1.00
C480   C     0.68753   0.18983   0.82800   0.00000  Uiso   1.00
C481   C     0.61875   0.42880   0.64283   0.00000  Uiso   1.00
C482   C     0.65879   0.45846   0.59748   0.00000  Uiso   1.00
C483   C     0.68405   0.51848   0.59532   0.00000  Uiso   1.00
H484   H     0.54854   0.43980   0.76280   0.00000  Uiso   1.00
H485   H     0.40208   0.47169   0.71099   0.00000  Uiso   1.00
H486   H     0.62099   0.31519   0.87438   0.00000  Uiso   1.00
H487   H     0.61859   0.54067   0.71474   0.00000  Uiso   1.00
H488   H     0.24601   0.49413   0.63517   0.00000  Uiso   1.00
H489   H     0.70761   0.16413   0.97969   0.00000  Uiso   1.00
H490   H     0.70256   0.63960   0.64306   0.00000  Uiso   1.00
H491   H     0.59713   0.34039   0.62105   0.00000  Uiso   1.00
H492   H     0.45333   0.36683   0.56145   0.00000  Uiso   1.00
H493   H     0.67224   0.21032   0.72485   0.00000  Uiso   1.00
H494   H     0.66984   0.43580   0.56521   0.00000  Uiso   1.00
H495   H     0.28760   0.40901   0.51380   0.00000  Uiso   1.00
H496   H     0.74921   0.07902   0.85833   0.00000  Uiso   1.00
H497   H     0.74416   0.55449   0.52170   0.00000  Uiso   1.00
O498   O     0.17133   0.47073   0.53785   0.00000  Uiso   1.00
O499   O     0.77695   0.03780   0.98986   0.00000  Uiso   1.00
O500   O     0.77032   0.66161   0.54820   0.00000  Uiso   1.00
N501   N     0.27553   0.47048   0.61477   0.00000  Uiso   1.00
N502   N     0.70709   0.16195   0.93688   0.00000  Uiso   1.00
N503   N     0.70239   0.60646   0.62218   0.00000  Uiso   1.00
N504   N     0.29791   0.42468   0.54946   0.00000  Uiso   1.00
N505   N     0.72948   0.11615   0.87158   0.00000  Uiso   1.00
N506   N     0.72477   0.56067   0.55687   0.00000  Uiso   1.00
C507   C     0.07681   0.40314   0.80728   0.00000  Uiso   1.00
C508   C     0.05012   0.48781   0.77110   0.00000  Uiso   1.00
C509   C     0.08772   0.53308   0.78728   0.00000  Uiso   1.00
C510   C     0.05398   0.60922   0.74809   0.00000  Uiso   1.00
C511   C     0.02298   0.73616   0.70005   0.00000  Uiso   1.00
C512   C     0.01170   0.37580   0.83145   0.00000  Uiso   1.00
C513   C     0.01700   0.32688   0.89838   0.00000  Uiso   1.00
C514   C     0.95092   0.30872   0.90999   0.00000  Uiso   1.00
C515   C     0.86029   0.26172   0.95565   0.00000  Uiso   1.00
C516   C     0.08174   0.38331   0.75188   0.00000  Uiso   1.00
C517   C     0.14593   0.34070   0.75191   0.00000  Uiso   1.00
C518   C     0.13882   0.32885   0.69653   0.00000  Uiso   1.00
C519   C     0.15695   0.29352   0.61864   0.00000  Uiso   1.00
C520   C     0.95004   0.45786   0.70889   0.00000  Uiso   1.00
C521   C     0.98126   0.51753   0.71766   0.00000  Uiso   1.00
C522   C     0.94745   0.59362   0.67843   0.00000  Uiso   1.00
C523   C     0.98499   0.63899   0.69455   0.00000  Uiso   1.00
C524   C     0.94284   0.40552   0.77801   0.00000  Uiso   1.00
C525   C     0.87674   0.38742   0.78953   0.00000  Uiso   1.00
C526   C     0.88193   0.33849   0.85646   0.00000  Uiso   1.00
C527   C     0.01288   0.41303   0.69843   0.00000  Uiso   1.00
C528   C     0.00567   0.40124   0.64305   0.00000  Uiso   1.00
C529   C     0.06984   0.35862   0.64299   0.00000  Uiso   1.00
H530   H     0.13042   0.38000   0.84889   0.00000  Uiso   1.00
H531   H     0.14100   0.51006   0.82865   0.00000  Uiso   1.00
H532   H     0.07030   0.30388   0.93973   0.00000  Uiso   1.00
H533   H     0.19921   0.31771   0.79327   0.00000  Uiso   1.00
H534   H     0.12235   0.66735   0.78265   0.00000  Uiso   1.00
H535   H     0.97327   0.23261   0.01687   0.00000  Uiso   1.00
H536   H     0.24511   0.26175   0.70804   0.00000  Uiso   1.00
H537   H     0.89642   0.48100   0.66729   0.00000  Uiso   1.00
H538   H     0.89416   0.61660   0.63707   0.00000  Uiso   1.00
H539   H     0.82346   0.41043   0.74816   0.00000  Uiso   1.00
H540   H     0.95237   0.42425   0.60170   0.00000  Uiso   1.00
H541   H     0.92200   0.75383   0.62717   0.00000  Uiso   1.00
H542   H     0.77293   0.31908   0.86139   0.00000  Uiso   1.00
H543   H     0.04477   0.34823   0.55255   0.00000  Uiso   1.00
O544   O     0.02490   0.79797   0.68833   0.00000  Uiso   1.00
O545   O     0.82932   0.22759   0.99561   0.00000  Uiso   1.00
O546   O     0.18597   0.26583   0.59043   0.00000  Uiso   1.00
N547   N     0.07552   0.66910   0.75019   0.00000  Uiso   1.00
N548   N     0.93614   0.26264   0.96918   0.00000  Uiso   1.00
N549   N     0.19028   0.28988   0.68046   0.00000  Uiso   1.00
N550   N     0.96771   0.71563   0.66653   0.00000  Uiso   1.00
N551   N     0.82833   0.30918   0.88551   0.00000  Uiso   1.00
N552   N     0.08247   0.33641   0.59679   0.00000  Uiso   1.00
