data_job_04112
_audit_creation_date              2018-12-19
_audit_creation_method            'Materials Studio'
_symmetry_space_group_name_H-M    'P1'
_symmetry_Int_Tables_number       1
_symmetry_cell_setting            triclinic
loop_
_symmetry_equiv_pos_as_xyz
  x,y,z
_cell_length_a                    9.7956
_cell_length_b                    12.4986
_cell_length_c                    16.7491
_cell_angle_alpha                 93.1003
_cell_angle_beta                  105.4020
_cell_angle_gamma                 84.4572
loop_
_atom_site_label
_atom_site_type_symbol
_atom_site_fract_x
_atom_site_fract_y
_atom_site_fract_z
_atom_site_U_iso_or_equiv
_atom_site_adp_type
_atom_site_occupancy
C1     C     0.35706   0.87231   0.66528   0.00000  Uiso   1.00
C2     C     0.47356   0.78370   0.69865   0.00000  Uiso   1.00
C3     C     0.49177   0.68403   0.66041   0.00000  Uiso   1.00
C4     C     0.60478   0.61414   0.70094   0.00000  Uiso   1.00
C5     C     0.77173   0.47214   0.74122   0.00000  Uiso   1.00
C6     C     0.27988   0.89803   0.73288   0.00000  Uiso   1.00
C7     C     0.13526   0.89450   0.72341   0.00000  Uiso   1.00
C8     C     0.08523   0.92087   0.79276   0.00000  Uiso   1.00
C9     C     0.95148   0.95645   0.88616   0.00000  Uiso   1.00
C10    C     0.43306   0.97161   0.66024   0.00000  Uiso   1.00
C11    C     0.41721   0.02997   0.58970   0.00000  Uiso   1.00
C12    C     0.49613   0.11830   0.59790   0.00000  Uiso   1.00
C13    C     0.60021   0.26812   0.57851   0.00000  Uiso   1.00
C14    C     0.52537   0.92545   0.80528   0.00000  Uiso   1.00
C15    C     0.56497   0.81257   0.77470   0.00000  Uiso   1.00
C16    C     0.67799   0.74281   0.81530   0.00000  Uiso   1.00
C17    C     0.69637   0.64305   0.77712   0.00000  Uiso   1.00
C18    C     0.37130   0.92689   0.80893   0.00000  Uiso   1.00
C19    C     0.32147   0.95328   0.87831   0.00000  Uiso   1.00
C20    C     0.17681   0.94978   0.86894   0.00000  Uiso   1.00
C21    C     0.52449   0.00047   0.73629   0.00000  Uiso   1.00
C22    C     0.60343   0.08875   0.74460   0.00000  Uiso   1.00
C23    C     0.58771   0.14722   0.67408   0.00000  Uiso   1.00
H24    H     0.28588   0.84985   0.60608   0.00000  Uiso   1.00
H25    H     0.42099   0.66172   0.60156   0.00000  Uiso   1.00
H26    H     0.06453   0.87217   0.66455   0.00000  Uiso   1.00
H27    H     0.34645   0.00761   0.53086   0.00000  Uiso   1.00
H28    H     0.61108   0.46585   0.63010   0.00000  Uiso   1.00
H29    H     0.85946   0.90964   0.76292   0.00000  Uiso   1.00
H30    H     0.45393   0.19524   0.48101   0.00000  Uiso   1.00
H31    H     0.59654   0.94792   0.86449   0.00000  Uiso   1.00
H32    H     0.74872   0.76517   0.87415   0.00000  Uiso   1.00
H33    H     0.39225   0.97562   0.93714   0.00000  Uiso   1.00
H34    H     0.67417   0.11106   0.80345   0.00000  Uiso   1.00
H35    H     0.87707   0.54982   0.85135   0.00000  Uiso   1.00
H36    H     0.12544   0.99361   0.98416   0.00000  Uiso   1.00
H37    H     0.71992   0.27921   0.70225   0.00000  Uiso   1.00
O38    O     0.83854   0.38583   0.74243   0.00000  Uiso   1.00
O39    O     0.85244   0.96808   0.91668   0.00000  Uiso   1.00
O40    O     0.63238   0.34278   0.54681   0.00000  Uiso   1.00
N41    N     0.65281   0.51070   0.68084   0.00000  Uiso   1.00
N42    N     0.95010   0.92560   0.80502   0.00000  Uiso   1.00
N43    N     0.50585   0.19263   0.54146   0.00000  Uiso   1.00
N44    N     0.79594   0.55588   0.79989   0.00000  Uiso   1.00
N45    N     0.09322   0.97078   0.92407   0.00000  Uiso   1.00
N46    N     0.64898   0.23781   0.66051   0.00000  Uiso   1.00
C47    C     0.64294   0.12769   0.33472   0.00000  Uiso   1.00
C48    C     0.52644   0.21630   0.30135   0.00000  Uiso   1.00
C49    C     0.50823   0.31597   0.33959   0.00000  Uiso   1.00
C50    C     0.39522   0.38586   0.29906   0.00000  Uiso   1.00
C51    C     0.22827   0.52786   0.25878   0.00000  Uiso   1.00
C52    C     0.72012   0.10197   0.26712   0.00000  Uiso   1.00
C53    C     0.86474   0.10550   0.27659   0.00000  Uiso   1.00
C54    C     0.91477   0.07913   0.20724   0.00000  Uiso   1.00
C55    C     0.04852   0.04355   0.11384   0.00000  Uiso   1.00
C56    C     0.56694   0.02839   0.33976   0.00000  Uiso   1.00
C57    C     0.58279   0.97003   0.41030   0.00000  Uiso   1.00
C58    C     0.50387   0.88170   0.40210   0.00000  Uiso   1.00
C59    C     0.39979   0.73188   0.42149   0.00000  Uiso   1.00
C60    C     0.47463   0.07455   0.19472   0.00000  Uiso   1.00
C61    C     0.43503   0.18743   0.22530   0.00000  Uiso   1.00
C62    C     0.32201   0.25719   0.18470   0.00000  Uiso   1.00
C63    C     0.30363   0.35695   0.22288   0.00000  Uiso   1.00
C64    C     0.62870   0.07311   0.19107   0.00000  Uiso   1.00
C65    C     0.67853   0.04672   0.12169   0.00000  Uiso   1.00
C66    C     0.82319   0.05022   0.13106   0.00000  Uiso   1.00
C67    C     0.47551   0.99953   0.26371   0.00000  Uiso   1.00
C68    C     0.39657   0.91125   0.25540   0.00000  Uiso   1.00
C69    C     0.41229   0.85278   0.32592   0.00000  Uiso   1.00
H70    H     0.71412   0.15015   0.39392   0.00000  Uiso   1.00
H71    H     0.57901   0.33828   0.39844   0.00000  Uiso   1.00
H72    H     0.93547   0.12783   0.33545   0.00000  Uiso   1.00
H73    H     0.65355   0.99239   0.46914   0.00000  Uiso   1.00
H74    H     0.38892   0.53415   0.36990   0.00000  Uiso   1.00
H75    H     0.14054   0.09036   0.23708   0.00000  Uiso   1.00
H76    H     0.54607   0.80476   0.51899   0.00000  Uiso   1.00
H77    H     0.40346   0.05208   0.13551   0.00000  Uiso   1.00
H78    H     0.25128   0.23483   0.12585   0.00000  Uiso   1.00
H79    H     0.60775   0.02438   0.06286   0.00000  Uiso   1.00
H80    H     0.32583   0.88894   0.19655   0.00000  Uiso   1.00
H81    H     0.12293   0.45018   0.14865   0.00000  Uiso   1.00
H82    H     0.87456   0.00639   0.01584   0.00000  Uiso   1.00
H83    H     0.28008   0.72079   0.29775   0.00000  Uiso   1.00
O84    O     0.16146   0.61417   0.25757   0.00000  Uiso   1.00
O85    O     0.14756   0.03192   0.08332   0.00000  Uiso   1.00
O86    O     0.36762   0.65722   0.45319   0.00000  Uiso   1.00
N87    N     0.34719   0.48930   0.31916   0.00000  Uiso   1.00
N88    N     0.04990   0.07440   0.19498   0.00000  Uiso   1.00
N89    N     0.49415   0.80737   0.45854   0.00000  Uiso   1.00
N90    N     0.20406   0.44412   0.20011   0.00000  Uiso   1.00
N91    N     0.90678   0.02922   0.07593   0.00000  Uiso   1.00
N92    N     0.35102   0.76219   0.33949   0.00000  Uiso   1.00
