data_job_03140
_audit_creation_date              2018-12-19
_audit_creation_method            'Materials Studio'
_symmetry_space_group_name_H-M    'P1'
_symmetry_Int_Tables_number       1
_symmetry_cell_setting            triclinic
loop_
_symmetry_equiv_pos_as_xyz
  x,y,z
_cell_length_a                    25.2159
_cell_length_b                    11.1031
_cell_length_c                    22.9831
_cell_angle_alpha                 90.0000
_cell_angle_beta                  90.0000
_cell_angle_gamma                 90.0000
loop_
_atom_site_label
_atom_site_type_symbol
_atom_site_fract_x
_atom_site_fract_y
_atom_site_fract_z
_atom_site_U_iso_or_equiv
_atom_site_adp_type
_atom_site_occupancy
C1     C     0.31907   0.50736   0.41773   0.00000  Uiso   1.00
C2     C     0.35515   0.61173   0.43485   0.00000  Uiso   1.00
C3     C     0.34611   0.73244   0.42272   0.00000  Uiso   1.00
C4     C     0.38387   0.81412   0.44210   0.00000  Uiso   1.00
C5     C     0.43304   0.98192   0.46403   0.00000  Uiso   1.00
C6     C     0.35343   0.42089   0.38257   0.00000  Uiso   1.00
C7     C     0.34293   0.38113   0.32649   0.00000  Uiso   1.00
C8     C     0.37924   0.30214   0.30187   0.00000  Uiso   1.00
C9     C     0.42571   0.17358   0.24265   0.00000  Uiso   1.00
C10    C     0.30561   0.44179   0.47412   0.00000  Uiso   1.00
C11    C     0.25490   0.41956   0.49502   0.00000  Uiso   1.00
C12    C     0.25096   0.35815   0.54747   0.00000  Uiso   1.00
C13    C     0.22318   0.26204   0.63040   0.00000  Uiso   1.00
C14    C     0.40221   0.43778   0.47371   0.00000  Uiso   1.00
C15    C     0.40031   0.57393   0.46525   0.00000  Uiso   1.00
C16    C     0.43810   0.65545   0.48466   0.00000  Uiso   1.00
C17    C     0.42911   0.77626   0.47256   0.00000  Uiso   1.00
C18    C     0.39858   0.38309   0.41298   0.00000  Uiso   1.00
C19    C     0.43492   0.30414   0.38843   0.00000  Uiso   1.00
C20    C     0.42448   0.26428   0.33233   0.00000  Uiso   1.00
C21    C     0.35077   0.40399   0.50453   0.00000  Uiso   1.00
C22    C     0.34690   0.34259   0.55695   0.00000  Uiso   1.00
C23    C     0.29620   0.32028   0.57792   0.00000  Uiso   1.00
H24    H     0.28391   0.53678   0.39406   0.00000  Uiso   1.00
H25    H     0.31116   0.76165   0.39919   0.00000  Uiso   1.00
H26    H     0.30798   0.41038   0.30298   0.00000  Uiso   1.00
H27    H     0.21997   0.44883   0.47148   0.00000  Uiso   1.00
H28    H     0.36129   0.99429   0.41826   0.00000  Uiso   1.00
H29    H     0.35457   0.25359   0.21541   0.00000  Uiso   1.00
H30    H     0.16899   0.33465   0.57072   0.00000  Uiso   1.00
H31    H     0.43737   0.40835   0.49738   0.00000  Uiso   1.00
H32    H     0.47304   0.62618   0.50818   0.00000  Uiso   1.00
H33    H     0.46986   0.27490   0.41197   0.00000  Uiso   1.00
H34    H     0.38185   0.31335   0.58047   0.00000  Uiso   1.00
H35    H     0.49268   0.88433   0.50673   0.00000  Uiso   1.00
H36    H     0.48596   0.14362   0.30387   0.00000  Uiso   1.00
H37    H     0.30038   0.22469   0.65919   0.00000  Uiso   1.00
O38    O     0.44769   0.08492   0.46772   0.00000  Uiso   1.00
O39    O     0.43887   0.11313   0.20159   0.00000  Uiso   1.00
O40    O     0.19539   0.21948   0.66775   0.00000  Uiso   1.00
N41    N     0.38732   0.93852   0.43761   0.00000  Uiso   1.00
N42    N     0.38104   0.24602   0.24795   0.00000  Uiso   1.00
N43    N     0.20753   0.32178   0.58013   0.00000  Uiso   1.00
N44    N     0.45802   0.87935   0.48521   0.00000  Uiso   1.00
N45    N     0.45174   0.18685   0.29555   0.00000  Uiso   1.00
N46    N     0.27823   0.26261   0.62773   0.00000  Uiso   1.00
C47    C     0.18093   0.99264   0.91773   0.00000  Uiso   1.00
C48    C     0.14485   0.88827   0.93485   0.00000  Uiso   1.00
C49    C     0.15389   0.76756   0.92272   0.00000  Uiso   1.00
C50    C     0.11613   0.68588   0.94210   0.00000  Uiso   1.00
C51    C     0.06696   0.51808   0.96403   0.00000  Uiso   1.00
C52    C     0.14657   0.07911   0.88257   0.00000  Uiso   1.00
C53    C     0.15707   0.11887   0.82649   0.00000  Uiso   1.00
C54    C     0.12076   0.19786   0.80187   0.00000  Uiso   1.00
C55    C     0.07429   0.32642   0.74265   0.00000  Uiso   1.00
C56    C     0.19439   0.05821   0.97412   0.00000  Uiso   1.00
C57    C     0.24510   0.08044   0.99502   0.00000  Uiso   1.00
C58    C     0.24904   0.14185   0.04747   0.00000  Uiso   1.00
C59    C     0.27682   0.23796   0.13040   0.00000  Uiso   1.00
C60    C     0.09779   0.06222   0.97371   0.00000  Uiso   1.00
C61    C     0.09969   0.92607   0.96525   0.00000  Uiso   1.00
C62    C     0.06190   0.84455   0.98466   0.00000  Uiso   1.00
C63    C     0.07089   0.72374   0.97256   0.00000  Uiso   1.00
C64    C     0.10142   0.11691   0.91298   0.00000  Uiso   1.00
C65    C     0.06508   0.19586   0.88843   0.00000  Uiso   1.00
C66    C     0.07552   0.23572   0.83233   0.00000  Uiso   1.00
C67    C     0.14923   0.09601   0.00453   0.00000  Uiso   1.00
C68    C     0.15310   0.15741   0.05695   0.00000  Uiso   1.00
C69    C     0.20380   0.17972   0.07792   0.00000  Uiso   1.00
H70    H     0.21609   0.96322   0.89406   0.00000  Uiso   1.00
H71    H     0.18884   0.73835   0.89919   0.00000  Uiso   1.00
H72    H     0.19202   0.08962   0.80298   0.00000  Uiso   1.00
H73    H     0.28003   0.05117   0.97148   0.00000  Uiso   1.00
H74    H     0.13871   0.50571   0.91826   0.00000  Uiso   1.00
H75    H     0.14543   0.24641   0.71541   0.00000  Uiso   1.00
H76    H     0.33101   0.16535   0.07072   0.00000  Uiso   1.00
H77    H     0.06263   0.09165   0.99738   0.00000  Uiso   1.00
H78    H     0.02696   0.87382   0.00818   0.00000  Uiso   1.00
H79    H     0.03014   0.22510   0.91197   0.00000  Uiso   1.00
H80    H     0.11815   0.18665   0.08047   0.00000  Uiso   1.00
H81    H     0.00732   0.61567   0.00673   0.00000  Uiso   1.00
H82    H     0.01404   0.35638   0.80387   0.00000  Uiso   1.00
H83    H     0.19962   0.27531   0.15919   0.00000  Uiso   1.00
O84    O     0.05231   0.41508   0.96772   0.00000  Uiso   1.00
O85    O     0.06113   0.38687   0.70159   0.00000  Uiso   1.00
O86    O     0.30461   0.28052   0.16775   0.00000  Uiso   1.00
N87    N     0.11268   0.56148   0.93761   0.00000  Uiso   1.00
N88    N     0.11896   0.25398   0.74795   0.00000  Uiso   1.00
N89    N     0.29247   0.17822   0.08013   0.00000  Uiso   1.00
N90    N     0.04198   0.62065   0.98521   0.00000  Uiso   1.00
N91    N     0.04826   0.31315   0.79555   0.00000  Uiso   1.00
N92    N     0.22177   0.23739   0.12773   0.00000  Uiso   1.00
C93    C     0.68093   0.50736   0.08227   0.00000  Uiso   1.00
C94    C     0.64485   0.61173   0.06515   0.00000  Uiso   1.00
C95    C     0.65389   0.73244   0.07728   0.00000  Uiso   1.00
C96    C     0.61613   0.81412   0.05790   0.00000  Uiso   1.00
C97    C     0.56696   0.98192   0.03597   0.00000  Uiso   1.00
C98    C     0.64657   0.42089   0.11743   0.00000  Uiso   1.00
C99    C     0.65707   0.38113   0.17351   0.00000  Uiso   1.00
C100   C     0.62076   0.30214   0.19813   0.00000  Uiso   1.00
C101   C     0.57429   0.17358   0.25735   0.00000  Uiso   1.00
C102   C     0.69439   0.44179   0.02588   0.00000  Uiso   1.00
C103   C     0.74510   0.41956   0.00498   0.00000  Uiso   1.00
C104   C     0.74904   0.35815   0.95253   0.00000  Uiso   1.00
C105   C     0.77682   0.26204   0.86960   0.00000  Uiso   1.00
C106   C     0.59779   0.43778   0.02629   0.00000  Uiso   1.00
C107   C     0.59969   0.57393   0.03475   0.00000  Uiso   1.00
C108   C     0.56190   0.65545   0.01534   0.00000  Uiso   1.00
C109   C     0.57089   0.77626   0.02744   0.00000  Uiso   1.00
C110   C     0.60142   0.38309   0.08702   0.00000  Uiso   1.00
C111   C     0.56508   0.30414   0.11157   0.00000  Uiso   1.00
C112   C     0.57552   0.26428   0.16767   0.00000  Uiso   1.00
C113   C     0.64923   0.40399   0.99547   0.00000  Uiso   1.00
C114   C     0.65310   0.34259   0.94305   0.00000  Uiso   1.00
C115   C     0.70380   0.32028   0.92208   0.00000  Uiso   1.00
H116   H     0.71609   0.53678   0.10594   0.00000  Uiso   1.00
H117   H     0.68884   0.76165   0.10081   0.00000  Uiso   1.00
H118   H     0.69202   0.41038   0.19702   0.00000  Uiso   1.00
H119   H     0.78003   0.44883   0.02852   0.00000  Uiso   1.00
H120   H     0.63871   0.99429   0.08174   0.00000  Uiso   1.00
H121   H     0.64543   0.25359   0.28459   0.00000  Uiso   1.00
H122   H     0.83101   0.33465   0.92928   0.00000  Uiso   1.00
H123   H     0.56263   0.40835   0.00262   0.00000  Uiso   1.00
H124   H     0.52696   0.62618   0.99182   0.00000  Uiso   1.00
H125   H     0.53014   0.27490   0.08803   0.00000  Uiso   1.00
H126   H     0.61815   0.31335   0.91953   0.00000  Uiso   1.00
H127   H     0.50732   0.88433   0.99327   0.00000  Uiso   1.00
H128   H     0.51404   0.14362   0.19613   0.00000  Uiso   1.00
H129   H     0.69962   0.22469   0.84081   0.00000  Uiso   1.00
O130   O     0.55231   0.08492   0.03228   0.00000  Uiso   1.00
O131   O     0.56113   0.11313   0.29841   0.00000  Uiso   1.00
O132   O     0.80461   0.21948   0.83225   0.00000  Uiso   1.00
N133   N     0.61268   0.93852   0.06239   0.00000  Uiso   1.00
N134   N     0.61896   0.24602   0.25205   0.00000  Uiso   1.00
N135   N     0.79247   0.32178   0.91987   0.00000  Uiso   1.00
N136   N     0.54198   0.87935   0.01479   0.00000  Uiso   1.00
N137   N     0.54826   0.18685   0.20445   0.00000  Uiso   1.00
N138   N     0.72177   0.26261   0.87227   0.00000  Uiso   1.00
C139   C     0.81907   0.99264   0.58227   0.00000  Uiso   1.00
C140   C     0.85515   0.88827   0.56515   0.00000  Uiso   1.00
C141   C     0.84611   0.76756   0.57728   0.00000  Uiso   1.00
C142   C     0.88387   0.68588   0.55790   0.00000  Uiso   1.00
C143   C     0.93304   0.51808   0.53597   0.00000  Uiso   1.00
C144   C     0.85343   0.07911   0.61743   0.00000  Uiso   1.00
C145   C     0.84293   0.11887   0.67351   0.00000  Uiso   1.00
C146   C     0.87924   0.19786   0.69813   0.00000  Uiso   1.00
C147   C     0.92571   0.32642   0.75735   0.00000  Uiso   1.00
C148   C     0.80561   0.05821   0.52588   0.00000  Uiso   1.00
C149   C     0.75490   0.08044   0.50498   0.00000  Uiso   1.00
C150   C     0.75096   0.14185   0.45253   0.00000  Uiso   1.00
C151   C     0.72318   0.23796   0.36960   0.00000  Uiso   1.00
C152   C     0.90221   0.06222   0.52629   0.00000  Uiso   1.00
C153   C     0.90031   0.92607   0.53475   0.00000  Uiso   1.00
C154   C     0.93810   0.84455   0.51534   0.00000  Uiso   1.00
C155   C     0.92911   0.72374   0.52744   0.00000  Uiso   1.00
C156   C     0.89858   0.11691   0.58702   0.00000  Uiso   1.00
C157   C     0.93492   0.19586   0.61157   0.00000  Uiso   1.00
C158   C     0.92448   0.23572   0.66767   0.00000  Uiso   1.00
C159   C     0.85077   0.09601   0.49547   0.00000  Uiso   1.00
C160   C     0.84690   0.15741   0.44305   0.00000  Uiso   1.00
C161   C     0.79620   0.17972   0.42208   0.00000  Uiso   1.00
H162   H     0.78391   0.96322   0.60594   0.00000  Uiso   1.00
H163   H     0.81116   0.73835   0.60081   0.00000  Uiso   1.00
H164   H     0.80798   0.08962   0.69702   0.00000  Uiso   1.00
H165   H     0.71997   0.05117   0.52852   0.00000  Uiso   1.00
H166   H     0.86129   0.50571   0.58174   0.00000  Uiso   1.00
H167   H     0.85457   0.24641   0.78459   0.00000  Uiso   1.00
H168   H     0.66899   0.16535   0.42928   0.00000  Uiso   1.00
H169   H     0.93737   0.09165   0.50262   0.00000  Uiso   1.00
H170   H     0.97304   0.87382   0.49182   0.00000  Uiso   1.00
H171   H     0.96986   0.22510   0.58803   0.00000  Uiso   1.00
H172   H     0.88185   0.18665   0.41953   0.00000  Uiso   1.00
H173   H     0.99268   0.61567   0.49327   0.00000  Uiso   1.00
H174   H     0.98596   0.35638   0.69613   0.00000  Uiso   1.00
H175   H     0.80038   0.27531   0.34081   0.00000  Uiso   1.00
O176   O     0.94769   0.41508   0.53228   0.00000  Uiso   1.00
O177   O     0.93887   0.38687   0.79841   0.00000  Uiso   1.00
O178   O     0.69539   0.28052   0.33225   0.00000  Uiso   1.00
N179   N     0.88732   0.56148   0.56239   0.00000  Uiso   1.00
N180   N     0.88104   0.25398   0.75205   0.00000  Uiso   1.00
N181   N     0.70753   0.17822   0.41987   0.00000  Uiso   1.00
N182   N     0.95802   0.62065   0.51479   0.00000  Uiso   1.00
N183   N     0.95174   0.31315   0.70445   0.00000  Uiso   1.00
N184   N     0.77823   0.23739   0.37227   0.00000  Uiso   1.00
C185   C     0.68093   0.49264   0.58227   0.00000  Uiso   1.00
C186   C     0.64485   0.38827   0.56515   0.00000  Uiso   1.00
C187   C     0.65389   0.26756   0.57728   0.00000  Uiso   1.00
C188   C     0.61613   0.18588   0.55790   0.00000  Uiso   1.00
C189   C     0.56696   0.01808   0.53597   0.00000  Uiso   1.00
C190   C     0.64657   0.57911   0.61743   0.00000  Uiso   1.00
C191   C     0.65707   0.61887   0.67351   0.00000  Uiso   1.00
C192   C     0.62076   0.69786   0.69813   0.00000  Uiso   1.00
C193   C     0.57429   0.82642   0.75735   0.00000  Uiso   1.00
C194   C     0.69439   0.55821   0.52588   0.00000  Uiso   1.00
C195   C     0.74510   0.58044   0.50498   0.00000  Uiso   1.00
C196   C     0.74904   0.64185   0.45253   0.00000  Uiso   1.00
C197   C     0.77682   0.73796   0.36960   0.00000  Uiso   1.00
C198   C     0.59779   0.56222   0.52629   0.00000  Uiso   1.00
C199   C     0.59969   0.42607   0.53475   0.00000  Uiso   1.00
C200   C     0.56190   0.34455   0.51534   0.00000  Uiso   1.00
C201   C     0.57089   0.22374   0.52744   0.00000  Uiso   1.00
C202   C     0.60142   0.61691   0.58702   0.00000  Uiso   1.00
C203   C     0.56508   0.69586   0.61157   0.00000  Uiso   1.00
C204   C     0.57552   0.73572   0.66767   0.00000  Uiso   1.00
C205   C     0.64923   0.59601   0.49547   0.00000  Uiso   1.00
C206   C     0.65310   0.65741   0.44305   0.00000  Uiso   1.00
C207   C     0.70380   0.67972   0.42208   0.00000  Uiso   1.00
H208   H     0.71609   0.46322   0.60594   0.00000  Uiso   1.00
H209   H     0.68884   0.23835   0.60081   0.00000  Uiso   1.00
H210   H     0.69202   0.58962   0.69702   0.00000  Uiso   1.00
H211   H     0.78003   0.55117   0.52852   0.00000  Uiso   1.00
H212   H     0.63871   0.00571   0.58174   0.00000  Uiso   1.00
H213   H     0.64543   0.74641   0.78459   0.00000  Uiso   1.00
H214   H     0.83101   0.66535   0.42928   0.00000  Uiso   1.00
H215   H     0.56263   0.59165   0.50262   0.00000  Uiso   1.00
H216   H     0.52696   0.37382   0.49182   0.00000  Uiso   1.00
H217   H     0.53014   0.72510   0.58803   0.00000  Uiso   1.00
H218   H     0.61815   0.68665   0.41953   0.00000  Uiso   1.00
H219   H     0.50732   0.11567   0.49327   0.00000  Uiso   1.00
H220   H     0.51404   0.85638   0.69613   0.00000  Uiso   1.00
H221   H     0.69962   0.77531   0.34081   0.00000  Uiso   1.00
O222   O     0.55231   0.91508   0.53228   0.00000  Uiso   1.00
O223   O     0.56113   0.88687   0.79841   0.00000  Uiso   1.00
O224   O     0.80461   0.78052   0.33225   0.00000  Uiso   1.00
N225   N     0.61268   0.06148   0.56239   0.00000  Uiso   1.00
N226   N     0.61896   0.75398   0.75205   0.00000  Uiso   1.00
N227   N     0.79247   0.67822   0.41987   0.00000  Uiso   1.00
N228   N     0.54198   0.12065   0.51479   0.00000  Uiso   1.00
N229   N     0.54826   0.81315   0.70445   0.00000  Uiso   1.00
N230   N     0.72177   0.73739   0.37227   0.00000  Uiso   1.00
C231   C     0.81907   0.00736   0.08227   0.00000  Uiso   1.00
C232   C     0.85515   0.11173   0.06515   0.00000  Uiso   1.00
C233   C     0.84611   0.23244   0.07728   0.00000  Uiso   1.00
C234   C     0.88387   0.31412   0.05790   0.00000  Uiso   1.00
C235   C     0.93304   0.48192   0.03597   0.00000  Uiso   1.00
C236   C     0.85343   0.92089   0.11743   0.00000  Uiso   1.00
C237   C     0.84293   0.88113   0.17351   0.00000  Uiso   1.00
C238   C     0.87924   0.80214   0.19813   0.00000  Uiso   1.00
C239   C     0.92571   0.67358   0.25735   0.00000  Uiso   1.00
C240   C     0.80561   0.94179   0.02588   0.00000  Uiso   1.00
C241   C     0.75490   0.91956   0.00498   0.00000  Uiso   1.00
C242   C     0.75096   0.85815   0.95253   0.00000  Uiso   1.00
C243   C     0.72318   0.76204   0.86960   0.00000  Uiso   1.00
C244   C     0.90221   0.93778   0.02629   0.00000  Uiso   1.00
C245   C     0.90031   0.07393   0.03475   0.00000  Uiso   1.00
C246   C     0.93810   0.15545   0.01534   0.00000  Uiso   1.00
C247   C     0.92911   0.27626   0.02744   0.00000  Uiso   1.00
C248   C     0.89858   0.88309   0.08702   0.00000  Uiso   1.00
C249   C     0.93492   0.80414   0.11157   0.00000  Uiso   1.00
C250   C     0.92448   0.76428   0.16767   0.00000  Uiso   1.00
C251   C     0.85077   0.90399   0.99547   0.00000  Uiso   1.00
C252   C     0.84690   0.84259   0.94305   0.00000  Uiso   1.00
C253   C     0.79620   0.82028   0.92208   0.00000  Uiso   1.00
H254   H     0.78391   0.03678   0.10594   0.00000  Uiso   1.00
H255   H     0.81116   0.26165   0.10081   0.00000  Uiso   1.00
H256   H     0.80798   0.91038   0.19702   0.00000  Uiso   1.00
H257   H     0.71997   0.94883   0.02852   0.00000  Uiso   1.00
H258   H     0.86129   0.49429   0.08174   0.00000  Uiso   1.00
H259   H     0.85457   0.75359   0.28459   0.00000  Uiso   1.00
H260   H     0.66899   0.83465   0.92928   0.00000  Uiso   1.00
H261   H     0.93737   0.90835   0.00262   0.00000  Uiso   1.00
H262   H     0.97304   0.12618   0.99182   0.00000  Uiso   1.00
H263   H     0.96986   0.77490   0.08803   0.00000  Uiso   1.00
H264   H     0.88185   0.81335   0.91953   0.00000  Uiso   1.00
H265   H     0.99268   0.38433   0.99327   0.00000  Uiso   1.00
H266   H     0.98596   0.64362   0.19613   0.00000  Uiso   1.00
H267   H     0.80038   0.72469   0.84081   0.00000  Uiso   1.00
O268   O     0.94769   0.58492   0.03228   0.00000  Uiso   1.00
O269   O     0.93887   0.61313   0.29841   0.00000  Uiso   1.00
O270   O     0.69539   0.71948   0.83225   0.00000  Uiso   1.00
N271   N     0.88732   0.43852   0.06239   0.00000  Uiso   1.00
N272   N     0.88104   0.74602   0.25205   0.00000  Uiso   1.00
N273   N     0.70753   0.82178   0.91987   0.00000  Uiso   1.00
N274   N     0.95802   0.37935   0.01479   0.00000  Uiso   1.00
N275   N     0.95174   0.68685   0.20445   0.00000  Uiso   1.00
N276   N     0.77823   0.76261   0.87227   0.00000  Uiso   1.00
C277   C     0.31907   0.49264   0.91773   0.00000  Uiso   1.00
C278   C     0.35515   0.38827   0.93485   0.00000  Uiso   1.00
C279   C     0.34611   0.26756   0.92272   0.00000  Uiso   1.00
C280   C     0.38387   0.18588   0.94210   0.00000  Uiso   1.00
C281   C     0.43304   0.01808   0.96403   0.00000  Uiso   1.00
C282   C     0.35343   0.57911   0.88257   0.00000  Uiso   1.00
C283   C     0.34293   0.61887   0.82649   0.00000  Uiso   1.00
C284   C     0.37924   0.69786   0.80187   0.00000  Uiso   1.00
C285   C     0.42571   0.82642   0.74265   0.00000  Uiso   1.00
C286   C     0.30561   0.55821   0.97412   0.00000  Uiso   1.00
C287   C     0.25490   0.58044   0.99502   0.00000  Uiso   1.00
C288   C     0.25096   0.64185   0.04747   0.00000  Uiso   1.00
C289   C     0.22318   0.73796   0.13040   0.00000  Uiso   1.00
C290   C     0.40221   0.56222   0.97371   0.00000  Uiso   1.00
C291   C     0.40031   0.42607   0.96525   0.00000  Uiso   1.00
C292   C     0.43810   0.34455   0.98466   0.00000  Uiso   1.00
C293   C     0.42911   0.22374   0.97256   0.00000  Uiso   1.00
C294   C     0.39858   0.61691   0.91298   0.00000  Uiso   1.00
C295   C     0.43492   0.69586   0.88843   0.00000  Uiso   1.00
C296   C     0.42448   0.73572   0.83233   0.00000  Uiso   1.00
C297   C     0.35077   0.59601   0.00453   0.00000  Uiso   1.00
C298   C     0.34690   0.65741   0.05695   0.00000  Uiso   1.00
C299   C     0.29620   0.67972   0.07792   0.00000  Uiso   1.00
H300   H     0.28391   0.46322   0.89406   0.00000  Uiso   1.00
H301   H     0.31116   0.23835   0.89919   0.00000  Uiso   1.00
H302   H     0.30798   0.58962   0.80298   0.00000  Uiso   1.00
H303   H     0.21997   0.55117   0.97148   0.00000  Uiso   1.00
H304   H     0.36129   0.00571   0.91826   0.00000  Uiso   1.00
H305   H     0.35457   0.74641   0.71541   0.00000  Uiso   1.00
H306   H     0.16899   0.66535   0.07072   0.00000  Uiso   1.00
H307   H     0.43737   0.59165   0.99738   0.00000  Uiso   1.00
H308   H     0.47304   0.37382   0.00818   0.00000  Uiso   1.00
H309   H     0.46986   0.72510   0.91197   0.00000  Uiso   1.00
H310   H     0.38185   0.68665   0.08047   0.00000  Uiso   1.00
H311   H     0.49268   0.11567   0.00673   0.00000  Uiso   1.00
H312   H     0.48596   0.85638   0.80387   0.00000  Uiso   1.00
H313   H     0.30038   0.77531   0.15919   0.00000  Uiso   1.00
O314   O     0.44769   0.91508   0.96772   0.00000  Uiso   1.00
O315   O     0.43887   0.88687   0.70159   0.00000  Uiso   1.00
O316   O     0.19539   0.78052   0.16775   0.00000  Uiso   1.00
N317   N     0.38732   0.06148   0.93761   0.00000  Uiso   1.00
N318   N     0.38104   0.75398   0.74795   0.00000  Uiso   1.00
N319   N     0.20753   0.67822   0.08013   0.00000  Uiso   1.00
N320   N     0.45802   0.12065   0.98521   0.00000  Uiso   1.00
N321   N     0.45174   0.81315   0.79555   0.00000  Uiso   1.00
N322   N     0.27823   0.73739   0.12773   0.00000  Uiso   1.00
C323   C     0.18093   0.00736   0.41773   0.00000  Uiso   1.00
C324   C     0.14485   0.11173   0.43485   0.00000  Uiso   1.00
C325   C     0.15389   0.23244   0.42272   0.00000  Uiso   1.00
C326   C     0.11613   0.31412   0.44210   0.00000  Uiso   1.00
C327   C     0.06696   0.48192   0.46403   0.00000  Uiso   1.00
C328   C     0.14657   0.92089   0.38257   0.00000  Uiso   1.00
C329   C     0.15707   0.88113   0.32649   0.00000  Uiso   1.00
C330   C     0.12076   0.80214   0.30187   0.00000  Uiso   1.00
C331   C     0.07429   0.67358   0.24265   0.00000  Uiso   1.00
C332   C     0.19439   0.94179   0.47412   0.00000  Uiso   1.00
C333   C     0.24510   0.91956   0.49502   0.00000  Uiso   1.00
C334   C     0.24904   0.85815   0.54747   0.00000  Uiso   1.00
C335   C     0.27682   0.76204   0.63040   0.00000  Uiso   1.00
C336   C     0.09779   0.93778   0.47371   0.00000  Uiso   1.00
C337   C     0.09969   0.07393   0.46525   0.00000  Uiso   1.00
C338   C     0.06190   0.15545   0.48466   0.00000  Uiso   1.00
C339   C     0.07089   0.27626   0.47256   0.00000  Uiso   1.00
C340   C     0.10142   0.88309   0.41298   0.00000  Uiso   1.00
C341   C     0.06508   0.80414   0.38843   0.00000  Uiso   1.00
C342   C     0.07552   0.76428   0.33233   0.00000  Uiso   1.00
C343   C     0.14923   0.90399   0.50453   0.00000  Uiso   1.00
C344   C     0.15310   0.84259   0.55695   0.00000  Uiso   1.00
C345   C     0.20380   0.82028   0.57792   0.00000  Uiso   1.00
H346   H     0.21609   0.03678   0.39406   0.00000  Uiso   1.00
H347   H     0.18884   0.26165   0.39919   0.00000  Uiso   1.00
H348   H     0.19202   0.91038   0.30298   0.00000  Uiso   1.00
H349   H     0.28003   0.94883   0.47148   0.00000  Uiso   1.00
H350   H     0.13871   0.49429   0.41826   0.00000  Uiso   1.00
H351   H     0.14543   0.75359   0.21541   0.00000  Uiso   1.00
H352   H     0.33101   0.83465   0.57072   0.00000  Uiso   1.00
H353   H     0.06263   0.90835   0.49738   0.00000  Uiso   1.00
H354   H     0.02696   0.12618   0.50818   0.00000  Uiso   1.00
H355   H     0.03014   0.77490   0.41197   0.00000  Uiso   1.00
H356   H     0.11815   0.81335   0.58047   0.00000  Uiso   1.00
H357   H     0.00732   0.38433   0.50673   0.00000  Uiso   1.00
H358   H     0.01404   0.64362   0.30387   0.00000  Uiso   1.00
H359   H     0.19962   0.72469   0.65919   0.00000  Uiso   1.00
O360   O     0.05231   0.58492   0.46772   0.00000  Uiso   1.00
O361   O     0.06113   0.61313   0.20159   0.00000  Uiso   1.00
O362   O     0.30461   0.71948   0.66775   0.00000  Uiso   1.00
N363   N     0.11268   0.43852   0.43761   0.00000  Uiso   1.00
N364   N     0.11896   0.74602   0.24795   0.00000  Uiso   1.00
N365   N     0.29247   0.82178   0.58013   0.00000  Uiso   1.00
N366   N     0.04198   0.37935   0.48521   0.00000  Uiso   1.00
N367   N     0.04826   0.68685   0.29555   0.00000  Uiso   1.00
N368   N     0.22177   0.76261   0.62773   0.00000  Uiso   1.00
