data_job_05772
_audit_creation_date              2018-12-19
_audit_creation_method            'Materials Studio'
_symmetry_space_group_name_H-M    'P1'
_symmetry_Int_Tables_number       1
_symmetry_cell_setting            triclinic
loop_
_symmetry_equiv_pos_as_xyz
  x,y,z
_cell_length_a                    14.6210
_cell_length_b                    14.6210
_cell_length_c                    13.0179
_cell_angle_alpha                 90.0000
_cell_angle_beta                  90.0000
_cell_angle_gamma                 90.0000
loop_
_atom_site_label
_atom_site_type_symbol
_atom_site_fract_x
_atom_site_fract_y
_atom_site_fract_z
_atom_site_U_iso_or_equiv
_atom_site_adp_type
_atom_site_occupancy
C1     C     0.74656   0.82261   0.93749   0.00000  Uiso   1.00
C2     C     0.69557   0.80291   0.03726   0.00000  Uiso   1.00
C3     C     0.70749   0.72646   0.09900   0.00000  Uiso   1.00
C4     C     0.65427   0.72109   0.18713   0.00000  Uiso   1.00
C5     C     0.58463   0.68003   0.33815   0.00000  Uiso   1.00
C6     C     0.67324   0.83573   0.85549   0.00000  Uiso   1.00
C7     C     0.66639   0.78687   0.76441   0.00000  Uiso   1.00
C8     C     0.59439   0.80914   0.69953   0.00000  Uiso   1.00
C9     C     0.49011   0.81908   0.56832   0.00000  Uiso   1.00
C10    C     0.79158   0.91582   0.95173   0.00000  Uiso   1.00
C11    C     0.88424   0.93433   0.94154   0.00000  Uiso   1.00
C12    C     0.91187   0.02405   0.95766   0.00000  Uiso   1.00
C13    C     0.99134   0.15835   0.97589   0.00000  Uiso   1.00
C14    C     0.63087   0.94903   0.98421   0.00000  Uiso   1.00
C15    C     0.63273   0.87158   0.06263   0.00000  Uiso   1.00
C16    C     0.57949   0.86633   0.15069   0.00000  Uiso   1.00
C17    C     0.59133   0.78988   0.21255   0.00000  Uiso   1.00
C18    C     0.61040   0.90439   0.88087   0.00000  Uiso   1.00
C19    C     0.53840   0.92674   0.81610   0.00000  Uiso   1.00
C20    C     0.53144   0.87793   0.72494   0.00000  Uiso   1.00
C21    C     0.72875   0.98449   0.97711   0.00000  Uiso   1.00
C22    C     0.75624   0.07420   0.99324   0.00000  Uiso   1.00
C23    C     0.84892   0.09284   0.98308   0.00000  Uiso   1.00
H24    H     0.79548   0.76915   0.91773   0.00000  Uiso   1.00
H25    H     0.75612   0.67333   0.07933   0.00000  Uiso   1.00
H26    H     0.71503   0.73375   0.74479   0.00000  Uiso   1.00
H27    H     0.93284   0.88118   0.92191   0.00000  Uiso   1.00
H28    H     0.68474   0.59735   0.26966   0.00000  Uiso   1.00
H29    H     0.59814   0.72477   0.56425   0.00000  Uiso   1.00
H30    H     0.05743   0.03566   0.93773   0.00000  Uiso   1.00
H31    H     0.58195   0.00249   0.00396   0.00000  Uiso   1.00
H32    H     0.53087   0.91947   0.17030   0.00000  Uiso   1.00
H33    H     0.48978   0.97989   0.83576   0.00000  Uiso   1.00
H34    H     0.70759   0.12732   0.01288   0.00000  Uiso   1.00
H35    H     0.50192   0.79713   0.34350   0.00000  Uiso   1.00
H36    H     0.41531   0.92455   0.63808   0.00000  Uiso   1.00
H37    H     0.87461   0.23544   0.01157   0.00000  Uiso   1.00
O38    O     0.56356   0.63840   0.41443   0.00000  Uiso   1.00
O39    O     0.44995   0.80558   0.48895   0.00000  Uiso   1.00
O40    O     0.05253   0.21346   0.97895   0.00000  Uiso   1.00
N41    N     0.64874   0.65577   0.26422   0.00000  Uiso   1.00
N42    N     0.56776   0.77489   0.60471   0.00000  Uiso   1.00
N43    N     0.99716   0.06555   0.95386   0.00000  Uiso   1.00
N44    N     0.55036   0.76327   0.30395   0.00000  Uiso   1.00
N45    N     0.46938   0.88239   0.64444   0.00000  Uiso   1.00
N46    N     0.89878   0.17305   0.99359   0.00000  Uiso   1.00
C47    C     0.25344   0.17739   0.43749   0.00000  Uiso   1.00
C48    C     0.30443   0.19709   0.53726   0.00000  Uiso   1.00
C49    C     0.29251   0.27354   0.59900   0.00000  Uiso   1.00
C50    C     0.34573   0.27891   0.68713   0.00000  Uiso   1.00
C51    C     0.41537   0.31997   0.83815   0.00000  Uiso   1.00
C52    C     0.32676   0.16427   0.35549   0.00000  Uiso   1.00
C53    C     0.33361   0.21313   0.26441   0.00000  Uiso   1.00
C54    C     0.40561   0.19086   0.19953   0.00000  Uiso   1.00
C55    C     0.50989   0.18092   0.06832   0.00000  Uiso   1.00
C56    C     0.20842   0.08418   0.45173   0.00000  Uiso   1.00
C57    C     0.11576   0.06567   0.44154   0.00000  Uiso   1.00
C58    C     0.08813   0.97595   0.45766   0.00000  Uiso   1.00
C59    C     0.00866   0.84165   0.47589   0.00000  Uiso   1.00
C60    C     0.36913   0.05097   0.48421   0.00000  Uiso   1.00
C61    C     0.36727   0.12842   0.56263   0.00000  Uiso   1.00
C62    C     0.42051   0.13367   0.65069   0.00000  Uiso   1.00
C63    C     0.40867   0.21012   0.71255   0.00000  Uiso   1.00
C64    C     0.38960   0.09561   0.38087   0.00000  Uiso   1.00
C65    C     0.46160   0.07326   0.31610   0.00000  Uiso   1.00
C66    C     0.46856   0.12207   0.22494   0.00000  Uiso   1.00
C67    C     0.27125   0.01551   0.47711   0.00000  Uiso   1.00
C68    C     0.24376   0.92580   0.49324   0.00000  Uiso   1.00
C69    C     0.15108   0.90716   0.48308   0.00000  Uiso   1.00
H70    H     0.20452   0.23085   0.41773   0.00000  Uiso   1.00
H71    H     0.24388   0.32667   0.57933   0.00000  Uiso   1.00
H72    H     0.28497   0.26625   0.24479   0.00000  Uiso   1.00
H73    H     0.06716   0.11882   0.42191   0.00000  Uiso   1.00
H74    H     0.31526   0.40265   0.76966   0.00000  Uiso   1.00
H75    H     0.40186   0.27523   0.06425   0.00000  Uiso   1.00
H76    H     0.94257   0.96434   0.43773   0.00000  Uiso   1.00
H77    H     0.41805   0.99751   0.50396   0.00000  Uiso   1.00
H78    H     0.46913   0.08053   0.67030   0.00000  Uiso   1.00
H79    H     0.51022   0.02011   0.33576   0.00000  Uiso   1.00
H80    H     0.29241   0.87268   0.51288   0.00000  Uiso   1.00
H81    H     0.49808   0.20287   0.84350   0.00000  Uiso   1.00
H82    H     0.58469   0.07545   0.13808   0.00000  Uiso   1.00
H83    H     0.12539   0.76456   0.51157   0.00000  Uiso   1.00
O84    O     0.43644   0.36160   0.91443   0.00000  Uiso   1.00
O85    O     0.55005   0.19442   0.98895   0.00000  Uiso   1.00
O86    O     0.94747   0.78654   0.47895   0.00000  Uiso   1.00
N87    N     0.35126   0.34423   0.76422   0.00000  Uiso   1.00
N88    N     0.43224   0.22511   0.10471   0.00000  Uiso   1.00
N89    N     0.00284   0.93445   0.45386   0.00000  Uiso   1.00
N90    N     0.44964   0.23673   0.80395   0.00000  Uiso   1.00
N91    N     0.53062   0.11761   0.14444   0.00000  Uiso   1.00
N92    N     0.10122   0.82695   0.49359   0.00000  Uiso   1.00
C93    C     0.17739   0.74656   0.18749   0.00000  Uiso   1.00
C94    C     0.19709   0.69557   0.28726   0.00000  Uiso   1.00
C95    C     0.27354   0.70749   0.34900   0.00000  Uiso   1.00
C96    C     0.27891   0.65427   0.43713   0.00000  Uiso   1.00
C97    C     0.31997   0.58463   0.58815   0.00000  Uiso   1.00
C98    C     0.16427   0.67324   0.10549   0.00000  Uiso   1.00
C99    C     0.21313   0.66639   0.01441   0.00000  Uiso   1.00
C100   C     0.19086   0.59439   0.94953   0.00000  Uiso   1.00
C101   C     0.18092   0.49011   0.81832   0.00000  Uiso   1.00
C102   C     0.08418   0.79158   0.20173   0.00000  Uiso   1.00
C103   C     0.06567   0.88424   0.19154   0.00000  Uiso   1.00
C104   C     0.97595   0.91187   0.20766   0.00000  Uiso   1.00
C105   C     0.84165   0.99134   0.22589   0.00000  Uiso   1.00
C106   C     0.05097   0.63087   0.23421   0.00000  Uiso   1.00
C107   C     0.12842   0.63273   0.31263   0.00000  Uiso   1.00
C108   C     0.13367   0.57949   0.40069   0.00000  Uiso   1.00
C109   C     0.21012   0.59133   0.46255   0.00000  Uiso   1.00
C110   C     0.09561   0.61040   0.13087   0.00000  Uiso   1.00
C111   C     0.07326   0.53840   0.06610   0.00000  Uiso   1.00
C112   C     0.12207   0.53144   0.97494   0.00000  Uiso   1.00
C113   C     0.01551   0.72875   0.22711   0.00000  Uiso   1.00
C114   C     0.92580   0.75624   0.24324   0.00000  Uiso   1.00
C115   C     0.90716   0.84892   0.23308   0.00000  Uiso   1.00
H116   H     0.23085   0.79548   0.16773   0.00000  Uiso   1.00
H117   H     0.32667   0.75612   0.32933   0.00000  Uiso   1.00
H118   H     0.26625   0.71503   0.99479   0.00000  Uiso   1.00
H119   H     0.11882   0.93284   0.17191   0.00000  Uiso   1.00
H120   H     0.40265   0.68474   0.51966   0.00000  Uiso   1.00
H121   H     0.27523   0.59814   0.81425   0.00000  Uiso   1.00
H122   H     0.96434   0.05743   0.18773   0.00000  Uiso   1.00
H123   H     0.99751   0.58195   0.25396   0.00000  Uiso   1.00
H124   H     0.08053   0.53087   0.42030   0.00000  Uiso   1.00
H125   H     0.02011   0.48978   0.08576   0.00000  Uiso   1.00
H126   H     0.87268   0.70759   0.26288   0.00000  Uiso   1.00
H127   H     0.20287   0.50192   0.59350   0.00000  Uiso   1.00
H128   H     0.07545   0.41531   0.88808   0.00000  Uiso   1.00
H129   H     0.76456   0.87461   0.26157   0.00000  Uiso   1.00
O130   O     0.36160   0.56356   0.66443   0.00000  Uiso   1.00
O131   O     0.19442   0.44995   0.73895   0.00000  Uiso   1.00
O132   O     0.78654   0.05253   0.22895   0.00000  Uiso   1.00
N133   N     0.34423   0.64874   0.51422   0.00000  Uiso   1.00
N134   N     0.22511   0.56776   0.85471   0.00000  Uiso   1.00
N135   N     0.93445   0.99716   0.20386   0.00000  Uiso   1.00
N136   N     0.23673   0.55036   0.55395   0.00000  Uiso   1.00
N137   N     0.11761   0.46938   0.89444   0.00000  Uiso   1.00
N138   N     0.82695   0.89878   0.24359   0.00000  Uiso   1.00
C139   C     0.82261   0.25344   0.68749   0.00000  Uiso   1.00
C140   C     0.80291   0.30443   0.78726   0.00000  Uiso   1.00
C141   C     0.72646   0.29251   0.84900   0.00000  Uiso   1.00
C142   C     0.72109   0.34573   0.93713   0.00000  Uiso   1.00
C143   C     0.68003   0.41537   0.08815   0.00000  Uiso   1.00
C144   C     0.83573   0.32676   0.60549   0.00000  Uiso   1.00
C145   C     0.78687   0.33361   0.51441   0.00000  Uiso   1.00
C146   C     0.80914   0.40561   0.44953   0.00000  Uiso   1.00
C147   C     0.81908   0.50989   0.31832   0.00000  Uiso   1.00
C148   C     0.91582   0.20842   0.70173   0.00000  Uiso   1.00
C149   C     0.93433   0.11576   0.69154   0.00000  Uiso   1.00
C150   C     0.02405   0.08813   0.70766   0.00000  Uiso   1.00
C151   C     0.15835   0.00866   0.72589   0.00000  Uiso   1.00
C152   C     0.94903   0.36913   0.73421   0.00000  Uiso   1.00
C153   C     0.87158   0.36727   0.81263   0.00000  Uiso   1.00
C154   C     0.86633   0.42051   0.90069   0.00000  Uiso   1.00
C155   C     0.78988   0.40867   0.96255   0.00000  Uiso   1.00
C156   C     0.90439   0.38960   0.63087   0.00000  Uiso   1.00
C157   C     0.92674   0.46160   0.56610   0.00000  Uiso   1.00
C158   C     0.87793   0.46856   0.47494   0.00000  Uiso   1.00
C159   C     0.98449   0.27125   0.72711   0.00000  Uiso   1.00
C160   C     0.07420   0.24376   0.74324   0.00000  Uiso   1.00
C161   C     0.09284   0.15108   0.73308   0.00000  Uiso   1.00
H162   H     0.76915   0.20452   0.66773   0.00000  Uiso   1.00
H163   H     0.67333   0.24388   0.82933   0.00000  Uiso   1.00
H164   H     0.73375   0.28497   0.49479   0.00000  Uiso   1.00
H165   H     0.88118   0.06716   0.67191   0.00000  Uiso   1.00
H166   H     0.59735   0.31526   0.01966   0.00000  Uiso   1.00
H167   H     0.72477   0.40186   0.31425   0.00000  Uiso   1.00
H168   H     0.03566   0.94257   0.68773   0.00000  Uiso   1.00
H169   H     0.00249   0.41805   0.75396   0.00000  Uiso   1.00
H170   H     0.91947   0.46913   0.92030   0.00000  Uiso   1.00
H171   H     0.97989   0.51022   0.58576   0.00000  Uiso   1.00
H172   H     0.12732   0.29241   0.76288   0.00000  Uiso   1.00
H173   H     0.79713   0.49808   0.09350   0.00000  Uiso   1.00
H174   H     0.92455   0.58469   0.38808   0.00000  Uiso   1.00
H175   H     0.23544   0.12539   0.76157   0.00000  Uiso   1.00
O176   O     0.63840   0.43644   0.16443   0.00000  Uiso   1.00
O177   O     0.80558   0.55005   0.23895   0.00000  Uiso   1.00
O178   O     0.21346   0.94747   0.72895   0.00000  Uiso   1.00
N179   N     0.65577   0.35126   0.01422   0.00000  Uiso   1.00
N180   N     0.77489   0.43224   0.35471   0.00000  Uiso   1.00
N181   N     0.06555   0.00284   0.70386   0.00000  Uiso   1.00
N182   N     0.76327   0.44964   0.05395   0.00000  Uiso   1.00
N183   N     0.88239   0.53062   0.39444   0.00000  Uiso   1.00
N184   N     0.17305   0.10122   0.74359   0.00000  Uiso   1.00
