data_job_04620
_audit_creation_date              2018-12-19
_audit_creation_method            'Materials Studio'
_symmetry_space_group_name_H-M    'P1'
_symmetry_Int_Tables_number       1
_symmetry_cell_setting            triclinic
loop_
_symmetry_equiv_pos_as_xyz
  x,y,z
_cell_length_a                    11.4668
_cell_length_b                    23.7473
_cell_length_c                    11.3932
_cell_angle_alpha                 90.0000
_cell_angle_beta                  114.1734
_cell_angle_gamma                 90.0000
loop_
_atom_site_label
_atom_site_type_symbol
_atom_site_fract_x
_atom_site_fract_y
_atom_site_fract_z
_atom_site_U_iso_or_equiv
_atom_site_adp_type
_atom_site_occupancy
C1     C     0.61316   0.34532   0.78912   0.00000  Uiso   1.00
C2     C     0.56686   0.40025   0.82479   0.00000  Uiso   1.00
C3     C     0.51940   0.40646   0.91824   0.00000  Uiso   1.00
C4     C     0.48200   0.46020   0.93636   0.00000  Uiso   1.00
C5     C     0.40857   0.53852   0.00277   0.00000  Uiso   1.00
C6     C     0.53484   0.33740   0.64517   0.00000  Uiso   1.00
C7     C     0.46048   0.29076   0.58759   0.00000  Uiso   1.00
C8     C     0.39614   0.29158   0.45450   0.00000  Uiso   1.00
C9     C     0.27307   0.27230   0.24205   0.00000  Uiso   1.00
C10    C     0.75007   0.35615   0.80556   0.00000  Uiso   1.00
C11    C     0.85668   0.32526   0.88282   0.00000  Uiso   1.00
C12    C     0.97356   0.34186   0.88474   0.00000  Uiso   1.00
C13    C     0.18467   0.35168   0.92132   0.00000  Uiso   1.00
C14    C     0.63113   0.42972   0.65512   0.00000  Uiso   1.00
C15    C     0.57662   0.44609   0.75200   0.00000  Uiso   1.00
C16    C     0.53929   0.49984   0.76999   0.00000  Uiso   1.00
C17    C     0.49179   0.50612   0.86345   0.00000  Uiso   1.00
C18    C     0.54460   0.38324   0.57239   0.00000  Uiso   1.00
C19    C     0.48036   0.38413   0.43935   0.00000  Uiso   1.00
C20    C     0.40592   0.33751   0.38159   0.00000  Uiso   1.00
C21    C     0.75984   0.40199   0.73278   0.00000  Uiso   1.00
C22    C     0.87657   0.41864   0.73458   0.00000  Uiso   1.00
C23    C     0.98334   0.38778   0.81183   0.00000  Uiso   1.00
H24    H     0.60555   0.30963   0.84577   0.00000  Uiso   1.00
H25    H     0.51185   0.37097   0.97453   0.00000  Uiso   1.00
H26    H     0.45295   0.25529   0.64394   0.00000  Uiso   1.00
H27    H     0.84909   0.28979   0.93912   0.00000  Uiso   1.00
H28    H     0.41223   0.45920   0.08516   0.00000  Uiso   1.00
H29    H     0.28807   0.21525   0.38808   0.00000  Uiso   1.00
H30    H     0.12341   0.28800   0.01054   0.00000  Uiso   1.00
H31    H     0.63873   0.46541   0.59846   0.00000  Uiso   1.00
H32    H     0.54685   0.53530   0.71366   0.00000  Uiso   1.00
H33    H     0.48795   0.41961   0.38306   0.00000  Uiso   1.00
H34    H     0.88409   0.45411   0.67825   0.00000  Uiso   1.00
H35    H     0.44063   0.59257   0.87342   0.00000  Uiso   1.00
H36    H     0.31647   0.34863   0.17634   0.00000  Uiso   1.00
H37    H     0.15181   0.42138   0.79880   0.00000  Uiso   1.00
O38    O     0.36535   0.56905   0.05950   0.00000  Uiso   1.00
O39    O     0.20248   0.24900   0.14497   0.00000  Uiso   1.00
O40    O     0.29842   0.34444   0.96162   0.00000  Uiso   1.00
N41    N     0.43155   0.48100   0.01953   0.00000  Uiso   1.00
N42    N     0.31545   0.25293   0.36781   0.00000  Uiso   1.00
N43    N     0.09642   0.32093   0.94973   0.00000  Uiso   1.00
N44    N     0.44683   0.55277   0.90560   0.00000  Uiso   1.00
N45    N     0.33073   0.32470   0.25388   0.00000  Uiso   1.00
N46    N     0.11170   0.39270   0.83580   0.00000  Uiso   1.00
C47    C     0.01366   0.65826   0.38098   0.00000  Uiso   1.00
C48    C     0.05026   0.60303   0.33661   0.00000  Uiso   1.00
C49    C     0.14365   0.59653   0.28966   0.00000  Uiso   1.00
C50    C     0.16271   0.54256   0.25409   0.00000  Uiso   1.00
C51    C     0.23042   0.46378   0.18345   0.00000  Uiso   1.00
C52    C     0.87062   0.66562   0.30131   0.00000  Uiso   1.00
C53    C     0.81297   0.71174   0.22470   0.00000  Uiso   1.00
C54    C     0.68080   0.71045   0.15943   0.00000  Uiso   1.00
C55    C     0.46961   0.72885   0.03407   0.00000  Uiso   1.00
C56    C     0.02948   0.64836   0.51894   0.00000  Uiso   1.00
C57    C     0.10538   0.67998   0.62531   0.00000  Uiso   1.00
C58    C     0.10694   0.66416   0.74326   0.00000  Uiso   1.00
C59    C     0.14241   0.65576   0.95580   0.00000  Uiso   1.00
C60    C     0.88145   0.57396   0.40131   0.00000  Uiso   1.00
C61    C     0.97844   0.55724   0.34765   0.00000  Uiso   1.00
C62    C     0.99737   0.50326   0.31215   0.00000  Uiso   1.00
C63    C     0.09077   0.49668   0.26516   0.00000  Uiso   1.00
C64    C     0.79880   0.61983   0.31235   0.00000  Uiso   1.00
C65    C     0.66669   0.61847   0.24719   0.00000  Uiso   1.00
C66    C     0.60886   0.66458   0.17049   0.00000  Uiso   1.00
C67    C     0.95767   0.60256   0.52999   0.00000  Uiso   1.00
C68    C     0.95911   0.58670   0.64780   0.00000  Uiso   1.00
C69    C     0.03499   0.61828   0.75433   0.00000  Uiso   1.00
H70    H     0.06956   0.69391   0.37238   0.00000  Uiso   1.00
H71    H     0.19919   0.63198   0.28111   0.00000  Uiso   1.00
H72    H     0.86856   0.74717   0.21618   0.00000  Uiso   1.00
H73    H     0.16093   0.71541   0.61672   0.00000  Uiso   1.00
H74    H     0.31122   0.54313   0.18475   0.00000  Uiso   1.00
H75    H     0.61406   0.78603   0.04787   0.00000  Uiso   1.00
H76    H     0.23058   0.71905   0.89250   0.00000  Uiso   1.00
H77    H     0.82553   0.53831   0.40991   0.00000  Uiso   1.00
H78    H     0.94178   0.46783   0.32071   0.00000  Uiso   1.00
H79    H     0.61115   0.58303   0.25577   0.00000  Uiso   1.00
H80    H     0.90352   0.55126   0.65631   0.00000  Uiso   1.00
H81    H     0.10229   0.40991   0.21689   0.00000  Uiso   1.00
H82    H     0.40513   0.65281   0.08000   0.00000  Uiso   1.00
H83    H     0.02165   0.58582   0.92463   0.00000  Uiso   1.00
O84    O     0.28760   0.43297   0.14142   0.00000  Uiso   1.00
O85    O     0.37296   0.75165   0.96186   0.00000  Uiso   1.00
O86    O     0.18182   0.66377   0.06998   0.00000  Uiso   1.00
N87    N     0.24611   0.52145   0.20458   0.00000  Uiso   1.00
N88    N     0.59431   0.74854   0.07659   0.00000  Uiso   1.00
N89    N     0.17068   0.68592   0.86624   0.00000  Uiso   1.00
N90    N     0.13369   0.44976   0.22187   0.00000  Uiso   1.00
N91    N     0.48189   0.67685   0.09388   0.00000  Uiso   1.00
N92    N     0.05826   0.61423   0.88353   0.00000  Uiso   1.00
C93    C     0.38684   0.84532   0.21088   0.00000  Uiso   1.00
C94    C     0.43314   0.90025   0.17521   0.00000  Uiso   1.00
C95    C     0.48060   0.90646   0.08176   0.00000  Uiso   1.00
C96    C     0.51800   0.96020   0.06364   0.00000  Uiso   1.00
C97    C     0.59143   0.03852   0.99723   0.00000  Uiso   1.00
C98    C     0.46516   0.83740   0.35483   0.00000  Uiso   1.00
C99    C     0.53952   0.79076   0.41241   0.00000  Uiso   1.00
C100   C     0.60386   0.79158   0.54550   0.00000  Uiso   1.00
C101   C     0.72693   0.77230   0.75795   0.00000  Uiso   1.00
C102   C     0.24993   0.85615   0.19444   0.00000  Uiso   1.00
C103   C     0.14332   0.82526   0.11718   0.00000  Uiso   1.00
C104   C     0.02644   0.84186   0.11526   0.00000  Uiso   1.00
C105   C     0.81533   0.85168   0.07868   0.00000  Uiso   1.00
C106   C     0.36887   0.92972   0.34488   0.00000  Uiso   1.00
C107   C     0.42338   0.94609   0.24800   0.00000  Uiso   1.00
C108   C     0.46071   0.99984   0.23001   0.00000  Uiso   1.00
C109   C     0.50821   0.00612   0.13655   0.00000  Uiso   1.00
C110   C     0.45540   0.88324   0.42761   0.00000  Uiso   1.00
C111   C     0.51964   0.88413   0.56065   0.00000  Uiso   1.00
C112   C     0.59408   0.83751   0.61841   0.00000  Uiso   1.00
C113   C     0.24016   0.90199   0.26722   0.00000  Uiso   1.00
C114   C     0.12343   0.91864   0.26542   0.00000  Uiso   1.00
C115   C     0.01666   0.88778   0.18817   0.00000  Uiso   1.00
H116   H     0.39445   0.80963   0.15423   0.00000  Uiso   1.00
H117   H     0.48815   0.87097   0.02547   0.00000  Uiso   1.00
H118   H     0.54705   0.75529   0.35606   0.00000  Uiso   1.00
H119   H     0.15091   0.78979   0.06088   0.00000  Uiso   1.00
H120   H     0.58777   0.95920   0.91484   0.00000  Uiso   1.00
H121   H     0.71193   0.71525   0.61192   0.00000  Uiso   1.00
H122   H     0.87659   0.78800   0.98946   0.00000  Uiso   1.00
H123   H     0.36127   0.96541   0.40154   0.00000  Uiso   1.00
H124   H     0.45315   0.03530   0.28634   0.00000  Uiso   1.00
H125   H     0.51205   0.91961   0.61694   0.00000  Uiso   1.00
H126   H     0.11591   0.95411   0.32175   0.00000  Uiso   1.00
H127   H     0.55937   0.09257   0.12658   0.00000  Uiso   1.00
H128   H     0.68353   0.84863   0.82366   0.00000  Uiso   1.00
H129   H     0.84819   0.92138   0.20120   0.00000  Uiso   1.00
O130   O     0.63465   0.06905   0.94050   0.00000  Uiso   1.00
O131   O     0.79752   0.74900   0.85503   0.00000  Uiso   1.00
O132   O     0.70158   0.84444   0.03838   0.00000  Uiso   1.00
N133   N     0.56845   0.98100   0.98047   0.00000  Uiso   1.00
N134   N     0.68455   0.75293   0.63219   0.00000  Uiso   1.00
N135   N     0.90358   0.82093   0.05027   0.00000  Uiso   1.00
N136   N     0.55317   0.05277   0.09440   0.00000  Uiso   1.00
N137   N     0.66927   0.82470   0.74612   0.00000  Uiso   1.00
N138   N     0.88830   0.89270   0.16420   0.00000  Uiso   1.00
C139   C     0.98634   0.15826   0.61902   0.00000  Uiso   1.00
C140   C     0.94974   0.10303   0.66339   0.00000  Uiso   1.00
C141   C     0.85635   0.09653   0.71034   0.00000  Uiso   1.00
C142   C     0.83729   0.04256   0.74591   0.00000  Uiso   1.00
C143   C     0.76958   0.96378   0.81655   0.00000  Uiso   1.00
C144   C     0.12938   0.16562   0.69869   0.00000  Uiso   1.00
C145   C     0.18703   0.21174   0.77530   0.00000  Uiso   1.00
C146   C     0.31920   0.21045   0.84057   0.00000  Uiso   1.00
C147   C     0.53039   0.22885   0.96593   0.00000  Uiso   1.00
C148   C     0.97052   0.14836   0.48106   0.00000  Uiso   1.00
C149   C     0.89462   0.17998   0.37469   0.00000  Uiso   1.00
C150   C     0.89306   0.16416   0.25674   0.00000  Uiso   1.00
C151   C     0.85759   0.15576   0.04420   0.00000  Uiso   1.00
C152   C     0.11855   0.07396   0.59869   0.00000  Uiso   1.00
C153   C     0.02156   0.05724   0.65235   0.00000  Uiso   1.00
C154   C     0.00263   0.00326   0.68785   0.00000  Uiso   1.00
C155   C     0.90923   0.99668   0.73484   0.00000  Uiso   1.00
C156   C     0.20120   0.11983   0.68765   0.00000  Uiso   1.00
C157   C     0.33331   0.11847   0.75281   0.00000  Uiso   1.00
C158   C     0.39114   0.16458   0.82951   0.00000  Uiso   1.00
C159   C     0.04233   0.10256   0.47001   0.00000  Uiso   1.00
C160   C     0.04089   0.08670   0.35220   0.00000  Uiso   1.00
C161   C     0.96501   0.11828   0.24567   0.00000  Uiso   1.00
H162   H     0.93044   0.19391   0.62762   0.00000  Uiso   1.00
H163   H     0.80081   0.13198   0.71889   0.00000  Uiso   1.00
H164   H     0.13144   0.24717   0.78382   0.00000  Uiso   1.00
H165   H     0.83907   0.21541   0.38328   0.00000  Uiso   1.00
H166   H     0.68878   0.04313   0.81525   0.00000  Uiso   1.00
H167   H     0.38594   0.28603   0.95213   0.00000  Uiso   1.00
H168   H     0.76942   0.21905   0.10750   0.00000  Uiso   1.00
H169   H     0.17447   0.03831   0.59009   0.00000  Uiso   1.00
H170   H     0.05822   0.96783   0.67929   0.00000  Uiso   1.00
H171   H     0.38885   0.08303   0.74423   0.00000  Uiso   1.00
H172   H     0.09648   0.05126   0.34369   0.00000  Uiso   1.00
H173   H     0.89771   0.90991   0.78311   0.00000  Uiso   1.00
H174   H     0.59487   0.15281   0.92000   0.00000  Uiso   1.00
H175   H     0.97835   0.08582   0.07537   0.00000  Uiso   1.00
O176   O     0.71240   0.93297   0.85858   0.00000  Uiso   1.00
O177   O     0.62704   0.25165   0.03814   0.00000  Uiso   1.00
O178   O     0.81818   0.16377   0.93002   0.00000  Uiso   1.00
N179   N     0.75389   0.02145   0.79542   0.00000  Uiso   1.00
N180   N     0.40569   0.24854   0.92341   0.00000  Uiso   1.00
N181   N     0.82932   0.18592   0.13376   0.00000  Uiso   1.00
N182   N     0.86631   0.94976   0.77813   0.00000  Uiso   1.00
N183   N     0.51811   0.17685   0.90612   0.00000  Uiso   1.00
N184   N     0.94174   0.11423   0.11647   0.00000  Uiso   1.00
