data_job_03709
_audit_creation_date              2018-12-19
_audit_creation_method            'Materials Studio'
_symmetry_space_group_name_H-M    'P1'
_symmetry_Int_Tables_number       1
_symmetry_cell_setting            triclinic
loop_
_symmetry_equiv_pos_as_xyz
  x,y,z
_cell_length_a                    11.2160
_cell_length_b                    40.6651
_cell_length_c                    23.0980
_cell_angle_alpha                 90.0000
_cell_angle_beta                  90.0000
_cell_angle_gamma                 90.0000
loop_
_atom_site_label
_atom_site_type_symbol
_atom_site_fract_x
_atom_site_fract_y
_atom_site_fract_z
_atom_site_U_iso_or_equiv
_atom_site_adp_type
_atom_site_occupancy
C1     C     0.61162   0.67608   0.12228   0.00000  Uiso   1.00
C2     C     0.58547   0.64002   0.13515   0.00000  Uiso   1.00
C3     C     0.47341   0.62655   0.14447   0.00000  Uiso   1.00
C4     C     0.46829   0.59303   0.15559   0.00000  Uiso   1.00
C5     C     0.41198   0.53997   0.17534   0.00000  Uiso   1.00
C6     C     0.69949   0.68734   0.16859   0.00000  Uiso   1.00
C7     C     0.68331   0.71366   0.20603   0.00000  Uiso   1.00
C8     C     0.77418   0.71997   0.24530   0.00000  Uiso   1.00
C9     C     0.89494   0.74040   0.31695   0.00000  Uiso   1.00
C10    C     0.68020   0.67651   0.06528   0.00000  Uiso   1.00
C11    C     0.64782   0.69374   0.01585   0.00000  Uiso   1.00
C12    C     0.72247   0.69094   0.96815   0.00000  Uiso   1.00
C13    C     0.81327   0.69456   0.87939   0.00000  Uiso   1.00
C14    C     0.80177   0.64050   0.12546   0.00000  Uiso   1.00
C15    C     0.68875   0.62069   0.13688   0.00000  Uiso   1.00
C16    C     0.68379   0.58718   0.14799   0.00000  Uiso   1.00
C17    C     0.57175   0.57366   0.15732   0.00000  Uiso   1.00
C18    C     0.80277   0.66801   0.17032   0.00000  Uiso   1.00
C19    C     0.89369   0.67429   0.20955   0.00000  Uiso   1.00
C20    C     0.87765   0.70061   0.24704   0.00000  Uiso   1.00
C21    C     0.78348   0.65719   0.06701   0.00000  Uiso   1.00
C22    C     0.85820   0.65437   0.01938   0.00000  Uiso   1.00
C23    C     0.82594   0.67158   0.96988   0.00000  Uiso   1.00
H24    H     0.53121   0.69113   0.12093   0.00000  Uiso   1.00
H25    H     0.39351   0.64151   0.14313   0.00000  Uiso   1.00
H26    H     0.60338   0.72861   0.20467   0.00000  Uiso   1.00
H27    H     0.56789   0.70869   0.01453   0.00000  Uiso   1.00
H28    H     0.28639   0.57798   0.16852   0.00000  Uiso   1.00
H29    H     0.72894   0.76164   0.29828   0.00000  Uiso   1.00
H30    H     0.65410   0.71964   0.89732   0.00000  Uiso   1.00
H31    H     0.88218   0.62546   0.12681   0.00000  Uiso   1.00
H32    H     0.76374   0.57223   0.14933   0.00000  Uiso   1.00
H33    H     0.97361   0.65933   0.21088   0.00000  Uiso   1.00
H34    H     0.93812   0.63941   0.02073   0.00000  Uiso   1.00
H35    H     0.58688   0.52175   0.17356   0.00000  Uiso   1.00
H36    H     0.02943   0.70541   0.30331   0.00000  Uiso   1.00
H37    H     0.95459   0.66341   0.90236   0.00000  Uiso   1.00
O38    O     0.35239   0.51604   0.18577   0.00000  Uiso   1.00
O39    O     0.93300   0.75700   0.35599   0.00000  Uiso   1.00
O40    O     0.83481   0.70189   0.82995   0.00000  Uiso   1.00
N41    N     0.37336   0.57205   0.16660   0.00000  Uiso   1.00
N42    N     0.78711   0.74376   0.28793   0.00000  Uiso   1.00
N43    N     0.71716   0.70449   0.91307   0.00000  Uiso   1.00
N44    N     0.53505   0.54179   0.16931   0.00000  Uiso   1.00
N45    N     0.94880   0.71350   0.29064   0.00000  Uiso   1.00
N46    N     0.87885   0.67424   0.91578   0.00000  Uiso   1.00
C47    C     0.11162   0.17608   0.62228   0.00000  Uiso   1.00
C48    C     0.08547   0.14002   0.63515   0.00000  Uiso   1.00
C49    C     0.97341   0.12655   0.64447   0.00000  Uiso   1.00
C50    C     0.96829   0.09303   0.65559   0.00000  Uiso   1.00
C51    C     0.91198   0.03997   0.67534   0.00000  Uiso   1.00
C52    C     0.19949   0.18734   0.66859   0.00000  Uiso   1.00
C53    C     0.18331   0.21366   0.70603   0.00000  Uiso   1.00
C54    C     0.27418   0.21997   0.74530   0.00000  Uiso   1.00
C55    C     0.39494   0.24040   0.81695   0.00000  Uiso   1.00
C56    C     0.18020   0.17651   0.56528   0.00000  Uiso   1.00
C57    C     0.14782   0.19374   0.51585   0.00000  Uiso   1.00
C58    C     0.22247   0.19094   0.46815   0.00000  Uiso   1.00
C59    C     0.31327   0.19456   0.37939   0.00000  Uiso   1.00
C60    C     0.30177   0.14050   0.62546   0.00000  Uiso   1.00
C61    C     0.18875   0.12069   0.63688   0.00000  Uiso   1.00
C62    C     0.18379   0.08718   0.64799   0.00000  Uiso   1.00
C63    C     0.07175   0.07366   0.65732   0.00000  Uiso   1.00
C64    C     0.30277   0.16801   0.67032   0.00000  Uiso   1.00
C65    C     0.39369   0.17429   0.70955   0.00000  Uiso   1.00
C66    C     0.37765   0.20061   0.74704   0.00000  Uiso   1.00
C67    C     0.28348   0.15719   0.56701   0.00000  Uiso   1.00
C68    C     0.35820   0.15437   0.51938   0.00000  Uiso   1.00
C69    C     0.32594   0.17158   0.46988   0.00000  Uiso   1.00
H70    H     0.03121   0.19113   0.62093   0.00000  Uiso   1.00
H71    H     0.89351   0.14151   0.64313   0.00000  Uiso   1.00
H72    H     0.10338   0.22861   0.70467   0.00000  Uiso   1.00
H73    H     0.06789   0.20869   0.51453   0.00000  Uiso   1.00
H74    H     0.78639   0.07798   0.66852   0.00000  Uiso   1.00
H75    H     0.22894   0.26164   0.79828   0.00000  Uiso   1.00
H76    H     0.15410   0.21964   0.39732   0.00000  Uiso   1.00
H77    H     0.38218   0.12546   0.62681   0.00000  Uiso   1.00
H78    H     0.26374   0.07223   0.64933   0.00000  Uiso   1.00
H79    H     0.47361   0.15933   0.71088   0.00000  Uiso   1.00
H80    H     0.43812   0.13941   0.52073   0.00000  Uiso   1.00
H81    H     0.08688   0.02175   0.67356   0.00000  Uiso   1.00
H82    H     0.52943   0.20541   0.80331   0.00000  Uiso   1.00
H83    H     0.45459   0.16341   0.40236   0.00000  Uiso   1.00
O84    O     0.85239   0.01604   0.68577   0.00000  Uiso   1.00
O85    O     0.43300   0.25700   0.85599   0.00000  Uiso   1.00
O86    O     0.33481   0.20189   0.32995   0.00000  Uiso   1.00
N87    N     0.87336   0.07205   0.66660   0.00000  Uiso   1.00
N88    N     0.28711   0.24376   0.78793   0.00000  Uiso   1.00
N89    N     0.21716   0.20449   0.41307   0.00000  Uiso   1.00
N90    N     0.03505   0.04179   0.66931   0.00000  Uiso   1.00
N91    N     0.44880   0.21350   0.79064   0.00000  Uiso   1.00
N92    N     0.37885   0.17424   0.41578   0.00000  Uiso   1.00
C93    C     0.38838   0.32392   0.12228   0.00000  Uiso   1.00
C94    C     0.41453   0.35998   0.13515   0.00000  Uiso   1.00
C95    C     0.52659   0.37345   0.14447   0.00000  Uiso   1.00
C96    C     0.53171   0.40697   0.15559   0.00000  Uiso   1.00
C97    C     0.58802   0.46003   0.17534   0.00000  Uiso   1.00
C98    C     0.30051   0.31266   0.16859   0.00000  Uiso   1.00
C99    C     0.31669   0.28634   0.20603   0.00000  Uiso   1.00
C100   C     0.22582   0.28003   0.24530   0.00000  Uiso   1.00
C101   C     0.10506   0.25960   0.31695   0.00000  Uiso   1.00
C102   C     0.31980   0.32349   0.06528   0.00000  Uiso   1.00
C103   C     0.35218   0.30626   0.01585   0.00000  Uiso   1.00
C104   C     0.27753   0.30906   0.96815   0.00000  Uiso   1.00
C105   C     0.18673   0.30544   0.87939   0.00000  Uiso   1.00
C106   C     0.19823   0.35950   0.12546   0.00000  Uiso   1.00
C107   C     0.31125   0.37931   0.13688   0.00000  Uiso   1.00
C108   C     0.31621   0.41282   0.14799   0.00000  Uiso   1.00
C109   C     0.42825   0.42634   0.15732   0.00000  Uiso   1.00
C110   C     0.19723   0.33199   0.17032   0.00000  Uiso   1.00
C111   C     0.10631   0.32571   0.20955   0.00000  Uiso   1.00
C112   C     0.12235   0.29939   0.24704   0.00000  Uiso   1.00
C113   C     0.21652   0.34281   0.06701   0.00000  Uiso   1.00
C114   C     0.14180   0.34563   0.01938   0.00000  Uiso   1.00
C115   C     0.17406   0.32842   0.96988   0.00000  Uiso   1.00
H116   H     0.46879   0.30887   0.12093   0.00000  Uiso   1.00
H117   H     0.60649   0.35849   0.14313   0.00000  Uiso   1.00
H118   H     0.39662   0.27139   0.20467   0.00000  Uiso   1.00
H119   H     0.43211   0.29131   0.01453   0.00000  Uiso   1.00
H120   H     0.71361   0.42202   0.16852   0.00000  Uiso   1.00
H121   H     0.27106   0.23836   0.29828   0.00000  Uiso   1.00
H122   H     0.34590   0.28036   0.89732   0.00000  Uiso   1.00
H123   H     0.11782   0.37454   0.12681   0.00000  Uiso   1.00
H124   H     0.23626   0.42777   0.14933   0.00000  Uiso   1.00
H125   H     0.02639   0.34067   0.21088   0.00000  Uiso   1.00
H126   H     0.06188   0.36059   0.02073   0.00000  Uiso   1.00
H127   H     0.41312   0.47825   0.17356   0.00000  Uiso   1.00
H128   H     0.97057   0.29459   0.30331   0.00000  Uiso   1.00
H129   H     0.04541   0.33659   0.90236   0.00000  Uiso   1.00
O130   O     0.64761   0.48396   0.18577   0.00000  Uiso   1.00
O131   O     0.06700   0.24300   0.35599   0.00000  Uiso   1.00
O132   O     0.16519   0.29811   0.82995   0.00000  Uiso   1.00
N133   N     0.62664   0.42795   0.16660   0.00000  Uiso   1.00
N134   N     0.21289   0.25624   0.28793   0.00000  Uiso   1.00
N135   N     0.28284   0.29551   0.91307   0.00000  Uiso   1.00
N136   N     0.46495   0.45821   0.16931   0.00000  Uiso   1.00
N137   N     0.05120   0.28650   0.29064   0.00000  Uiso   1.00
N138   N     0.12115   0.32576   0.91578   0.00000  Uiso   1.00
C139   C     0.88838   0.82392   0.62228   0.00000  Uiso   1.00
C140   C     0.91453   0.85998   0.63515   0.00000  Uiso   1.00
C141   C     0.02659   0.87345   0.64447   0.00000  Uiso   1.00
C142   C     0.03171   0.90697   0.65559   0.00000  Uiso   1.00
C143   C     0.08802   0.96003   0.67534   0.00000  Uiso   1.00
C144   C     0.80051   0.81266   0.66859   0.00000  Uiso   1.00
C145   C     0.81669   0.78634   0.70603   0.00000  Uiso   1.00
C146   C     0.72582   0.78003   0.74530   0.00000  Uiso   1.00
C147   C     0.60506   0.75960   0.81695   0.00000  Uiso   1.00
C148   C     0.81980   0.82349   0.56528   0.00000  Uiso   1.00
C149   C     0.85218   0.80626   0.51585   0.00000  Uiso   1.00
C150   C     0.77753   0.80906   0.46815   0.00000  Uiso   1.00
C151   C     0.68673   0.80544   0.37939   0.00000  Uiso   1.00
C152   C     0.69823   0.85950   0.62546   0.00000  Uiso   1.00
C153   C     0.81125   0.87931   0.63688   0.00000  Uiso   1.00
C154   C     0.81621   0.91282   0.64799   0.00000  Uiso   1.00
C155   C     0.92825   0.92634   0.65732   0.00000  Uiso   1.00
C156   C     0.69723   0.83199   0.67032   0.00000  Uiso   1.00
C157   C     0.60631   0.82571   0.70955   0.00000  Uiso   1.00
C158   C     0.62235   0.79939   0.74704   0.00000  Uiso   1.00
C159   C     0.71652   0.84281   0.56701   0.00000  Uiso   1.00
C160   C     0.64180   0.84563   0.51938   0.00000  Uiso   1.00
C161   C     0.67406   0.82842   0.46988   0.00000  Uiso   1.00
H162   H     0.96879   0.80887   0.62093   0.00000  Uiso   1.00
H163   H     0.10649   0.85849   0.64313   0.00000  Uiso   1.00
H164   H     0.89662   0.77139   0.70467   0.00000  Uiso   1.00
H165   H     0.93211   0.79131   0.51453   0.00000  Uiso   1.00
H166   H     0.21361   0.92202   0.66852   0.00000  Uiso   1.00
H167   H     0.77106   0.73836   0.79828   0.00000  Uiso   1.00
H168   H     0.84590   0.78036   0.39732   0.00000  Uiso   1.00
H169   H     0.61782   0.87454   0.62681   0.00000  Uiso   1.00
H170   H     0.73626   0.92777   0.64933   0.00000  Uiso   1.00
H171   H     0.52639   0.84067   0.71088   0.00000  Uiso   1.00
H172   H     0.56188   0.86059   0.52073   0.00000  Uiso   1.00
H173   H     0.91312   0.97825   0.67356   0.00000  Uiso   1.00
H174   H     0.47057   0.79459   0.80331   0.00000  Uiso   1.00
H175   H     0.54541   0.83659   0.40236   0.00000  Uiso   1.00
O176   O     0.14761   0.98396   0.68577   0.00000  Uiso   1.00
O177   O     0.56700   0.74300   0.85599   0.00000  Uiso   1.00
O178   O     0.66519   0.79811   0.32995   0.00000  Uiso   1.00
N179   N     0.12664   0.92795   0.66660   0.00000  Uiso   1.00
N180   N     0.71289   0.75624   0.78793   0.00000  Uiso   1.00
N181   N     0.78284   0.79551   0.41307   0.00000  Uiso   1.00
N182   N     0.96495   0.95821   0.66931   0.00000  Uiso   1.00
N183   N     0.55120   0.78650   0.79064   0.00000  Uiso   1.00
N184   N     0.62115   0.82576   0.41578   0.00000  Uiso   1.00
C185   C     0.11162   0.82392   0.12228   0.00000  Uiso   1.00
C186   C     0.08547   0.85998   0.13515   0.00000  Uiso   1.00
C187   C     0.97341   0.87345   0.14447   0.00000  Uiso   1.00
C188   C     0.96829   0.90697   0.15559   0.00000  Uiso   1.00
C189   C     0.91198   0.96003   0.17534   0.00000  Uiso   1.00
C190   C     0.19949   0.81266   0.16859   0.00000  Uiso   1.00
C191   C     0.18331   0.78634   0.20603   0.00000  Uiso   1.00
C192   C     0.27418   0.78003   0.24530   0.00000  Uiso   1.00
C193   C     0.39494   0.75960   0.31695   0.00000  Uiso   1.00
C194   C     0.18020   0.82349   0.06528   0.00000  Uiso   1.00
C195   C     0.14782   0.80626   0.01585   0.00000  Uiso   1.00
C196   C     0.22247   0.80906   0.96815   0.00000  Uiso   1.00
C197   C     0.31327   0.80544   0.87939   0.00000  Uiso   1.00
C198   C     0.30177   0.85950   0.12546   0.00000  Uiso   1.00
C199   C     0.18875   0.87931   0.13688   0.00000  Uiso   1.00
C200   C     0.18379   0.91282   0.14799   0.00000  Uiso   1.00
C201   C     0.07175   0.92634   0.15732   0.00000  Uiso   1.00
C202   C     0.30277   0.83199   0.17032   0.00000  Uiso   1.00
C203   C     0.39369   0.82571   0.20955   0.00000  Uiso   1.00
C204   C     0.37765   0.79939   0.24704   0.00000  Uiso   1.00
C205   C     0.28348   0.84281   0.06701   0.00000  Uiso   1.00
C206   C     0.35820   0.84563   0.01938   0.00000  Uiso   1.00
C207   C     0.32594   0.82842   0.96988   0.00000  Uiso   1.00
H208   H     0.03121   0.80887   0.12093   0.00000  Uiso   1.00
H209   H     0.89351   0.85849   0.14313   0.00000  Uiso   1.00
H210   H     0.10338   0.77139   0.20467   0.00000  Uiso   1.00
H211   H     0.06789   0.79131   0.01453   0.00000  Uiso   1.00
H212   H     0.78639   0.92202   0.16852   0.00000  Uiso   1.00
H213   H     0.22894   0.73836   0.29828   0.00000  Uiso   1.00
H214   H     0.15410   0.78036   0.89732   0.00000  Uiso   1.00
H215   H     0.38218   0.87454   0.12681   0.00000  Uiso   1.00
H216   H     0.26374   0.92777   0.14933   0.00000  Uiso   1.00
H217   H     0.47361   0.84067   0.21088   0.00000  Uiso   1.00
H218   H     0.43812   0.86059   0.02073   0.00000  Uiso   1.00
H219   H     0.08688   0.97825   0.17356   0.00000  Uiso   1.00
H220   H     0.52943   0.79459   0.30331   0.00000  Uiso   1.00
H221   H     0.45459   0.83659   0.90236   0.00000  Uiso   1.00
O222   O     0.85239   0.98396   0.18577   0.00000  Uiso   1.00
O223   O     0.43300   0.74300   0.35599   0.00000  Uiso   1.00
O224   O     0.33481   0.79811   0.82995   0.00000  Uiso   1.00
N225   N     0.87336   0.92795   0.16660   0.00000  Uiso   1.00
N226   N     0.28711   0.75624   0.28793   0.00000  Uiso   1.00
N227   N     0.21716   0.79551   0.91307   0.00000  Uiso   1.00
N228   N     0.03505   0.95821   0.16931   0.00000  Uiso   1.00
N229   N     0.44880   0.78650   0.29064   0.00000  Uiso   1.00
N230   N     0.37885   0.82576   0.91578   0.00000  Uiso   1.00
C231   C     0.61162   0.32392   0.62228   0.00000  Uiso   1.00
C232   C     0.58547   0.35998   0.63515   0.00000  Uiso   1.00
C233   C     0.47341   0.37345   0.64447   0.00000  Uiso   1.00
C234   C     0.46829   0.40697   0.65559   0.00000  Uiso   1.00
C235   C     0.41198   0.46003   0.67534   0.00000  Uiso   1.00
C236   C     0.69949   0.31266   0.66859   0.00000  Uiso   1.00
C237   C     0.68331   0.28634   0.70603   0.00000  Uiso   1.00
C238   C     0.77418   0.28003   0.74530   0.00000  Uiso   1.00
C239   C     0.89494   0.25960   0.81695   0.00000  Uiso   1.00
C240   C     0.68020   0.32349   0.56528   0.00000  Uiso   1.00
C241   C     0.64782   0.30626   0.51585   0.00000  Uiso   1.00
C242   C     0.72247   0.30906   0.46815   0.00000  Uiso   1.00
C243   C     0.81327   0.30544   0.37939   0.00000  Uiso   1.00
C244   C     0.80177   0.35950   0.62546   0.00000  Uiso   1.00
C245   C     0.68875   0.37931   0.63688   0.00000  Uiso   1.00
C246   C     0.68379   0.41282   0.64799   0.00000  Uiso   1.00
C247   C     0.57175   0.42634   0.65732   0.00000  Uiso   1.00
C248   C     0.80277   0.33199   0.67032   0.00000  Uiso   1.00
C249   C     0.89369   0.32571   0.70955   0.00000  Uiso   1.00
C250   C     0.87765   0.29939   0.74704   0.00000  Uiso   1.00
C251   C     0.78348   0.34281   0.56701   0.00000  Uiso   1.00
C252   C     0.85820   0.34563   0.51938   0.00000  Uiso   1.00
C253   C     0.82594   0.32842   0.46988   0.00000  Uiso   1.00
H254   H     0.53121   0.30887   0.62093   0.00000  Uiso   1.00
H255   H     0.39351   0.35849   0.64313   0.00000  Uiso   1.00
H256   H     0.60338   0.27139   0.70467   0.00000  Uiso   1.00
H257   H     0.56789   0.29131   0.51453   0.00000  Uiso   1.00
H258   H     0.28639   0.42202   0.66852   0.00000  Uiso   1.00
H259   H     0.72894   0.23836   0.79828   0.00000  Uiso   1.00
H260   H     0.65410   0.28036   0.39732   0.00000  Uiso   1.00
H261   H     0.88218   0.37454   0.62681   0.00000  Uiso   1.00
H262   H     0.76374   0.42777   0.64933   0.00000  Uiso   1.00
H263   H     0.97361   0.34067   0.71088   0.00000  Uiso   1.00
H264   H     0.93812   0.36059   0.52073   0.00000  Uiso   1.00
H265   H     0.58688   0.47825   0.67356   0.00000  Uiso   1.00
H266   H     0.02943   0.29459   0.80331   0.00000  Uiso   1.00
H267   H     0.95459   0.33659   0.40236   0.00000  Uiso   1.00
O268   O     0.35239   0.48396   0.68577   0.00000  Uiso   1.00
O269   O     0.93300   0.24300   0.85599   0.00000  Uiso   1.00
O270   O     0.83481   0.29811   0.32995   0.00000  Uiso   1.00
N271   N     0.37336   0.42795   0.66660   0.00000  Uiso   1.00
N272   N     0.78711   0.25624   0.78793   0.00000  Uiso   1.00
N273   N     0.71716   0.29551   0.41307   0.00000  Uiso   1.00
N274   N     0.53505   0.45821   0.66931   0.00000  Uiso   1.00
N275   N     0.94880   0.28650   0.79064   0.00000  Uiso   1.00
N276   N     0.87885   0.32576   0.41578   0.00000  Uiso   1.00
C277   C     0.88838   0.17608   0.12228   0.00000  Uiso   1.00
C278   C     0.91453   0.14002   0.13515   0.00000  Uiso   1.00
C279   C     0.02659   0.12655   0.14447   0.00000  Uiso   1.00
C280   C     0.03171   0.09303   0.15559   0.00000  Uiso   1.00
C281   C     0.08802   0.03997   0.17534   0.00000  Uiso   1.00
C282   C     0.80051   0.18734   0.16859   0.00000  Uiso   1.00
C283   C     0.81669   0.21366   0.20603   0.00000  Uiso   1.00
C284   C     0.72582   0.21997   0.24530   0.00000  Uiso   1.00
C285   C     0.60506   0.24040   0.31695   0.00000  Uiso   1.00
C286   C     0.81980   0.17651   0.06528   0.00000  Uiso   1.00
C287   C     0.85218   0.19374   0.01585   0.00000  Uiso   1.00
C288   C     0.77753   0.19094   0.96815   0.00000  Uiso   1.00
C289   C     0.68673   0.19456   0.87939   0.00000  Uiso   1.00
C290   C     0.69823   0.14050   0.12546   0.00000  Uiso   1.00
C291   C     0.81125   0.12069   0.13688   0.00000  Uiso   1.00
C292   C     0.81621   0.08718   0.14799   0.00000  Uiso   1.00
C293   C     0.92825   0.07366   0.15732   0.00000  Uiso   1.00
C294   C     0.69723   0.16801   0.17032   0.00000  Uiso   1.00
C295   C     0.60631   0.17429   0.20955   0.00000  Uiso   1.00
C296   C     0.62235   0.20061   0.24704   0.00000  Uiso   1.00
C297   C     0.71652   0.15719   0.06701   0.00000  Uiso   1.00
C298   C     0.64180   0.15437   0.01938   0.00000  Uiso   1.00
C299   C     0.67406   0.17158   0.96988   0.00000  Uiso   1.00
H300   H     0.96879   0.19113   0.12093   0.00000  Uiso   1.00
H301   H     0.10649   0.14151   0.14313   0.00000  Uiso   1.00
H302   H     0.89662   0.22861   0.20467   0.00000  Uiso   1.00
H303   H     0.93211   0.20869   0.01453   0.00000  Uiso   1.00
H304   H     0.21361   0.07798   0.16852   0.00000  Uiso   1.00
H305   H     0.77106   0.26164   0.29828   0.00000  Uiso   1.00
H306   H     0.84590   0.21964   0.89732   0.00000  Uiso   1.00
H307   H     0.61782   0.12546   0.12681   0.00000  Uiso   1.00
H308   H     0.73626   0.07223   0.14933   0.00000  Uiso   1.00
H309   H     0.52639   0.15933   0.21088   0.00000  Uiso   1.00
H310   H     0.56188   0.13941   0.02073   0.00000  Uiso   1.00
H311   H     0.91312   0.02175   0.17356   0.00000  Uiso   1.00
H312   H     0.47057   0.20541   0.30331   0.00000  Uiso   1.00
H313   H     0.54541   0.16341   0.90236   0.00000  Uiso   1.00
O314   O     0.14761   0.01604   0.18577   0.00000  Uiso   1.00
O315   O     0.56700   0.25700   0.35599   0.00000  Uiso   1.00
O316   O     0.66519   0.20189   0.82995   0.00000  Uiso   1.00
N317   N     0.12664   0.07205   0.16660   0.00000  Uiso   1.00
N318   N     0.71289   0.24376   0.28793   0.00000  Uiso   1.00
N319   N     0.78284   0.20449   0.91307   0.00000  Uiso   1.00
N320   N     0.96495   0.04179   0.16931   0.00000  Uiso   1.00
N321   N     0.55120   0.21350   0.29064   0.00000  Uiso   1.00
N322   N     0.62115   0.17424   0.91578   0.00000  Uiso   1.00
C323   C     0.38838   0.67608   0.62228   0.00000  Uiso   1.00
C324   C     0.41453   0.64002   0.63515   0.00000  Uiso   1.00
C325   C     0.52659   0.62655   0.64447   0.00000  Uiso   1.00
C326   C     0.53171   0.59303   0.65559   0.00000  Uiso   1.00
C327   C     0.58802   0.53997   0.67534   0.00000  Uiso   1.00
C328   C     0.30051   0.68734   0.66859   0.00000  Uiso   1.00
C329   C     0.31669   0.71366   0.70603   0.00000  Uiso   1.00
C330   C     0.22582   0.71997   0.74530   0.00000  Uiso   1.00
C331   C     0.10506   0.74040   0.81695   0.00000  Uiso   1.00
C332   C     0.31980   0.67651   0.56528   0.00000  Uiso   1.00
C333   C     0.35218   0.69374   0.51585   0.00000  Uiso   1.00
C334   C     0.27753   0.69094   0.46815   0.00000  Uiso   1.00
C335   C     0.18673   0.69456   0.37939   0.00000  Uiso   1.00
C336   C     0.19823   0.64050   0.62546   0.00000  Uiso   1.00
C337   C     0.31125   0.62069   0.63688   0.00000  Uiso   1.00
C338   C     0.31621   0.58718   0.64799   0.00000  Uiso   1.00
C339   C     0.42825   0.57366   0.65732   0.00000  Uiso   1.00
C340   C     0.19723   0.66801   0.67032   0.00000  Uiso   1.00
C341   C     0.10631   0.67429   0.70955   0.00000  Uiso   1.00
C342   C     0.12235   0.70061   0.74704   0.00000  Uiso   1.00
C343   C     0.21652   0.65719   0.56701   0.00000  Uiso   1.00
C344   C     0.14180   0.65437   0.51938   0.00000  Uiso   1.00
C345   C     0.17406   0.67158   0.46988   0.00000  Uiso   1.00
H346   H     0.46879   0.69113   0.62093   0.00000  Uiso   1.00
H347   H     0.60649   0.64151   0.64313   0.00000  Uiso   1.00
H348   H     0.39662   0.72861   0.70467   0.00000  Uiso   1.00
H349   H     0.43211   0.70869   0.51453   0.00000  Uiso   1.00
H350   H     0.71361   0.57798   0.66852   0.00000  Uiso   1.00
H351   H     0.27106   0.76164   0.79828   0.00000  Uiso   1.00
H352   H     0.34590   0.71964   0.39732   0.00000  Uiso   1.00
H353   H     0.11782   0.62546   0.62681   0.00000  Uiso   1.00
H354   H     0.23626   0.57223   0.64933   0.00000  Uiso   1.00
H355   H     0.02639   0.65933   0.71088   0.00000  Uiso   1.00
H356   H     0.06188   0.63941   0.52073   0.00000  Uiso   1.00
H357   H     0.41312   0.52175   0.67356   0.00000  Uiso   1.00
H358   H     0.97057   0.70541   0.80331   0.00000  Uiso   1.00
H359   H     0.04541   0.66341   0.40236   0.00000  Uiso   1.00
O360   O     0.64761   0.51604   0.68577   0.00000  Uiso   1.00
O361   O     0.06700   0.75700   0.85599   0.00000  Uiso   1.00
O362   O     0.16519   0.70189   0.32995   0.00000  Uiso   1.00
N363   N     0.62664   0.57205   0.66660   0.00000  Uiso   1.00
N364   N     0.21289   0.74376   0.78793   0.00000  Uiso   1.00
N365   N     0.28284   0.70449   0.41307   0.00000  Uiso   1.00
N366   N     0.46495   0.54179   0.66931   0.00000  Uiso   1.00
N367   N     0.05120   0.71350   0.79064   0.00000  Uiso   1.00
N368   N     0.12115   0.67424   0.41578   0.00000  Uiso   1.00
