data_job_01037
_audit_creation_date              2018-12-19
_audit_creation_method            'Materials Studio'
_symmetry_space_group_name_H-M    'P1'
_symmetry_Int_Tables_number       1
_symmetry_cell_setting            triclinic
loop_
_symmetry_equiv_pos_as_xyz
  x,y,z
_cell_length_a                    20.8570
_cell_length_b                    21.7225
_cell_length_c                    12.4425
_cell_angle_alpha                 90.0000
_cell_angle_beta                  90.0000
_cell_angle_gamma                 90.0000
loop_
_atom_site_label
_atom_site_type_symbol
_atom_site_fract_x
_atom_site_fract_y
_atom_site_fract_z
_atom_site_U_iso_or_equiv
_atom_site_adp_type
_atom_site_occupancy
C1     C     0.79711   0.68517   0.08467   0.00000  Uiso   1.00
C2     C     0.83652   0.64932   0.16676   0.00000  Uiso   1.00
C3     C     0.85930   0.67216   0.26368   0.00000  Uiso   1.00
C4     C     0.89443   0.63205   0.32755   0.00000  Uiso   1.00
C5     C     0.95384   0.58563   0.45987   0.00000  Uiso   1.00
C6     C     0.83406   0.68130   0.97913   0.00000  Uiso   1.00
C7     C     0.85476   0.73102   0.91828   0.00000  Uiso   1.00
C8     C     0.88782   0.71783   0.82420   0.00000  Uiso   1.00
C9     C     0.94337   0.72106   0.66518   0.00000  Uiso   1.00
C10    C     0.73575   0.64826   0.06774   0.00000  Uiso   1.00
C11    C     0.67379   0.67020   0.08136   0.00000  Uiso   1.00
C12    C     0.62407   0.62919   0.06186   0.00000  Uiso   1.00
C13    C     0.52699   0.58111   0.04041   0.00000  Uiso   1.00
C14    C     0.81899   0.57333   0.02576   0.00000  Uiso   1.00
C15    C     0.84841   0.58858   0.13476   0.00000  Uiso   1.00
C16    C     0.88351   0.54842   0.19851   0.00000  Uiso   1.00
C17    C     0.90633   0.57119   0.29550   0.00000  Uiso   1.00
C18    C     0.84595   0.62056   0.94713   0.00000  Uiso   1.00
C19    C     0.87898   0.60729   0.85311   0.00000  Uiso   1.00
C20    C     0.89973   0.65697   0.79215   0.00000  Uiso   1.00
C21    C     0.74764   0.58751   0.03574   0.00000  Uiso   1.00
C22    C     0.69800   0.54646   0.01620   0.00000  Uiso   1.00
C23    C     0.63598   0.56833   0.02980   0.00000  Uiso   1.00
H24    H     0.78786   0.73247   0.10957   0.00000  Uiso   1.00
H25    H     0.85009   0.71917   0.28841   0.00000  Uiso   1.00
H26    H     0.84555   0.77803   0.94306   0.00000  Uiso   1.00
H27    H     0.66461   0.71721   0.10612   0.00000  Uiso   1.00
H28    H     0.92435   0.67765   0.47255   0.00000  Uiso   1.00
H29    H     0.91477   0.80175   0.74436   0.00000  Uiso   1.00
H30    H     0.53321   0.67350   0.08820   0.00000  Uiso   1.00
H31    H     0.82825   0.52604   0.00085   0.00000  Uiso   1.00
H32    H     0.89270   0.50141   0.17373   0.00000  Uiso   1.00
H33    H     0.88816   0.56027   0.82838   0.00000  Uiso   1.00
H34    H     0.70722   0.49945   0.99144   0.00000  Uiso   1.00
H35    H     0.95894   0.50091   0.37947   0.00000  Uiso   1.00
H36    H     0.94935   0.62501   0.65127   0.00000  Uiso   1.00
H37    H     0.56779   0.49676   0.99512   0.00000  Uiso   1.00
O38    O     0.98333   0.57681   0.54168   0.00000  Uiso   1.00
O39    O     0.97074   0.73962   0.58631   0.00000  Uiso   1.00
O40    O     0.47015   0.57137   0.03743   0.00000  Uiso   1.00
N41    N     0.92364   0.63943   0.42693   0.00000  Uiso   1.00
N42    N     0.91468   0.75545   0.74612   0.00000  Uiso   1.00
N43    N     0.55796   0.63556   0.06755   0.00000  Uiso   1.00
N44    N     0.94224   0.54433   0.37684   0.00000  Uiso   1.00
N45    N     0.93329   0.66035   0.69603   0.00000  Uiso   1.00
N46    N     0.57657   0.54046   0.01747   0.00000  Uiso   1.00
C47    C     0.70289   0.81483   0.58467   0.00000  Uiso   1.00
C48    C     0.66348   0.85068   0.66676   0.00000  Uiso   1.00
C49    C     0.64070   0.82784   0.76368   0.00000  Uiso   1.00
C50    C     0.60557   0.86795   0.82755   0.00000  Uiso   1.00
C51    C     0.54616   0.91437   0.95987   0.00000  Uiso   1.00
C52    C     0.66594   0.81870   0.47913   0.00000  Uiso   1.00
C53    C     0.64524   0.76898   0.41828   0.00000  Uiso   1.00
C54    C     0.61218   0.78217   0.32420   0.00000  Uiso   1.00
C55    C     0.55663   0.77894   0.16518   0.00000  Uiso   1.00
C56    C     0.76425   0.85174   0.56774   0.00000  Uiso   1.00
C57    C     0.82621   0.82980   0.58136   0.00000  Uiso   1.00
C58    C     0.87593   0.87081   0.56186   0.00000  Uiso   1.00
C59    C     0.97301   0.91889   0.54041   0.00000  Uiso   1.00
C60    C     0.68101   0.92667   0.52576   0.00000  Uiso   1.00
C61    C     0.65159   0.91142   0.63476   0.00000  Uiso   1.00
C62    C     0.61649   0.95158   0.69851   0.00000  Uiso   1.00
C63    C     0.59367   0.92881   0.79550   0.00000  Uiso   1.00
C64    C     0.65405   0.87944   0.44713   0.00000  Uiso   1.00
C65    C     0.62102   0.89271   0.35311   0.00000  Uiso   1.00
C66    C     0.60027   0.84303   0.29215   0.00000  Uiso   1.00
C67    C     0.75236   0.91249   0.53574   0.00000  Uiso   1.00
C68    C     0.80200   0.95354   0.51620   0.00000  Uiso   1.00
C69    C     0.86402   0.93167   0.52980   0.00000  Uiso   1.00
H70    H     0.71214   0.76753   0.60957   0.00000  Uiso   1.00
H71    H     0.64991   0.78083   0.78841   0.00000  Uiso   1.00
H72    H     0.65445   0.72197   0.44306   0.00000  Uiso   1.00
H73    H     0.83539   0.78279   0.60612   0.00000  Uiso   1.00
H74    H     0.57565   0.82235   0.97255   0.00000  Uiso   1.00
H75    H     0.58523   0.69825   0.24436   0.00000  Uiso   1.00
H76    H     0.96679   0.82650   0.58820   0.00000  Uiso   1.00
H77    H     0.67175   0.97396   0.50085   0.00000  Uiso   1.00
H78    H     0.60730   0.99859   0.67373   0.00000  Uiso   1.00
H79    H     0.61184   0.93973   0.32838   0.00000  Uiso   1.00
H80    H     0.79278   0.00055   0.49144   0.00000  Uiso   1.00
H81    H     0.54106   0.99909   0.87947   0.00000  Uiso   1.00
H82    H     0.55065   0.87499   0.15127   0.00000  Uiso   1.00
H83    H     0.93221   0.00324   0.49512   0.00000  Uiso   1.00
O84    O     0.51667   0.92319   0.04168   0.00000  Uiso   1.00
O85    O     0.52926   0.76038   0.08631   0.00000  Uiso   1.00
O86    O     0.02985   0.92863   0.53743   0.00000  Uiso   1.00
N87    N     0.57636   0.86057   0.92693   0.00000  Uiso   1.00
N88    N     0.58532   0.74455   0.24612   0.00000  Uiso   1.00
N89    N     0.94204   0.86444   0.56755   0.00000  Uiso   1.00
N90    N     0.55776   0.95567   0.87684   0.00000  Uiso   1.00
N91    N     0.56671   0.83965   0.19603   0.00000  Uiso   1.00
N92    N     0.92343   0.95954   0.51747   0.00000  Uiso   1.00
C93    C     0.20289   0.68517   0.41533   0.00000  Uiso   1.00
C94    C     0.16348   0.64932   0.33324   0.00000  Uiso   1.00
C95    C     0.14070   0.67216   0.23632   0.00000  Uiso   1.00
C96    C     0.10557   0.63205   0.17245   0.00000  Uiso   1.00
C97    C     0.04616   0.58563   0.04013   0.00000  Uiso   1.00
C98    C     0.16594   0.68130   0.52087   0.00000  Uiso   1.00
C99    C     0.14524   0.73102   0.58172   0.00000  Uiso   1.00
C100   C     0.11218   0.71783   0.67580   0.00000  Uiso   1.00
C101   C     0.05663   0.72106   0.83482   0.00000  Uiso   1.00
C102   C     0.26425   0.64826   0.43226   0.00000  Uiso   1.00
C103   C     0.32621   0.67020   0.41864   0.00000  Uiso   1.00
C104   C     0.37593   0.62919   0.43814   0.00000  Uiso   1.00
C105   C     0.47301   0.58111   0.45959   0.00000  Uiso   1.00
C106   C     0.18101   0.57333   0.47424   0.00000  Uiso   1.00
C107   C     0.15159   0.58858   0.36524   0.00000  Uiso   1.00
C108   C     0.11649   0.54842   0.30149   0.00000  Uiso   1.00
C109   C     0.09367   0.57119   0.20450   0.00000  Uiso   1.00
C110   C     0.15405   0.62056   0.55287   0.00000  Uiso   1.00
C111   C     0.12102   0.60729   0.64689   0.00000  Uiso   1.00
C112   C     0.10027   0.65697   0.70785   0.00000  Uiso   1.00
C113   C     0.25236   0.58751   0.46426   0.00000  Uiso   1.00
C114   C     0.30200   0.54646   0.48380   0.00000  Uiso   1.00
C115   C     0.36402   0.56833   0.47020   0.00000  Uiso   1.00
H116   H     0.21214   0.73247   0.39043   0.00000  Uiso   1.00
H117   H     0.14991   0.71917   0.21159   0.00000  Uiso   1.00
H118   H     0.15445   0.77803   0.55694   0.00000  Uiso   1.00
H119   H     0.33539   0.71721   0.39388   0.00000  Uiso   1.00
H120   H     0.07565   0.67765   0.02745   0.00000  Uiso   1.00
H121   H     0.08523   0.80175   0.75564   0.00000  Uiso   1.00
H122   H     0.46679   0.67350   0.41180   0.00000  Uiso   1.00
H123   H     0.17175   0.52604   0.49915   0.00000  Uiso   1.00
H124   H     0.10730   0.50141   0.32627   0.00000  Uiso   1.00
H125   H     0.11184   0.56027   0.67162   0.00000  Uiso   1.00
H126   H     0.29278   0.49945   0.50856   0.00000  Uiso   1.00
H127   H     0.04106   0.50091   0.12053   0.00000  Uiso   1.00
H128   H     0.05065   0.62501   0.84873   0.00000  Uiso   1.00
H129   H     0.43221   0.49676   0.50488   0.00000  Uiso   1.00
O130   O     0.01667   0.57681   0.95832   0.00000  Uiso   1.00
O131   O     0.02926   0.73962   0.91369   0.00000  Uiso   1.00
O132   O     0.52985   0.57137   0.46257   0.00000  Uiso   1.00
N133   N     0.07636   0.63943   0.07307   0.00000  Uiso   1.00
N134   N     0.08532   0.75545   0.75388   0.00000  Uiso   1.00
N135   N     0.44204   0.63556   0.43245   0.00000  Uiso   1.00
N136   N     0.05776   0.54433   0.12316   0.00000  Uiso   1.00
N137   N     0.06671   0.66035   0.80397   0.00000  Uiso   1.00
N138   N     0.42343   0.54046   0.48253   0.00000  Uiso   1.00
C139   C     0.29711   0.81483   0.91533   0.00000  Uiso   1.00
C140   C     0.33652   0.85068   0.83324   0.00000  Uiso   1.00
C141   C     0.35930   0.82784   0.73632   0.00000  Uiso   1.00
C142   C     0.39443   0.86795   0.67245   0.00000  Uiso   1.00
C143   C     0.45384   0.91437   0.54013   0.00000  Uiso   1.00
C144   C     0.33406   0.81870   0.02087   0.00000  Uiso   1.00
C145   C     0.35476   0.76898   0.08172   0.00000  Uiso   1.00
C146   C     0.38782   0.78217   0.17580   0.00000  Uiso   1.00
C147   C     0.44337   0.77894   0.33482   0.00000  Uiso   1.00
C148   C     0.23575   0.85174   0.93226   0.00000  Uiso   1.00
C149   C     0.17379   0.82980   0.91864   0.00000  Uiso   1.00
C150   C     0.12407   0.87081   0.93814   0.00000  Uiso   1.00
C151   C     0.02699   0.91889   0.95959   0.00000  Uiso   1.00
C152   C     0.31899   0.92667   0.97424   0.00000  Uiso   1.00
C153   C     0.34841   0.91142   0.86524   0.00000  Uiso   1.00
C154   C     0.38351   0.95158   0.80149   0.00000  Uiso   1.00
C155   C     0.40633   0.92881   0.70450   0.00000  Uiso   1.00
C156   C     0.34595   0.87944   0.05287   0.00000  Uiso   1.00
C157   C     0.37898   0.89271   0.14689   0.00000  Uiso   1.00
C158   C     0.39973   0.84303   0.20785   0.00000  Uiso   1.00
C159   C     0.24764   0.91249   0.96426   0.00000  Uiso   1.00
C160   C     0.19800   0.95354   0.98380   0.00000  Uiso   1.00
C161   C     0.13598   0.93167   0.97020   0.00000  Uiso   1.00
H162   H     0.28786   0.76753   0.89043   0.00000  Uiso   1.00
H163   H     0.35009   0.78083   0.71159   0.00000  Uiso   1.00
H164   H     0.34555   0.72197   0.05694   0.00000  Uiso   1.00
H165   H     0.16461   0.78279   0.89388   0.00000  Uiso   1.00
H166   H     0.42435   0.82235   0.52745   0.00000  Uiso   1.00
H167   H     0.41477   0.69825   0.25564   0.00000  Uiso   1.00
H168   H     0.03321   0.82650   0.91180   0.00000  Uiso   1.00
H169   H     0.32825   0.97396   0.99915   0.00000  Uiso   1.00
H170   H     0.39270   0.99859   0.82627   0.00000  Uiso   1.00
H171   H     0.38816   0.93973   0.17162   0.00000  Uiso   1.00
H172   H     0.20722   0.00055   0.00856   0.00000  Uiso   1.00
H173   H     0.45894   0.99909   0.62053   0.00000  Uiso   1.00
H174   H     0.44935   0.87499   0.34873   0.00000  Uiso   1.00
H175   H     0.06779   0.00324   0.00488   0.00000  Uiso   1.00
O176   O     0.48333   0.92319   0.45832   0.00000  Uiso   1.00
O177   O     0.47074   0.76038   0.41369   0.00000  Uiso   1.00
O178   O     0.97015   0.92863   0.96257   0.00000  Uiso   1.00
N179   N     0.42364   0.86057   0.57307   0.00000  Uiso   1.00
N180   N     0.41468   0.74455   0.25388   0.00000  Uiso   1.00
N181   N     0.05796   0.86444   0.93245   0.00000  Uiso   1.00
N182   N     0.44224   0.95567   0.62316   0.00000  Uiso   1.00
N183   N     0.43329   0.83965   0.30397   0.00000  Uiso   1.00
N184   N     0.07657   0.95954   0.98253   0.00000  Uiso   1.00
C185   C     0.20289   0.31483   0.91533   0.00000  Uiso   1.00
C186   C     0.16348   0.35068   0.83324   0.00000  Uiso   1.00
C187   C     0.14070   0.32784   0.73632   0.00000  Uiso   1.00
C188   C     0.10557   0.36795   0.67245   0.00000  Uiso   1.00
C189   C     0.04616   0.41437   0.54013   0.00000  Uiso   1.00
C190   C     0.16594   0.31870   0.02087   0.00000  Uiso   1.00
C191   C     0.14524   0.26898   0.08172   0.00000  Uiso   1.00
C192   C     0.11218   0.28217   0.17580   0.00000  Uiso   1.00
C193   C     0.05663   0.27894   0.33482   0.00000  Uiso   1.00
C194   C     0.26425   0.35174   0.93226   0.00000  Uiso   1.00
C195   C     0.32621   0.32980   0.91864   0.00000  Uiso   1.00
C196   C     0.37593   0.37081   0.93814   0.00000  Uiso   1.00
C197   C     0.47301   0.41889   0.95959   0.00000  Uiso   1.00
C198   C     0.18101   0.42667   0.97424   0.00000  Uiso   1.00
C199   C     0.15159   0.41142   0.86524   0.00000  Uiso   1.00
C200   C     0.11649   0.45158   0.80149   0.00000  Uiso   1.00
C201   C     0.09367   0.42881   0.70450   0.00000  Uiso   1.00
C202   C     0.15405   0.37944   0.05287   0.00000  Uiso   1.00
C203   C     0.12102   0.39271   0.14689   0.00000  Uiso   1.00
C204   C     0.10027   0.34303   0.20785   0.00000  Uiso   1.00
C205   C     0.25236   0.41249   0.96426   0.00000  Uiso   1.00
C206   C     0.30200   0.45354   0.98380   0.00000  Uiso   1.00
C207   C     0.36402   0.43167   0.97020   0.00000  Uiso   1.00
H208   H     0.21214   0.26753   0.89043   0.00000  Uiso   1.00
H209   H     0.14991   0.28083   0.71159   0.00000  Uiso   1.00
H210   H     0.15445   0.22197   0.05694   0.00000  Uiso   1.00
H211   H     0.33539   0.28279   0.89388   0.00000  Uiso   1.00
H212   H     0.07565   0.32235   0.52745   0.00000  Uiso   1.00
H213   H     0.08523   0.19825   0.25564   0.00000  Uiso   1.00
H214   H     0.46679   0.32650   0.91180   0.00000  Uiso   1.00
H215   H     0.17175   0.47396   0.99915   0.00000  Uiso   1.00
H216   H     0.10730   0.49859   0.82627   0.00000  Uiso   1.00
H217   H     0.11184   0.43973   0.17162   0.00000  Uiso   1.00
H218   H     0.29278   0.50055   0.00856   0.00000  Uiso   1.00
H219   H     0.04106   0.49909   0.62053   0.00000  Uiso   1.00
H220   H     0.05065   0.37499   0.34873   0.00000  Uiso   1.00
H221   H     0.43221   0.50324   0.00488   0.00000  Uiso   1.00
O222   O     0.01667   0.42319   0.45832   0.00000  Uiso   1.00
O223   O     0.02926   0.26038   0.41369   0.00000  Uiso   1.00
O224   O     0.52985   0.42863   0.96257   0.00000  Uiso   1.00
N225   N     0.07636   0.36057   0.57307   0.00000  Uiso   1.00
N226   N     0.08532   0.24455   0.25388   0.00000  Uiso   1.00
N227   N     0.44204   0.36444   0.93245   0.00000  Uiso   1.00
N228   N     0.05776   0.45567   0.62316   0.00000  Uiso   1.00
N229   N     0.06671   0.33965   0.30397   0.00000  Uiso   1.00
N230   N     0.42343   0.45954   0.98253   0.00000  Uiso   1.00
C231   C     0.29711   0.18517   0.41533   0.00000  Uiso   1.00
C232   C     0.33652   0.14932   0.33324   0.00000  Uiso   1.00
C233   C     0.35930   0.17216   0.23632   0.00000  Uiso   1.00
C234   C     0.39443   0.13205   0.17245   0.00000  Uiso   1.00
C235   C     0.45384   0.08563   0.04013   0.00000  Uiso   1.00
C236   C     0.33406   0.18130   0.52087   0.00000  Uiso   1.00
C237   C     0.35476   0.23102   0.58172   0.00000  Uiso   1.00
C238   C     0.38782   0.21783   0.67580   0.00000  Uiso   1.00
C239   C     0.44337   0.22106   0.83482   0.00000  Uiso   1.00
C240   C     0.23575   0.14826   0.43226   0.00000  Uiso   1.00
C241   C     0.17379   0.17020   0.41864   0.00000  Uiso   1.00
C242   C     0.12407   0.12919   0.43814   0.00000  Uiso   1.00
C243   C     0.02699   0.08111   0.45959   0.00000  Uiso   1.00
C244   C     0.31899   0.07333   0.47424   0.00000  Uiso   1.00
C245   C     0.34841   0.08858   0.36524   0.00000  Uiso   1.00
C246   C     0.38351   0.04842   0.30149   0.00000  Uiso   1.00
C247   C     0.40633   0.07119   0.20450   0.00000  Uiso   1.00
C248   C     0.34595   0.12056   0.55287   0.00000  Uiso   1.00
C249   C     0.37898   0.10729   0.64689   0.00000  Uiso   1.00
C250   C     0.39973   0.15697   0.70785   0.00000  Uiso   1.00
C251   C     0.24764   0.08751   0.46426   0.00000  Uiso   1.00
C252   C     0.19800   0.04646   0.48380   0.00000  Uiso   1.00
C253   C     0.13598   0.06833   0.47020   0.00000  Uiso   1.00
H254   H     0.28786   0.23247   0.39043   0.00000  Uiso   1.00
H255   H     0.35009   0.21917   0.21159   0.00000  Uiso   1.00
H256   H     0.34555   0.27803   0.55694   0.00000  Uiso   1.00
H257   H     0.16461   0.21721   0.39388   0.00000  Uiso   1.00
H258   H     0.42435   0.17765   0.02745   0.00000  Uiso   1.00
H259   H     0.41477   0.30175   0.75564   0.00000  Uiso   1.00
H260   H     0.03321   0.17350   0.41180   0.00000  Uiso   1.00
H261   H     0.32825   0.02604   0.49915   0.00000  Uiso   1.00
H262   H     0.39270   0.00141   0.32627   0.00000  Uiso   1.00
H263   H     0.38816   0.06027   0.67162   0.00000  Uiso   1.00
H264   H     0.20722   0.99945   0.50856   0.00000  Uiso   1.00
H265   H     0.45894   0.00091   0.12053   0.00000  Uiso   1.00
H266   H     0.44935   0.12501   0.84873   0.00000  Uiso   1.00
H267   H     0.06779   0.99676   0.50488   0.00000  Uiso   1.00
O268   O     0.48333   0.07681   0.95832   0.00000  Uiso   1.00
O269   O     0.47074   0.23962   0.91369   0.00000  Uiso   1.00
O270   O     0.97015   0.07137   0.46257   0.00000  Uiso   1.00
N271   N     0.42364   0.13943   0.07307   0.00000  Uiso   1.00
N272   N     0.41468   0.25545   0.75388   0.00000  Uiso   1.00
N273   N     0.05796   0.13556   0.43245   0.00000  Uiso   1.00
N274   N     0.44224   0.04433   0.12316   0.00000  Uiso   1.00
N275   N     0.43329   0.16035   0.80397   0.00000  Uiso   1.00
N276   N     0.07657   0.04046   0.48253   0.00000  Uiso   1.00
C277   C     0.79711   0.31483   0.58467   0.00000  Uiso   1.00
C278   C     0.83652   0.35068   0.66676   0.00000  Uiso   1.00
C279   C     0.85930   0.32784   0.76368   0.00000  Uiso   1.00
C280   C     0.89443   0.36795   0.82755   0.00000  Uiso   1.00
C281   C     0.95384   0.41437   0.95987   0.00000  Uiso   1.00
C282   C     0.83406   0.31870   0.47913   0.00000  Uiso   1.00
C283   C     0.85476   0.26898   0.41828   0.00000  Uiso   1.00
C284   C     0.88782   0.28217   0.32420   0.00000  Uiso   1.00
C285   C     0.94337   0.27894   0.16518   0.00000  Uiso   1.00
C286   C     0.73575   0.35174   0.56774   0.00000  Uiso   1.00
C287   C     0.67379   0.32980   0.58136   0.00000  Uiso   1.00
C288   C     0.62407   0.37081   0.56186   0.00000  Uiso   1.00
C289   C     0.52699   0.41889   0.54041   0.00000  Uiso   1.00
C290   C     0.81899   0.42667   0.52576   0.00000  Uiso   1.00
C291   C     0.84841   0.41142   0.63476   0.00000  Uiso   1.00
C292   C     0.88351   0.45158   0.69851   0.00000  Uiso   1.00
C293   C     0.90633   0.42881   0.79550   0.00000  Uiso   1.00
C294   C     0.84595   0.37944   0.44713   0.00000  Uiso   1.00
C295   C     0.87898   0.39271   0.35311   0.00000  Uiso   1.00
C296   C     0.89973   0.34303   0.29215   0.00000  Uiso   1.00
C297   C     0.74764   0.41249   0.53574   0.00000  Uiso   1.00
C298   C     0.69800   0.45354   0.51620   0.00000  Uiso   1.00
C299   C     0.63598   0.43167   0.52980   0.00000  Uiso   1.00
H300   H     0.78786   0.26753   0.60957   0.00000  Uiso   1.00
H301   H     0.85009   0.28083   0.78841   0.00000  Uiso   1.00
H302   H     0.84555   0.22197   0.44306   0.00000  Uiso   1.00
H303   H     0.66461   0.28279   0.60612   0.00000  Uiso   1.00
H304   H     0.92435   0.32235   0.97255   0.00000  Uiso   1.00
H305   H     0.91477   0.19825   0.24436   0.00000  Uiso   1.00
H306   H     0.53321   0.32650   0.58820   0.00000  Uiso   1.00
H307   H     0.82825   0.47396   0.50085   0.00000  Uiso   1.00
H308   H     0.89270   0.49859   0.67373   0.00000  Uiso   1.00
H309   H     0.88816   0.43973   0.32838   0.00000  Uiso   1.00
H310   H     0.70722   0.50055   0.49144   0.00000  Uiso   1.00
H311   H     0.95894   0.49909   0.87947   0.00000  Uiso   1.00
H312   H     0.94935   0.37499   0.15127   0.00000  Uiso   1.00
H313   H     0.56779   0.50324   0.49512   0.00000  Uiso   1.00
O314   O     0.98333   0.42319   0.04168   0.00000  Uiso   1.00
O315   O     0.97074   0.26038   0.08631   0.00000  Uiso   1.00
O316   O     0.47015   0.42863   0.53743   0.00000  Uiso   1.00
N317   N     0.92364   0.36057   0.92693   0.00000  Uiso   1.00
N318   N     0.91468   0.24455   0.24612   0.00000  Uiso   1.00
N319   N     0.55796   0.36444   0.56755   0.00000  Uiso   1.00
N320   N     0.94224   0.45567   0.87684   0.00000  Uiso   1.00
N321   N     0.93329   0.33965   0.19603   0.00000  Uiso   1.00
N322   N     0.57657   0.45954   0.51747   0.00000  Uiso   1.00
C323   C     0.70289   0.18517   0.08467   0.00000  Uiso   1.00
C324   C     0.66348   0.14932   0.16676   0.00000  Uiso   1.00
C325   C     0.64070   0.17216   0.26368   0.00000  Uiso   1.00
C326   C     0.60557   0.13205   0.32755   0.00000  Uiso   1.00
C327   C     0.54616   0.08563   0.45987   0.00000  Uiso   1.00
C328   C     0.66594   0.18130   0.97913   0.00000  Uiso   1.00
C329   C     0.64524   0.23102   0.91828   0.00000  Uiso   1.00
C330   C     0.61218   0.21783   0.82420   0.00000  Uiso   1.00
C331   C     0.55663   0.22106   0.66518   0.00000  Uiso   1.00
C332   C     0.76425   0.14826   0.06774   0.00000  Uiso   1.00
C333   C     0.82621   0.17020   0.08136   0.00000  Uiso   1.00
C334   C     0.87593   0.12919   0.06186   0.00000  Uiso   1.00
C335   C     0.97301   0.08111   0.04041   0.00000  Uiso   1.00
C336   C     0.68101   0.07333   0.02576   0.00000  Uiso   1.00
C337   C     0.65159   0.08858   0.13476   0.00000  Uiso   1.00
C338   C     0.61649   0.04842   0.19851   0.00000  Uiso   1.00
C339   C     0.59367   0.07119   0.29550   0.00000  Uiso   1.00
C340   C     0.65405   0.12056   0.94713   0.00000  Uiso   1.00
C341   C     0.62102   0.10729   0.85311   0.00000  Uiso   1.00
C342   C     0.60027   0.15697   0.79215   0.00000  Uiso   1.00
C343   C     0.75236   0.08751   0.03574   0.00000  Uiso   1.00
C344   C     0.80200   0.04646   0.01620   0.00000  Uiso   1.00
C345   C     0.86402   0.06833   0.02980   0.00000  Uiso   1.00
H346   H     0.71214   0.23247   0.10957   0.00000  Uiso   1.00
H347   H     0.64991   0.21917   0.28841   0.00000  Uiso   1.00
H348   H     0.65445   0.27803   0.94306   0.00000  Uiso   1.00
H349   H     0.83539   0.21721   0.10612   0.00000  Uiso   1.00
H350   H     0.57565   0.17765   0.47255   0.00000  Uiso   1.00
H351   H     0.58523   0.30175   0.74436   0.00000  Uiso   1.00
H352   H     0.96679   0.17350   0.08820   0.00000  Uiso   1.00
H353   H     0.67175   0.02604   0.00085   0.00000  Uiso   1.00
H354   H     0.60730   0.00141   0.17373   0.00000  Uiso   1.00
H355   H     0.61184   0.06027   0.82838   0.00000  Uiso   1.00
H356   H     0.79278   0.99945   0.99144   0.00000  Uiso   1.00
H357   H     0.54106   0.00091   0.37947   0.00000  Uiso   1.00
H358   H     0.55065   0.12501   0.65127   0.00000  Uiso   1.00
H359   H     0.93221   0.99676   0.99512   0.00000  Uiso   1.00
O360   O     0.51667   0.07681   0.54168   0.00000  Uiso   1.00
O361   O     0.52926   0.23962   0.58631   0.00000  Uiso   1.00
O362   O     0.02985   0.07137   0.03743   0.00000  Uiso   1.00
N363   N     0.57636   0.13943   0.42693   0.00000  Uiso   1.00
N364   N     0.58532   0.25545   0.74612   0.00000  Uiso   1.00
N365   N     0.94204   0.13556   0.06755   0.00000  Uiso   1.00
N366   N     0.55776   0.04433   0.37684   0.00000  Uiso   1.00
N367   N     0.56671   0.16035   0.69603   0.00000  Uiso   1.00
N368   N     0.92343   0.04046   0.01747   0.00000  Uiso   1.00
