data_job_03742
_audit_creation_date              2018-12-19
_audit_creation_method            'Materials Studio'
_symmetry_space_group_name_H-M    'P1'
_symmetry_Int_Tables_number       1
_symmetry_cell_setting            triclinic
loop_
_symmetry_equiv_pos_as_xyz
  x,y,z
_cell_length_a                    18.4573
_cell_length_b                    18.4573
_cell_length_c                    15.7620
_cell_angle_alpha                 90.0000
_cell_angle_beta                  90.0000
_cell_angle_gamma                 90.0000
loop_
_atom_site_label
_atom_site_type_symbol
_atom_site_fract_x
_atom_site_fract_y
_atom_site_fract_z
_atom_site_U_iso_or_equiv
_atom_site_adp_type
_atom_site_occupancy
C1     C     0.35087   0.63498   0.47816   0.00000  Uiso   1.00
C2     C     0.37253   0.66055   0.38972   0.00000  Uiso   1.00
C3     C     0.41292   0.62123   0.33145   0.00000  Uiso   1.00
C4     C     0.42700   0.65416   0.25399   0.00000  Uiso   1.00
C5     C     0.46453   0.68325   0.11949   0.00000  Uiso   1.00
C6     C     0.37952   0.69200   0.53961   0.00000  Uiso   1.00
C7     C     0.42579   0.67913   0.60737   0.00000  Uiso   1.00
C8     C     0.44575   0.73854   0.65609   0.00000  Uiso   1.00
C9     C     0.49409   0.81646   0.75433   0.00000  Uiso   1.00
C10    C     0.26849   0.64039   0.48188   0.00000  Uiso   1.00
C11    C     0.22140   0.58412   0.50113   0.00000  Uiso   1.00
C12    C     0.14788   0.60008   0.50127   0.00000  Uiso   1.00
C13    C     0.02384   0.59786   0.50988   0.00000  Uiso   1.00
C14    C     0.30406   0.76337   0.44421   0.00000  Uiso   1.00
C15    C     0.34711   0.73028   0.37129   0.00000  Uiso   1.00
C16    C     0.36113   0.76327   0.29389   0.00000  Uiso   1.00
C17    C     0.40153   0.72401   0.23551   0.00000  Uiso   1.00
C18    C     0.35410   0.76173   0.52117   0.00000  Uiso   1.00
C19    C     0.37400   0.82117   0.56981   0.00000  Uiso   1.00
C20    C     0.42028   0.80840   0.63762   0.00000  Uiso   1.00
C21    C     0.24307   0.71012   0.46344   0.00000  Uiso   1.00
C22    C     0.16961   0.72617   0.46356   0.00000  Uiso   1.00
C23    C     0.12241   0.66994   0.48280   0.00000  Uiso   1.00
H24    H     0.37067   0.58070   0.49252   0.00000  Uiso   1.00
H25    H     0.43259   0.56727   0.34574   0.00000  Uiso   1.00
H26    H     0.44545   0.62516   0.62163   0.00000  Uiso   1.00
H27    H     0.24109   0.53017   0.51539   0.00000  Uiso   1.00
H28    H     0.49005   0.58315   0.17490   0.00000  Uiso   1.00
H29    H     0.51714   0.70521   0.75663   0.00000  Uiso   1.00
H30    H     0.08622   0.50490   0.53262   0.00000  Uiso   1.00
H31    H     0.28427   0.81766   0.42986   0.00000  Uiso   1.00
H32    H     0.34145   0.81724   0.27964   0.00000  Uiso   1.00
H33    H     0.35431   0.87513   0.55552   0.00000  Uiso   1.00
H34    H     0.14996   0.78013   0.44929   0.00000  Uiso   1.00
H35    H     0.41608   0.78603   0.12125   0.00000  Uiso   1.00
H36    H     0.44317   0.90809   0.70298   0.00000  Uiso   1.00
H37    H     0.01225   0.70778   0.47897   0.00000  Uiso   1.00
O38    O     0.49226   0.68004   0.05040   0.00000  Uiso   1.00
O39    O     0.52779   0.84018   0.81361   0.00000  Uiso   1.00
O40    O     0.96244   0.57738   0.51971   0.00000  Uiso   1.00
N41    N     0.46478   0.63095   0.18288   0.00000  Uiso   1.00
N42    N     0.49012   0.74507   0.72675   0.00000  Uiso   1.00
N43    N     0.08725   0.55780   0.51735   0.00000  Uiso   1.00
N44    N     0.42498   0.74012   0.15401   0.00000  Uiso   1.00
N45    N     0.45032   0.85424   0.69788   0.00000  Uiso   1.00
N46    N     0.04744   0.66697   0.48848   0.00000  Uiso   1.00
C47    C     0.85087   0.13498   0.97816   0.00000  Uiso   1.00
C48    C     0.87253   0.16055   0.88972   0.00000  Uiso   1.00
C49    C     0.91292   0.12123   0.83145   0.00000  Uiso   1.00
C50    C     0.92700   0.15416   0.75399   0.00000  Uiso   1.00
C51    C     0.96453   0.18325   0.61949   0.00000  Uiso   1.00
C52    C     0.87952   0.19200   0.03961   0.00000  Uiso   1.00
C53    C     0.92579   0.17913   0.10737   0.00000  Uiso   1.00
C54    C     0.94575   0.23854   0.15609   0.00000  Uiso   1.00
C55    C     0.99409   0.31646   0.25433   0.00000  Uiso   1.00
C56    C     0.76849   0.14039   0.98188   0.00000  Uiso   1.00
C57    C     0.72140   0.08412   0.00113   0.00000  Uiso   1.00
C58    C     0.64788   0.10008   0.00127   0.00000  Uiso   1.00
C59    C     0.52384   0.09786   0.00988   0.00000  Uiso   1.00
C60    C     0.80406   0.26337   0.94421   0.00000  Uiso   1.00
C61    C     0.84711   0.23028   0.87129   0.00000  Uiso   1.00
C62    C     0.86113   0.26327   0.79389   0.00000  Uiso   1.00
C63    C     0.90153   0.22401   0.73551   0.00000  Uiso   1.00
C64    C     0.85410   0.26173   0.02117   0.00000  Uiso   1.00
C65    C     0.87400   0.32117   0.06981   0.00000  Uiso   1.00
C66    C     0.92028   0.30840   0.13762   0.00000  Uiso   1.00
C67    C     0.74307   0.21012   0.96344   0.00000  Uiso   1.00
C68    C     0.66961   0.22617   0.96356   0.00000  Uiso   1.00
C69    C     0.62241   0.16994   0.98280   0.00000  Uiso   1.00
H70    H     0.87067   0.08070   0.99252   0.00000  Uiso   1.00
H71    H     0.93259   0.06727   0.84574   0.00000  Uiso   1.00
H72    H     0.94545   0.12516   0.12163   0.00000  Uiso   1.00
H73    H     0.74109   0.03017   0.01539   0.00000  Uiso   1.00
H74    H     0.99005   0.08315   0.67490   0.00000  Uiso   1.00
H75    H     0.01714   0.20521   0.25663   0.00000  Uiso   1.00
H76    H     0.58622   0.00490   0.03262   0.00000  Uiso   1.00
H77    H     0.78427   0.31766   0.92986   0.00000  Uiso   1.00
H78    H     0.84145   0.31724   0.77964   0.00000  Uiso   1.00
H79    H     0.85431   0.37513   0.05552   0.00000  Uiso   1.00
H80    H     0.64996   0.28013   0.94929   0.00000  Uiso   1.00
H81    H     0.91608   0.28603   0.62125   0.00000  Uiso   1.00
H82    H     0.94317   0.40809   0.20298   0.00000  Uiso   1.00
H83    H     0.51225   0.20778   0.97897   0.00000  Uiso   1.00
O84    O     0.99226   0.18004   0.55040   0.00000  Uiso   1.00
O85    O     0.02779   0.34018   0.31361   0.00000  Uiso   1.00
O86    O     0.46244   0.07738   0.01971   0.00000  Uiso   1.00
N87    N     0.96478   0.13095   0.68288   0.00000  Uiso   1.00
N88    N     0.99012   0.24507   0.22675   0.00000  Uiso   1.00
N89    N     0.58725   0.05780   0.01735   0.00000  Uiso   1.00
N90    N     0.92498   0.24012   0.65401   0.00000  Uiso   1.00
N91    N     0.95032   0.35424   0.19788   0.00000  Uiso   1.00
N92    N     0.54744   0.16697   0.98848   0.00000  Uiso   1.00
C93    C     0.64913   0.36502   0.47816   0.00000  Uiso   1.00
C94    C     0.62747   0.33945   0.38972   0.00000  Uiso   1.00
C95    C     0.58708   0.37877   0.33145   0.00000  Uiso   1.00
C96    C     0.57300   0.34584   0.25399   0.00000  Uiso   1.00
C97    C     0.53547   0.31675   0.11949   0.00000  Uiso   1.00
C98    C     0.62048   0.30800   0.53961   0.00000  Uiso   1.00
C99    C     0.57421   0.32087   0.60737   0.00000  Uiso   1.00
C100   C     0.55425   0.26146   0.65609   0.00000  Uiso   1.00
C101   C     0.50591   0.18354   0.75433   0.00000  Uiso   1.00
C102   C     0.73151   0.35961   0.48188   0.00000  Uiso   1.00
C103   C     0.77860   0.41588   0.50113   0.00000  Uiso   1.00
C104   C     0.85212   0.39992   0.50127   0.00000  Uiso   1.00
C105   C     0.97616   0.40214   0.50988   0.00000  Uiso   1.00
C106   C     0.69594   0.23663   0.44421   0.00000  Uiso   1.00
C107   C     0.65289   0.26972   0.37129   0.00000  Uiso   1.00
C108   C     0.63887   0.23673   0.29389   0.00000  Uiso   1.00
C109   C     0.59847   0.27599   0.23551   0.00000  Uiso   1.00
C110   C     0.64590   0.23827   0.52117   0.00000  Uiso   1.00
C111   C     0.62600   0.17883   0.56981   0.00000  Uiso   1.00
C112   C     0.57972   0.19160   0.63762   0.00000  Uiso   1.00
C113   C     0.75693   0.28988   0.46344   0.00000  Uiso   1.00
C114   C     0.83039   0.27383   0.46356   0.00000  Uiso   1.00
C115   C     0.87759   0.33006   0.48280   0.00000  Uiso   1.00
H116   H     0.62933   0.41930   0.49252   0.00000  Uiso   1.00
H117   H     0.56741   0.43273   0.34574   0.00000  Uiso   1.00
H118   H     0.55455   0.37484   0.62163   0.00000  Uiso   1.00
H119   H     0.75891   0.46983   0.51539   0.00000  Uiso   1.00
H120   H     0.50995   0.41685   0.17490   0.00000  Uiso   1.00
H121   H     0.48286   0.29479   0.75663   0.00000  Uiso   1.00
H122   H     0.91378   0.49510   0.53262   0.00000  Uiso   1.00
H123   H     0.71573   0.18234   0.42986   0.00000  Uiso   1.00
H124   H     0.65855   0.18276   0.27964   0.00000  Uiso   1.00
H125   H     0.64569   0.12487   0.55552   0.00000  Uiso   1.00
H126   H     0.85004   0.21987   0.44929   0.00000  Uiso   1.00
H127   H     0.58392   0.21397   0.12125   0.00000  Uiso   1.00
H128   H     0.55683   0.09191   0.70298   0.00000  Uiso   1.00
H129   H     0.98775   0.29222   0.47897   0.00000  Uiso   1.00
O130   O     0.50774   0.31996   0.05040   0.00000  Uiso   1.00
O131   O     0.47221   0.15982   0.81361   0.00000  Uiso   1.00
O132   O     0.03756   0.42262   0.51971   0.00000  Uiso   1.00
N133   N     0.53522   0.36905   0.18288   0.00000  Uiso   1.00
N134   N     0.50988   0.25493   0.72675   0.00000  Uiso   1.00
N135   N     0.91275   0.44220   0.51735   0.00000  Uiso   1.00
N136   N     0.57502   0.25988   0.15401   0.00000  Uiso   1.00
N137   N     0.54968   0.14576   0.69788   0.00000  Uiso   1.00
N138   N     0.95256   0.33303   0.48848   0.00000  Uiso   1.00
C139   C     0.14913   0.86502   0.97816   0.00000  Uiso   1.00
C140   C     0.12747   0.83945   0.88972   0.00000  Uiso   1.00
C141   C     0.08708   0.87877   0.83145   0.00000  Uiso   1.00
C142   C     0.07300   0.84584   0.75399   0.00000  Uiso   1.00
C143   C     0.03547   0.81675   0.61949   0.00000  Uiso   1.00
C144   C     0.12048   0.80800   0.03961   0.00000  Uiso   1.00
C145   C     0.07421   0.82087   0.10737   0.00000  Uiso   1.00
C146   C     0.05425   0.76146   0.15609   0.00000  Uiso   1.00
C147   C     0.00591   0.68354   0.25433   0.00000  Uiso   1.00
C148   C     0.23151   0.85961   0.98188   0.00000  Uiso   1.00
C149   C     0.27860   0.91588   0.00113   0.00000  Uiso   1.00
C150   C     0.35212   0.89992   0.00127   0.00000  Uiso   1.00
C151   C     0.47616   0.90214   0.00988   0.00000  Uiso   1.00
C152   C     0.19594   0.73663   0.94421   0.00000  Uiso   1.00
C153   C     0.15289   0.76972   0.87129   0.00000  Uiso   1.00
C154   C     0.13887   0.73673   0.79389   0.00000  Uiso   1.00
C155   C     0.09847   0.77599   0.73551   0.00000  Uiso   1.00
C156   C     0.14590   0.73827   0.02117   0.00000  Uiso   1.00
C157   C     0.12600   0.67883   0.06981   0.00000  Uiso   1.00
C158   C     0.07972   0.69160   0.13762   0.00000  Uiso   1.00
C159   C     0.25693   0.78988   0.96344   0.00000  Uiso   1.00
C160   C     0.33039   0.77383   0.96356   0.00000  Uiso   1.00
C161   C     0.37759   0.83006   0.98280   0.00000  Uiso   1.00
H162   H     0.12933   0.91930   0.99252   0.00000  Uiso   1.00
H163   H     0.06741   0.93273   0.84574   0.00000  Uiso   1.00
H164   H     0.05455   0.87484   0.12163   0.00000  Uiso   1.00
H165   H     0.25891   0.96983   0.01539   0.00000  Uiso   1.00
H166   H     0.00995   0.91685   0.67490   0.00000  Uiso   1.00
H167   H     0.98286   0.79479   0.25663   0.00000  Uiso   1.00
H168   H     0.41378   0.99510   0.03262   0.00000  Uiso   1.00
H169   H     0.21573   0.68234   0.92986   0.00000  Uiso   1.00
H170   H     0.15855   0.68276   0.77964   0.00000  Uiso   1.00
H171   H     0.14569   0.62487   0.05552   0.00000  Uiso   1.00
H172   H     0.35004   0.71987   0.94929   0.00000  Uiso   1.00
H173   H     0.08392   0.71397   0.62125   0.00000  Uiso   1.00
H174   H     0.05683   0.59191   0.20298   0.00000  Uiso   1.00
H175   H     0.48775   0.79222   0.97897   0.00000  Uiso   1.00
O176   O     0.00774   0.81996   0.55040   0.00000  Uiso   1.00
O177   O     0.97221   0.65982   0.31361   0.00000  Uiso   1.00
O178   O     0.53756   0.92262   0.01971   0.00000  Uiso   1.00
N179   N     0.03522   0.86905   0.68288   0.00000  Uiso   1.00
N180   N     0.00988   0.75493   0.22675   0.00000  Uiso   1.00
N181   N     0.41275   0.94220   0.01735   0.00000  Uiso   1.00
N182   N     0.07502   0.75988   0.65401   0.00000  Uiso   1.00
N183   N     0.04968   0.64576   0.19788   0.00000  Uiso   1.00
N184   N     0.45256   0.83303   0.98848   0.00000  Uiso   1.00
C185   C     0.63498   0.64913   0.52184   0.00000  Uiso   1.00
C186   C     0.66055   0.62747   0.61028   0.00000  Uiso   1.00
C187   C     0.62123   0.58708   0.66855   0.00000  Uiso   1.00
C188   C     0.65416   0.57300   0.74601   0.00000  Uiso   1.00
C189   C     0.68325   0.53547   0.88051   0.00000  Uiso   1.00
C190   C     0.69200   0.62048   0.46039   0.00000  Uiso   1.00
C191   C     0.67913   0.57421   0.39263   0.00000  Uiso   1.00
C192   C     0.73854   0.55425   0.34391   0.00000  Uiso   1.00
C193   C     0.81646   0.50591   0.24567   0.00000  Uiso   1.00
C194   C     0.64039   0.73151   0.51812   0.00000  Uiso   1.00
C195   C     0.58412   0.77860   0.49887   0.00000  Uiso   1.00
C196   C     0.60008   0.85212   0.49873   0.00000  Uiso   1.00
C197   C     0.59786   0.97616   0.49012   0.00000  Uiso   1.00
C198   C     0.76337   0.69594   0.55579   0.00000  Uiso   1.00
C199   C     0.73028   0.65289   0.62871   0.00000  Uiso   1.00
C200   C     0.76327   0.63887   0.70611   0.00000  Uiso   1.00
C201   C     0.72401   0.59847   0.76449   0.00000  Uiso   1.00
C202   C     0.76173   0.64590   0.47883   0.00000  Uiso   1.00
C203   C     0.82117   0.62600   0.43019   0.00000  Uiso   1.00
C204   C     0.80840   0.57972   0.36238   0.00000  Uiso   1.00
C205   C     0.71012   0.75693   0.53656   0.00000  Uiso   1.00
C206   C     0.72617   0.83039   0.53644   0.00000  Uiso   1.00
C207   C     0.66994   0.87759   0.51720   0.00000  Uiso   1.00
H208   H     0.58070   0.62933   0.50748   0.00000  Uiso   1.00
H209   H     0.56727   0.56741   0.65426   0.00000  Uiso   1.00
H210   H     0.62516   0.55455   0.37837   0.00000  Uiso   1.00
H211   H     0.53017   0.75891   0.48461   0.00000  Uiso   1.00
H212   H     0.58315   0.50995   0.82510   0.00000  Uiso   1.00
H213   H     0.70521   0.48286   0.24337   0.00000  Uiso   1.00
H214   H     0.50490   0.91378   0.46738   0.00000  Uiso   1.00
H215   H     0.81766   0.71573   0.57014   0.00000  Uiso   1.00
H216   H     0.81724   0.65855   0.72036   0.00000  Uiso   1.00
H217   H     0.87513   0.64569   0.44448   0.00000  Uiso   1.00
H218   H     0.78013   0.85004   0.55071   0.00000  Uiso   1.00
H219   H     0.78603   0.58392   0.87875   0.00000  Uiso   1.00
H220   H     0.90809   0.55683   0.29702   0.00000  Uiso   1.00
H221   H     0.70778   0.98775   0.52103   0.00000  Uiso   1.00
O222   O     0.68004   0.50774   0.94960   0.00000  Uiso   1.00
O223   O     0.84018   0.47221   0.18639   0.00000  Uiso   1.00
O224   O     0.57738   0.03756   0.48029   0.00000  Uiso   1.00
N225   N     0.63095   0.53522   0.81712   0.00000  Uiso   1.00
N226   N     0.74507   0.50988   0.27325   0.00000  Uiso   1.00
N227   N     0.55780   0.91275   0.48265   0.00000  Uiso   1.00
N228   N     0.74012   0.57502   0.84599   0.00000  Uiso   1.00
N229   N     0.85424   0.54968   0.30212   0.00000  Uiso   1.00
N230   N     0.66697   0.95256   0.51152   0.00000  Uiso   1.00
C231   C     0.13498   0.14913   0.02184   0.00000  Uiso   1.00
C232   C     0.16055   0.12747   0.11028   0.00000  Uiso   1.00
C233   C     0.12123   0.08708   0.16855   0.00000  Uiso   1.00
C234   C     0.15416   0.07300   0.24601   0.00000  Uiso   1.00
C235   C     0.18325   0.03547   0.38051   0.00000  Uiso   1.00
C236   C     0.19200   0.12048   0.96039   0.00000  Uiso   1.00
C237   C     0.17913   0.07421   0.89263   0.00000  Uiso   1.00
C238   C     0.23854   0.05425   0.84391   0.00000  Uiso   1.00
C239   C     0.31646   0.00591   0.74567   0.00000  Uiso   1.00
C240   C     0.14039   0.23151   0.01812   0.00000  Uiso   1.00
C241   C     0.08412   0.27860   0.99887   0.00000  Uiso   1.00
C242   C     0.10008   0.35212   0.99873   0.00000  Uiso   1.00
C243   C     0.09786   0.47616   0.99012   0.00000  Uiso   1.00
C244   C     0.26337   0.19594   0.05579   0.00000  Uiso   1.00
C245   C     0.23028   0.15289   0.12871   0.00000  Uiso   1.00
C246   C     0.26327   0.13887   0.20611   0.00000  Uiso   1.00
C247   C     0.22401   0.09847   0.26449   0.00000  Uiso   1.00
C248   C     0.26173   0.14590   0.97883   0.00000  Uiso   1.00
C249   C     0.32117   0.12600   0.93019   0.00000  Uiso   1.00
C250   C     0.30840   0.07972   0.86238   0.00000  Uiso   1.00
C251   C     0.21012   0.25693   0.03656   0.00000  Uiso   1.00
C252   C     0.22617   0.33039   0.03644   0.00000  Uiso   1.00
C253   C     0.16994   0.37759   0.01720   0.00000  Uiso   1.00
H254   H     0.08070   0.12933   0.00748   0.00000  Uiso   1.00
H255   H     0.06727   0.06741   0.15426   0.00000  Uiso   1.00
H256   H     0.12516   0.05455   0.87837   0.00000  Uiso   1.00
H257   H     0.03017   0.25891   0.98461   0.00000  Uiso   1.00
H258   H     0.08315   0.00995   0.32510   0.00000  Uiso   1.00
H259   H     0.20521   0.98286   0.74337   0.00000  Uiso   1.00
H260   H     0.00490   0.41378   0.96738   0.00000  Uiso   1.00
H261   H     0.31766   0.21573   0.07014   0.00000  Uiso   1.00
H262   H     0.31724   0.15855   0.22036   0.00000  Uiso   1.00
H263   H     0.37513   0.14569   0.94448   0.00000  Uiso   1.00
H264   H     0.28013   0.35004   0.05071   0.00000  Uiso   1.00
H265   H     0.28603   0.08392   0.37875   0.00000  Uiso   1.00
H266   H     0.40809   0.05683   0.79702   0.00000  Uiso   1.00
H267   H     0.20778   0.48775   0.02103   0.00000  Uiso   1.00
O268   O     0.18004   0.00774   0.44960   0.00000  Uiso   1.00
O269   O     0.34018   0.97221   0.68639   0.00000  Uiso   1.00
O270   O     0.07738   0.53756   0.98029   0.00000  Uiso   1.00
N271   N     0.13095   0.03522   0.31712   0.00000  Uiso   1.00
N272   N     0.24507   0.00988   0.77325   0.00000  Uiso   1.00
N273   N     0.05780   0.41275   0.98265   0.00000  Uiso   1.00
N274   N     0.24012   0.07502   0.34599   0.00000  Uiso   1.00
N275   N     0.35424   0.04968   0.80212   0.00000  Uiso   1.00
N276   N     0.16697   0.45256   0.01152   0.00000  Uiso   1.00
C277   C     0.36502   0.35087   0.52184   0.00000  Uiso   1.00
C278   C     0.33945   0.37253   0.61028   0.00000  Uiso   1.00
C279   C     0.37877   0.41292   0.66855   0.00000  Uiso   1.00
C280   C     0.34584   0.42700   0.74601   0.00000  Uiso   1.00
C281   C     0.31675   0.46453   0.88051   0.00000  Uiso   1.00
C282   C     0.30800   0.37952   0.46039   0.00000  Uiso   1.00
C283   C     0.32087   0.42579   0.39263   0.00000  Uiso   1.00
C284   C     0.26146   0.44575   0.34391   0.00000  Uiso   1.00
C285   C     0.18354   0.49409   0.24567   0.00000  Uiso   1.00
C286   C     0.35961   0.26849   0.51812   0.00000  Uiso   1.00
C287   C     0.41588   0.22140   0.49887   0.00000  Uiso   1.00
C288   C     0.39992   0.14788   0.49873   0.00000  Uiso   1.00
C289   C     0.40214   0.02384   0.49012   0.00000  Uiso   1.00
C290   C     0.23663   0.30406   0.55579   0.00000  Uiso   1.00
C291   C     0.26972   0.34711   0.62871   0.00000  Uiso   1.00
C292   C     0.23673   0.36113   0.70611   0.00000  Uiso   1.00
C293   C     0.27599   0.40153   0.76449   0.00000  Uiso   1.00
C294   C     0.23827   0.35410   0.47883   0.00000  Uiso   1.00
C295   C     0.17883   0.37400   0.43019   0.00000  Uiso   1.00
C296   C     0.19160   0.42028   0.36238   0.00000  Uiso   1.00
C297   C     0.28988   0.24307   0.53656   0.00000  Uiso   1.00
C298   C     0.27383   0.16961   0.53644   0.00000  Uiso   1.00
C299   C     0.33006   0.12241   0.51720   0.00000  Uiso   1.00
H300   H     0.41930   0.37067   0.50748   0.00000  Uiso   1.00
H301   H     0.43273   0.43259   0.65426   0.00000  Uiso   1.00
H302   H     0.37484   0.44545   0.37837   0.00000  Uiso   1.00
H303   H     0.46983   0.24109   0.48461   0.00000  Uiso   1.00
H304   H     0.41685   0.49005   0.82510   0.00000  Uiso   1.00
H305   H     0.29479   0.51714   0.24337   0.00000  Uiso   1.00
H306   H     0.49510   0.08622   0.46738   0.00000  Uiso   1.00
H307   H     0.18234   0.28427   0.57014   0.00000  Uiso   1.00
H308   H     0.18276   0.34145   0.72036   0.00000  Uiso   1.00
H309   H     0.12487   0.35431   0.44448   0.00000  Uiso   1.00
H310   H     0.21987   0.14996   0.55071   0.00000  Uiso   1.00
H311   H     0.21397   0.41608   0.87875   0.00000  Uiso   1.00
H312   H     0.09191   0.44317   0.29702   0.00000  Uiso   1.00
H313   H     0.29222   0.01225   0.52103   0.00000  Uiso   1.00
O314   O     0.31996   0.49226   0.94960   0.00000  Uiso   1.00
O315   O     0.15982   0.52779   0.18639   0.00000  Uiso   1.00
O316   O     0.42262   0.96244   0.48029   0.00000  Uiso   1.00
N317   N     0.36905   0.46478   0.81712   0.00000  Uiso   1.00
N318   N     0.25493   0.49012   0.27325   0.00000  Uiso   1.00
N319   N     0.44220   0.08725   0.48265   0.00000  Uiso   1.00
N320   N     0.25988   0.42498   0.84599   0.00000  Uiso   1.00
N321   N     0.14576   0.45032   0.30212   0.00000  Uiso   1.00
N322   N     0.33303   0.04744   0.51152   0.00000  Uiso   1.00
C323   C     0.86502   0.85087   0.02184   0.00000  Uiso   1.00
C324   C     0.83945   0.87253   0.11028   0.00000  Uiso   1.00
C325   C     0.87877   0.91292   0.16855   0.00000  Uiso   1.00
C326   C     0.84584   0.92700   0.24601   0.00000  Uiso   1.00
C327   C     0.81675   0.96453   0.38051   0.00000  Uiso   1.00
C328   C     0.80800   0.87952   0.96039   0.00000  Uiso   1.00
C329   C     0.82087   0.92579   0.89263   0.00000  Uiso   1.00
C330   C     0.76146   0.94575   0.84391   0.00000  Uiso   1.00
C331   C     0.68354   0.99409   0.74567   0.00000  Uiso   1.00
C332   C     0.85961   0.76849   0.01812   0.00000  Uiso   1.00
C333   C     0.91588   0.72140   0.99887   0.00000  Uiso   1.00
C334   C     0.89992   0.64788   0.99873   0.00000  Uiso   1.00
C335   C     0.90214   0.52384   0.99012   0.00000  Uiso   1.00
C336   C     0.73663   0.80406   0.05579   0.00000  Uiso   1.00
C337   C     0.76972   0.84711   0.12871   0.00000  Uiso   1.00
C338   C     0.73673   0.86113   0.20611   0.00000  Uiso   1.00
C339   C     0.77599   0.90153   0.26449   0.00000  Uiso   1.00
C340   C     0.73827   0.85410   0.97883   0.00000  Uiso   1.00
C341   C     0.67883   0.87400   0.93019   0.00000  Uiso   1.00
C342   C     0.69160   0.92028   0.86238   0.00000  Uiso   1.00
C343   C     0.78988   0.74307   0.03656   0.00000  Uiso   1.00
C344   C     0.77383   0.66961   0.03644   0.00000  Uiso   1.00
C345   C     0.83006   0.62241   0.01720   0.00000  Uiso   1.00
H346   H     0.91930   0.87067   0.00748   0.00000  Uiso   1.00
H347   H     0.93273   0.93259   0.15426   0.00000  Uiso   1.00
H348   H     0.87484   0.94545   0.87837   0.00000  Uiso   1.00
H349   H     0.96983   0.74109   0.98461   0.00000  Uiso   1.00
H350   H     0.91685   0.99005   0.32510   0.00000  Uiso   1.00
H351   H     0.79479   0.01714   0.74337   0.00000  Uiso   1.00
H352   H     0.99510   0.58622   0.96738   0.00000  Uiso   1.00
H353   H     0.68234   0.78427   0.07014   0.00000  Uiso   1.00
H354   H     0.68276   0.84145   0.22036   0.00000  Uiso   1.00
H355   H     0.62487   0.85431   0.94448   0.00000  Uiso   1.00
H356   H     0.71987   0.64996   0.05071   0.00000  Uiso   1.00
H357   H     0.71397   0.91608   0.37875   0.00000  Uiso   1.00
H358   H     0.59191   0.94317   0.79702   0.00000  Uiso   1.00
H359   H     0.79222   0.51225   0.02103   0.00000  Uiso   1.00
O360   O     0.81996   0.99226   0.44960   0.00000  Uiso   1.00
O361   O     0.65982   0.02779   0.68639   0.00000  Uiso   1.00
O362   O     0.92262   0.46244   0.98029   0.00000  Uiso   1.00
N363   N     0.86905   0.96478   0.31712   0.00000  Uiso   1.00
N364   N     0.75493   0.99012   0.77325   0.00000  Uiso   1.00
N365   N     0.94220   0.58725   0.98265   0.00000  Uiso   1.00
N366   N     0.75988   0.92498   0.34599   0.00000  Uiso   1.00
N367   N     0.64576   0.95032   0.80212   0.00000  Uiso   1.00
N368   N     0.83303   0.54744   0.01152   0.00000  Uiso   1.00
