data_job_00621
_audit_creation_date              2018-12-19
_audit_creation_method            'Materials Studio'
_symmetry_space_group_name_H-M    'P1'
_symmetry_Int_Tables_number       1
_symmetry_cell_setting            triclinic
loop_
_symmetry_equiv_pos_as_xyz
  x,y,z
_cell_length_a                    11.7750
_cell_length_b                    11.7750
_cell_length_c                    32.4679
_cell_angle_alpha                 90.0000
_cell_angle_beta                  90.0000
_cell_angle_gamma                 90.0000
loop_
_atom_site_label
_atom_site_type_symbol
_atom_site_fract_x
_atom_site_fract_y
_atom_site_fract_z
_atom_site_U_iso_or_equiv
_atom_site_adp_type
_atom_site_occupancy
C1     C     0.36277   0.65015   0.51697   0.00000  Uiso   1.00
C2     C     0.36269   0.65256   0.47001   0.00000  Uiso   1.00
C3     C     0.39504   0.56385   0.44444   0.00000  Uiso   1.00
C4     C     0.38892   0.58290   0.40230   0.00000  Uiso   1.00
C5     C     0.39450   0.57085   0.33181   0.00000  Uiso   1.00
C6     C     0.43671   0.74960   0.53060   0.00000  Uiso   1.00
C7     C     0.53130   0.74248   0.55598   0.00000  Uiso   1.00
C8     C     0.58747   0.84323   0.56485   0.00000  Uiso   1.00
C9     C     0.70792   0.98184   0.58845   0.00000  Uiso   1.00
C10    C     0.24203   0.67957   0.53018   0.00000  Uiso   1.00
C11    C     0.17293   0.61358   0.55521   0.00000  Uiso   1.00
C12    C     0.06520   0.65539   0.56373   0.00000  Uiso   1.00
C13    C     0.88338   0.68526   0.58667   0.00000  Uiso   1.00
C14    C     0.29434   0.84174   0.48761   0.00000  Uiso   1.00
C15    C     0.32552   0.75663   0.45407   0.00000  Uiso   1.00
C16    C     0.31933   0.77583   0.41195   0.00000  Uiso   1.00
C17    C     0.35168   0.68716   0.38632   0.00000  Uiso   1.00
C18    C     0.39955   0.85367   0.51466   0.00000  Uiso   1.00
C19    C     0.45559   0.95445   0.52349   0.00000  Uiso   1.00
C20    C     0.55024   0.94748   0.54887   0.00000  Uiso   1.00
C21    C     0.20486   0.78364   0.51423   0.00000  Uiso   1.00
C22    C     0.09722   0.82556   0.52272   0.00000  Uiso   1.00
C23    C     0.02797   0.75964   0.54775   0.00000  Uiso   1.00
H24    H     0.39171   0.56913   0.52939   0.00000  Uiso   1.00
H25    H     0.42381   0.48333   0.45679   0.00000  Uiso   1.00
H26    H     0.56003   0.66193   0.56832   0.00000  Uiso   1.00
H27    H     0.20172   0.53306   0.56754   0.00000  Uiso   1.00
H28    H     0.44305   0.43411   0.36927   0.00000  Uiso   1.00
H29    H     0.73026   0.81071   0.60444   0.00000  Uiso   1.00
H30    H     0.97469   0.53895   0.60281   0.00000  Uiso   1.00
H31    H     0.26540   0.92277   0.47520   0.00000  Uiso   1.00
H32    H     0.29057   0.85637   0.39962   0.00000  Uiso   1.00
H33    H     0.42680   0.03497   0.51115   0.00000  Uiso   1.00
H34    H     0.06849   0.90609   0.51037   0.00000  Uiso   1.00
H35    H     0.33492   0.73689   0.32287   0.00000  Uiso   1.00
H36    H     0.62212   0.11349   0.55804   0.00000  Uiso   1.00
H37    H     0.86655   0.84172   0.55641   0.00000  Uiso   1.00
O38    O     0.40786   0.53545   0.29733   0.00000  Uiso   1.00
O39    O     0.78464   0.02953   0.60587   0.00000  Uiso   1.00
O40    O     0.79336   0.67299   0.60373   0.00000  Uiso   1.00
N41    N     0.41413   0.51447   0.36872   0.00000  Uiso   1.00
N42    N     0.68266   0.86657   0.58858   0.00000  Uiso   1.00
N43    N     0.97628   0.61251   0.58707   0.00000  Uiso   1.00
N44    N     0.35594   0.67739   0.34375   0.00000  Uiso   1.00
N45    N     0.62447   0.02949   0.56362   0.00000  Uiso   1.00
N46    N     0.91808   0.77543   0.56210   0.00000  Uiso   1.00
C47    C     0.63723   0.34985   0.01697   0.00000  Uiso   1.00
C48    C     0.63731   0.34744   0.97001   0.00000  Uiso   1.00
C49    C     0.60496   0.43615   0.94444   0.00000  Uiso   1.00
C50    C     0.61108   0.41710   0.90230   0.00000  Uiso   1.00
C51    C     0.60550   0.42915   0.83181   0.00000  Uiso   1.00
C52    C     0.56329   0.25040   0.03060   0.00000  Uiso   1.00
C53    C     0.46870   0.25752   0.05598   0.00000  Uiso   1.00
C54    C     0.41253   0.15677   0.06485   0.00000  Uiso   1.00
C55    C     0.29208   0.01816   0.08845   0.00000  Uiso   1.00
C56    C     0.75797   0.32043   0.03018   0.00000  Uiso   1.00
C57    C     0.82707   0.38642   0.05521   0.00000  Uiso   1.00
C58    C     0.93480   0.34461   0.06373   0.00000  Uiso   1.00
C59    C     0.11662   0.31474   0.08667   0.00000  Uiso   1.00
C60    C     0.70566   0.15826   0.98761   0.00000  Uiso   1.00
C61    C     0.67448   0.24337   0.95407   0.00000  Uiso   1.00
C62    C     0.68067   0.22417   0.91195   0.00000  Uiso   1.00
C63    C     0.64832   0.31284   0.88632   0.00000  Uiso   1.00
C64    C     0.60045   0.14633   0.01466   0.00000  Uiso   1.00
C65    C     0.54441   0.04555   0.02349   0.00000  Uiso   1.00
C66    C     0.44976   0.05252   0.04887   0.00000  Uiso   1.00
C67    C     0.79514   0.21636   0.01423   0.00000  Uiso   1.00
C68    C     0.90278   0.17444   0.02272   0.00000  Uiso   1.00
C69    C     0.97203   0.24036   0.04775   0.00000  Uiso   1.00
H70    H     0.60829   0.43087   0.02939   0.00000  Uiso   1.00
H71    H     0.57619   0.51667   0.95679   0.00000  Uiso   1.00
H72    H     0.43997   0.33807   0.06832   0.00000  Uiso   1.00
H73    H     0.79828   0.46694   0.06754   0.00000  Uiso   1.00
H74    H     0.55695   0.56589   0.86927   0.00000  Uiso   1.00
H75    H     0.26974   0.18929   0.10444   0.00000  Uiso   1.00
H76    H     0.02531   0.46105   0.10281   0.00000  Uiso   1.00
H77    H     0.73460   0.07723   0.97520   0.00000  Uiso   1.00
H78    H     0.70943   0.14363   0.89962   0.00000  Uiso   1.00
H79    H     0.57320   0.96503   0.01115   0.00000  Uiso   1.00
H80    H     0.93151   0.09391   0.01037   0.00000  Uiso   1.00
H81    H     0.66508   0.26311   0.82287   0.00000  Uiso   1.00
H82    H     0.37788   0.88651   0.05804   0.00000  Uiso   1.00
H83    H     0.13345   0.15828   0.05641   0.00000  Uiso   1.00
O84    O     0.59214   0.46455   0.79733   0.00000  Uiso   1.00
O85    O     0.21536   0.97047   0.10587   0.00000  Uiso   1.00
O86    O     0.20664   0.32701   0.10373   0.00000  Uiso   1.00
N87    N     0.58587   0.48553   0.86872   0.00000  Uiso   1.00
N88    N     0.31734   0.13343   0.08858   0.00000  Uiso   1.00
N89    N     0.02372   0.38749   0.08707   0.00000  Uiso   1.00
N90    N     0.64406   0.32261   0.84375   0.00000  Uiso   1.00
N91    N     0.37553   0.97051   0.06362   0.00000  Uiso   1.00
N92    N     0.08192   0.22457   0.06210   0.00000  Uiso   1.00
C93    C     0.84985   0.86277   0.26697   0.00000  Uiso   1.00
C94    C     0.84744   0.86269   0.22001   0.00000  Uiso   1.00
C95    C     0.93615   0.89504   0.19444   0.00000  Uiso   1.00
C96    C     0.91710   0.88892   0.15230   0.00000  Uiso   1.00
C97    C     0.92915   0.89450   0.08181   0.00000  Uiso   1.00
C98    C     0.75040   0.93671   0.28060   0.00000  Uiso   1.00
C99    C     0.75752   0.03130   0.30598   0.00000  Uiso   1.00
C100   C     0.65677   0.08747   0.31485   0.00000  Uiso   1.00
C101   C     0.51816   0.20792   0.33845   0.00000  Uiso   1.00
C102   C     0.82043   0.74203   0.28018   0.00000  Uiso   1.00
C103   C     0.88642   0.67293   0.30521   0.00000  Uiso   1.00
C104   C     0.84461   0.56520   0.31373   0.00000  Uiso   1.00
C105   C     0.81474   0.38338   0.33667   0.00000  Uiso   1.00
C106   C     0.65826   0.79434   0.23761   0.00000  Uiso   1.00
C107   C     0.74337   0.82552   0.20407   0.00000  Uiso   1.00
C108   C     0.72417   0.81933   0.16195   0.00000  Uiso   1.00
C109   C     0.81284   0.85168   0.13632   0.00000  Uiso   1.00
C110   C     0.64633   0.89955   0.26466   0.00000  Uiso   1.00
C111   C     0.54555   0.95559   0.27349   0.00000  Uiso   1.00
C112   C     0.55252   0.05024   0.29887   0.00000  Uiso   1.00
C113   C     0.71636   0.70486   0.26423   0.00000  Uiso   1.00
C114   C     0.67444   0.59722   0.27272   0.00000  Uiso   1.00
C115   C     0.74036   0.52797   0.29775   0.00000  Uiso   1.00
H116   H     0.93087   0.89171   0.27939   0.00000  Uiso   1.00
H117   H     0.01667   0.92381   0.20679   0.00000  Uiso   1.00
H118   H     0.83807   0.06003   0.31832   0.00000  Uiso   1.00
H119   H     0.96694   0.70172   0.31754   0.00000  Uiso   1.00
H120   H     0.06589   0.94305   0.11927   0.00000  Uiso   1.00
H121   H     0.68929   0.23026   0.35444   0.00000  Uiso   1.00
H122   H     0.96105   0.47469   0.35281   0.00000  Uiso   1.00
H123   H     0.57723   0.76540   0.22520   0.00000  Uiso   1.00
H124   H     0.64363   0.79057   0.14962   0.00000  Uiso   1.00
H125   H     0.46503   0.92680   0.26115   0.00000  Uiso   1.00
H126   H     0.59391   0.56849   0.26037   0.00000  Uiso   1.00
H127   H     0.76311   0.83492   0.07287   0.00000  Uiso   1.00
H128   H     0.38651   0.12212   0.30804   0.00000  Uiso   1.00
H129   H     0.65828   0.36655   0.30641   0.00000  Uiso   1.00
O130   O     0.96455   0.90786   0.04733   0.00000  Uiso   1.00
O131   O     0.47047   0.28464   0.35587   0.00000  Uiso   1.00
O132   O     0.82701   0.29336   0.35373   0.00000  Uiso   1.00
N133   N     0.98553   0.91413   0.11872   0.00000  Uiso   1.00
N134   N     0.63343   0.18266   0.33858   0.00000  Uiso   1.00
N135   N     0.88749   0.47628   0.33707   0.00000  Uiso   1.00
N136   N     0.82261   0.85594   0.09375   0.00000  Uiso   1.00
N137   N     0.47051   0.12447   0.31362   0.00000  Uiso   1.00
N138   N     0.72457   0.41808   0.31210   0.00000  Uiso   1.00
C139   C     0.15015   0.13723   0.76697   0.00000  Uiso   1.00
C140   C     0.15256   0.13731   0.72001   0.00000  Uiso   1.00
C141   C     0.06385   0.10496   0.69444   0.00000  Uiso   1.00
C142   C     0.08290   0.11108   0.65230   0.00000  Uiso   1.00
C143   C     0.07085   0.10550   0.58181   0.00000  Uiso   1.00
C144   C     0.24960   0.06329   0.78060   0.00000  Uiso   1.00
C145   C     0.24248   0.96870   0.80598   0.00000  Uiso   1.00
C146   C     0.34323   0.91253   0.81485   0.00000  Uiso   1.00
C147   C     0.48184   0.79208   0.83845   0.00000  Uiso   1.00
C148   C     0.17957   0.25797   0.78018   0.00000  Uiso   1.00
C149   C     0.11358   0.32707   0.80521   0.00000  Uiso   1.00
C150   C     0.15539   0.43480   0.81373   0.00000  Uiso   1.00
C151   C     0.18526   0.61662   0.83667   0.00000  Uiso   1.00
C152   C     0.34174   0.20566   0.73761   0.00000  Uiso   1.00
C153   C     0.25663   0.17448   0.70407   0.00000  Uiso   1.00
C154   C     0.27583   0.18067   0.66195   0.00000  Uiso   1.00
C155   C     0.18716   0.14832   0.63632   0.00000  Uiso   1.00
C156   C     0.35367   0.10045   0.76466   0.00000  Uiso   1.00
C157   C     0.45445   0.04441   0.77349   0.00000  Uiso   1.00
C158   C     0.44748   0.94976   0.79887   0.00000  Uiso   1.00
C159   C     0.28364   0.29514   0.76423   0.00000  Uiso   1.00
C160   C     0.32556   0.40278   0.77272   0.00000  Uiso   1.00
C161   C     0.25964   0.47203   0.79775   0.00000  Uiso   1.00
H162   H     0.06913   0.10829   0.77939   0.00000  Uiso   1.00
H163   H     0.98333   0.07619   0.70679   0.00000  Uiso   1.00
H164   H     0.16193   0.93997   0.81832   0.00000  Uiso   1.00
H165   H     0.03306   0.29828   0.81754   0.00000  Uiso   1.00
H166   H     0.93411   0.05695   0.61927   0.00000  Uiso   1.00
H167   H     0.31071   0.76974   0.85444   0.00000  Uiso   1.00
H168   H     0.03895   0.52531   0.85281   0.00000  Uiso   1.00
H169   H     0.42277   0.23460   0.72520   0.00000  Uiso   1.00
H170   H     0.35637   0.20943   0.64962   0.00000  Uiso   1.00
H171   H     0.53497   0.07320   0.76115   0.00000  Uiso   1.00
H172   H     0.40609   0.43151   0.76037   0.00000  Uiso   1.00
H173   H     0.23689   0.16508   0.57287   0.00000  Uiso   1.00
H174   H     0.61349   0.87788   0.80804   0.00000  Uiso   1.00
H175   H     0.34172   0.63345   0.80641   0.00000  Uiso   1.00
O176   O     0.03545   0.09214   0.54733   0.00000  Uiso   1.00
O177   O     0.52953   0.71536   0.85587   0.00000  Uiso   1.00
O178   O     0.17299   0.70664   0.85373   0.00000  Uiso   1.00
N179   N     0.01447   0.08587   0.61872   0.00000  Uiso   1.00
N180   N     0.36657   0.81734   0.83858   0.00000  Uiso   1.00
N181   N     0.11251   0.52372   0.83707   0.00000  Uiso   1.00
N182   N     0.17739   0.14406   0.59375   0.00000  Uiso   1.00
N183   N     0.52949   0.87553   0.81362   0.00000  Uiso   1.00
N184   N     0.27543   0.58192   0.81210   0.00000  Uiso   1.00
C185   C     0.13723   0.15015   0.23303   0.00000  Uiso   1.00
C186   C     0.13731   0.15256   0.27999   0.00000  Uiso   1.00
C187   C     0.10496   0.06385   0.30556   0.00000  Uiso   1.00
C188   C     0.11108   0.08290   0.34770   0.00000  Uiso   1.00
C189   C     0.10550   0.07085   0.41819   0.00000  Uiso   1.00
C190   C     0.06329   0.24960   0.21940   0.00000  Uiso   1.00
C191   C     0.96870   0.24248   0.19402   0.00000  Uiso   1.00
C192   C     0.91253   0.34323   0.18515   0.00000  Uiso   1.00
C193   C     0.79208   0.48184   0.16155   0.00000  Uiso   1.00
C194   C     0.25797   0.17957   0.21982   0.00000  Uiso   1.00
C195   C     0.32707   0.11358   0.19479   0.00000  Uiso   1.00
C196   C     0.43480   0.15539   0.18627   0.00000  Uiso   1.00
C197   C     0.61662   0.18526   0.16333   0.00000  Uiso   1.00
C198   C     0.20566   0.34174   0.26239   0.00000  Uiso   1.00
C199   C     0.17448   0.25663   0.29593   0.00000  Uiso   1.00
C200   C     0.18067   0.27583   0.33805   0.00000  Uiso   1.00
C201   C     0.14832   0.18716   0.36368   0.00000  Uiso   1.00
C202   C     0.10045   0.35367   0.23534   0.00000  Uiso   1.00
C203   C     0.04441   0.45445   0.22651   0.00000  Uiso   1.00
C204   C     0.94976   0.44748   0.20113   0.00000  Uiso   1.00
C205   C     0.29514   0.28364   0.23577   0.00000  Uiso   1.00
C206   C     0.40278   0.32556   0.22728   0.00000  Uiso   1.00
C207   C     0.47203   0.25964   0.20225   0.00000  Uiso   1.00
H208   H     0.10829   0.06913   0.22061   0.00000  Uiso   1.00
H209   H     0.07619   0.98333   0.29321   0.00000  Uiso   1.00
H210   H     0.93997   0.16193   0.18168   0.00000  Uiso   1.00
H211   H     0.29828   0.03306   0.18246   0.00000  Uiso   1.00
H212   H     0.05695   0.93411   0.38073   0.00000  Uiso   1.00
H213   H     0.76974   0.31071   0.14556   0.00000  Uiso   1.00
H214   H     0.52531   0.03895   0.14719   0.00000  Uiso   1.00
H215   H     0.23460   0.42277   0.27480   0.00000  Uiso   1.00
H216   H     0.20943   0.35637   0.35038   0.00000  Uiso   1.00
H217   H     0.07320   0.53497   0.23885   0.00000  Uiso   1.00
H218   H     0.43151   0.40609   0.23963   0.00000  Uiso   1.00
H219   H     0.16508   0.23689   0.42713   0.00000  Uiso   1.00
H220   H     0.87788   0.61349   0.19196   0.00000  Uiso   1.00
H221   H     0.63345   0.34172   0.19359   0.00000  Uiso   1.00
O222   O     0.09214   0.03545   0.45267   0.00000  Uiso   1.00
O223   O     0.71536   0.52953   0.14413   0.00000  Uiso   1.00
O224   O     0.70664   0.17299   0.14627   0.00000  Uiso   1.00
N225   N     0.08587   0.01447   0.38128   0.00000  Uiso   1.00
N226   N     0.81734   0.36657   0.16142   0.00000  Uiso   1.00
N227   N     0.52372   0.11251   0.16293   0.00000  Uiso   1.00
N228   N     0.14406   0.17739   0.40625   0.00000  Uiso   1.00
N229   N     0.87553   0.52949   0.18638   0.00000  Uiso   1.00
N230   N     0.58192   0.27543   0.18790   0.00000  Uiso   1.00
C231   C     0.86277   0.84985   0.73303   0.00000  Uiso   1.00
C232   C     0.86269   0.84744   0.77999   0.00000  Uiso   1.00
C233   C     0.89504   0.93615   0.80556   0.00000  Uiso   1.00
C234   C     0.88892   0.91710   0.84770   0.00000  Uiso   1.00
C235   C     0.89450   0.92915   0.91819   0.00000  Uiso   1.00
C236   C     0.93671   0.75040   0.71940   0.00000  Uiso   1.00
C237   C     0.03130   0.75752   0.69402   0.00000  Uiso   1.00
C238   C     0.08747   0.65677   0.68515   0.00000  Uiso   1.00
C239   C     0.20792   0.51816   0.66155   0.00000  Uiso   1.00
C240   C     0.74203   0.82043   0.71982   0.00000  Uiso   1.00
C241   C     0.67293   0.88642   0.69479   0.00000  Uiso   1.00
C242   C     0.56520   0.84461   0.68627   0.00000  Uiso   1.00
C243   C     0.38338   0.81474   0.66333   0.00000  Uiso   1.00
C244   C     0.79434   0.65826   0.76239   0.00000  Uiso   1.00
C245   C     0.82552   0.74337   0.79593   0.00000  Uiso   1.00
C246   C     0.81933   0.72417   0.83805   0.00000  Uiso   1.00
C247   C     0.85168   0.81284   0.86368   0.00000  Uiso   1.00
C248   C     0.89955   0.64633   0.73534   0.00000  Uiso   1.00
C249   C     0.95559   0.54555   0.72651   0.00000  Uiso   1.00
C250   C     0.05024   0.55252   0.70113   0.00000  Uiso   1.00
C251   C     0.70486   0.71636   0.73577   0.00000  Uiso   1.00
C252   C     0.59722   0.67444   0.72728   0.00000  Uiso   1.00
C253   C     0.52797   0.74036   0.70225   0.00000  Uiso   1.00
H254   H     0.89171   0.93087   0.72061   0.00000  Uiso   1.00
H255   H     0.92381   0.01667   0.79321   0.00000  Uiso   1.00
H256   H     0.06003   0.83807   0.68168   0.00000  Uiso   1.00
H257   H     0.70172   0.96694   0.68246   0.00000  Uiso   1.00
H258   H     0.94305   0.06589   0.88073   0.00000  Uiso   1.00
H259   H     0.23026   0.68929   0.64556   0.00000  Uiso   1.00
H260   H     0.47469   0.96105   0.64719   0.00000  Uiso   1.00
H261   H     0.76540   0.57723   0.77480   0.00000  Uiso   1.00
H262   H     0.79057   0.64363   0.85038   0.00000  Uiso   1.00
H263   H     0.92680   0.46503   0.73885   0.00000  Uiso   1.00
H264   H     0.56849   0.59391   0.73963   0.00000  Uiso   1.00
H265   H     0.83492   0.76311   0.92713   0.00000  Uiso   1.00
H266   H     0.12212   0.38651   0.69196   0.00000  Uiso   1.00
H267   H     0.36655   0.65828   0.69359   0.00000  Uiso   1.00
O268   O     0.90786   0.96455   0.95267   0.00000  Uiso   1.00
O269   O     0.28464   0.47047   0.64413   0.00000  Uiso   1.00
O270   O     0.29336   0.82701   0.64627   0.00000  Uiso   1.00
N271   N     0.91413   0.98553   0.88128   0.00000  Uiso   1.00
N272   N     0.18266   0.63343   0.66142   0.00000  Uiso   1.00
N273   N     0.47628   0.88749   0.66293   0.00000  Uiso   1.00
N274   N     0.85594   0.82261   0.90625   0.00000  Uiso   1.00
N275   N     0.12447   0.47051   0.68638   0.00000  Uiso   1.00
N276   N     0.41808   0.72457   0.68790   0.00000  Uiso   1.00
C277   C     0.65015   0.36277   0.48303   0.00000  Uiso   1.00
C278   C     0.65256   0.36269   0.52999   0.00000  Uiso   1.00
C279   C     0.56385   0.39504   0.55556   0.00000  Uiso   1.00
C280   C     0.58290   0.38892   0.59770   0.00000  Uiso   1.00
C281   C     0.57085   0.39450   0.66819   0.00000  Uiso   1.00
C282   C     0.74960   0.43671   0.46940   0.00000  Uiso   1.00
C283   C     0.74248   0.53130   0.44402   0.00000  Uiso   1.00
C284   C     0.84323   0.58747   0.43515   0.00000  Uiso   1.00
C285   C     0.98184   0.70792   0.41155   0.00000  Uiso   1.00
C286   C     0.67957   0.24203   0.46982   0.00000  Uiso   1.00
C287   C     0.61358   0.17293   0.44479   0.00000  Uiso   1.00
C288   C     0.65539   0.06520   0.43627   0.00000  Uiso   1.00
C289   C     0.68526   0.88338   0.41333   0.00000  Uiso   1.00
C290   C     0.84174   0.29434   0.51239   0.00000  Uiso   1.00
C291   C     0.75663   0.32552   0.54593   0.00000  Uiso   1.00
C292   C     0.77583   0.31933   0.58805   0.00000  Uiso   1.00
C293   C     0.68716   0.35168   0.61368   0.00000  Uiso   1.00
C294   C     0.85367   0.39955   0.48534   0.00000  Uiso   1.00
C295   C     0.95445   0.45559   0.47651   0.00000  Uiso   1.00
C296   C     0.94748   0.55024   0.45113   0.00000  Uiso   1.00
C297   C     0.78364   0.20486   0.48577   0.00000  Uiso   1.00
C298   C     0.82556   0.09722   0.47728   0.00000  Uiso   1.00
C299   C     0.75964   0.02797   0.45225   0.00000  Uiso   1.00
H300   H     0.56913   0.39171   0.47061   0.00000  Uiso   1.00
H301   H     0.48333   0.42381   0.54321   0.00000  Uiso   1.00
H302   H     0.66193   0.56003   0.43168   0.00000  Uiso   1.00
H303   H     0.53306   0.20172   0.43246   0.00000  Uiso   1.00
H304   H     0.43411   0.44305   0.63073   0.00000  Uiso   1.00
H305   H     0.81071   0.73026   0.39556   0.00000  Uiso   1.00
H306   H     0.53895   0.97469   0.39719   0.00000  Uiso   1.00
H307   H     0.92277   0.26540   0.52480   0.00000  Uiso   1.00
H308   H     0.85637   0.29057   0.60038   0.00000  Uiso   1.00
H309   H     0.03497   0.42680   0.48885   0.00000  Uiso   1.00
H310   H     0.90609   0.06849   0.48963   0.00000  Uiso   1.00
H311   H     0.73689   0.33492   0.67713   0.00000  Uiso   1.00
H312   H     0.11349   0.62212   0.44196   0.00000  Uiso   1.00
H313   H     0.84172   0.86655   0.44359   0.00000  Uiso   1.00
O314   O     0.53545   0.40786   0.70267   0.00000  Uiso   1.00
O315   O     0.02953   0.78464   0.39413   0.00000  Uiso   1.00
O316   O     0.67299   0.79336   0.39627   0.00000  Uiso   1.00
N317   N     0.51447   0.41413   0.63128   0.00000  Uiso   1.00
N318   N     0.86657   0.68266   0.41142   0.00000  Uiso   1.00
N319   N     0.61251   0.97628   0.41293   0.00000  Uiso   1.00
N320   N     0.67739   0.35594   0.65625   0.00000  Uiso   1.00
N321   N     0.02949   0.62447   0.43638   0.00000  Uiso   1.00
N322   N     0.77543   0.91808   0.43790   0.00000  Uiso   1.00
C323   C     0.34985   0.63723   0.98303   0.00000  Uiso   1.00
C324   C     0.34744   0.63731   0.02999   0.00000  Uiso   1.00
C325   C     0.43615   0.60496   0.05556   0.00000  Uiso   1.00
C326   C     0.41710   0.61108   0.09770   0.00000  Uiso   1.00
C327   C     0.42915   0.60550   0.16819   0.00000  Uiso   1.00
C328   C     0.25040   0.56329   0.96940   0.00000  Uiso   1.00
C329   C     0.25752   0.46870   0.94402   0.00000  Uiso   1.00
C330   C     0.15677   0.41253   0.93515   0.00000  Uiso   1.00
C331   C     0.01816   0.29208   0.91155   0.00000  Uiso   1.00
C332   C     0.32043   0.75797   0.96982   0.00000  Uiso   1.00
C333   C     0.38642   0.82707   0.94479   0.00000  Uiso   1.00
C334   C     0.34461   0.93480   0.93627   0.00000  Uiso   1.00
C335   C     0.31474   0.11662   0.91333   0.00000  Uiso   1.00
C336   C     0.15826   0.70566   0.01239   0.00000  Uiso   1.00
C337   C     0.24337   0.67448   0.04593   0.00000  Uiso   1.00
C338   C     0.22417   0.68067   0.08805   0.00000  Uiso   1.00
C339   C     0.31284   0.64832   0.11368   0.00000  Uiso   1.00
C340   C     0.14633   0.60045   0.98534   0.00000  Uiso   1.00
C341   C     0.04555   0.54441   0.97651   0.00000  Uiso   1.00
C342   C     0.05252   0.44976   0.95113   0.00000  Uiso   1.00
C343   C     0.21636   0.79514   0.98577   0.00000  Uiso   1.00
C344   C     0.17444   0.90278   0.97728   0.00000  Uiso   1.00
C345   C     0.24036   0.97203   0.95225   0.00000  Uiso   1.00
H346   H     0.43087   0.60829   0.97061   0.00000  Uiso   1.00
H347   H     0.51667   0.57619   0.04321   0.00000  Uiso   1.00
H348   H     0.33807   0.43997   0.93168   0.00000  Uiso   1.00
H349   H     0.46694   0.79828   0.93246   0.00000  Uiso   1.00
H350   H     0.56589   0.55695   0.13073   0.00000  Uiso   1.00
H351   H     0.18929   0.26974   0.89556   0.00000  Uiso   1.00
H352   H     0.46105   0.02531   0.89719   0.00000  Uiso   1.00
H353   H     0.07723   0.73460   0.02480   0.00000  Uiso   1.00
H354   H     0.14363   0.70943   0.10038   0.00000  Uiso   1.00
H355   H     0.96503   0.57320   0.98885   0.00000  Uiso   1.00
H356   H     0.09391   0.93151   0.98963   0.00000  Uiso   1.00
H357   H     0.26311   0.66508   0.17713   0.00000  Uiso   1.00
H358   H     0.88651   0.37788   0.94196   0.00000  Uiso   1.00
H359   H     0.15828   0.13345   0.94359   0.00000  Uiso   1.00
O360   O     0.46455   0.59214   0.20267   0.00000  Uiso   1.00
O361   O     0.97047   0.21536   0.89413   0.00000  Uiso   1.00
O362   O     0.32701   0.20664   0.89627   0.00000  Uiso   1.00
N363   N     0.48553   0.58587   0.13128   0.00000  Uiso   1.00
N364   N     0.13343   0.31734   0.91142   0.00000  Uiso   1.00
N365   N     0.38749   0.02372   0.91293   0.00000  Uiso   1.00
N366   N     0.32261   0.64406   0.15625   0.00000  Uiso   1.00
N367   N     0.97051   0.37553   0.93638   0.00000  Uiso   1.00
N368   N     0.22457   0.08192   0.93790   0.00000  Uiso   1.00
