data_job_02660
_audit_creation_date              2018-12-19
_audit_creation_method            'Materials Studio'
_symmetry_space_group_name_H-M    'P1'
_symmetry_Int_Tables_number       1
_symmetry_cell_setting            triclinic
loop_
_symmetry_equiv_pos_as_xyz
  x,y,z
_cell_length_a                    17.8662
_cell_length_b                    17.8662
_cell_length_c                    15.1487
_cell_angle_alpha                 90.0000
_cell_angle_beta                  90.0000
_cell_angle_gamma                 120.0000
loop_
_atom_site_label
_atom_site_type_symbol
_atom_site_fract_x
_atom_site_fract_y
_atom_site_fract_z
_atom_site_U_iso_or_equiv
_atom_site_adp_type
_atom_site_occupancy
C1     C     0.34775   0.58889   0.02575   0.00000  Uiso   1.00
C2     C     0.31001   0.64372   0.99272   0.00000  Uiso   1.00
C3     C     0.34755   0.73256   0.00240   0.00000  Uiso   1.00
C4     C     0.30278   0.77071   0.96759   0.00000  Uiso   1.00
C5     C     0.25624   0.86331   0.92288   0.00000  Uiso   1.00
C6     C     0.27896   0.51993   0.08521   0.00000  Uiso   1.00
C7     C     0.29041   0.50468   0.17265   0.00000  Uiso   1.00
C8     C     0.21950   0.43862   0.21569   0.00000  Uiso   1.00
C9     C     0.12479   0.33898   0.31454   0.00000  Uiso   1.00
C10    C     0.35404   0.54118   0.94516   0.00000  Uiso   1.00
C11    C     0.42861   0.54377   0.91486   0.00000  Uiso   1.00
C12    C     0.42092   0.49558   0.84000   0.00000  Uiso   1.00
C13    C     0.44277   0.42894   0.72141   0.00000  Uiso   1.00
C14    C     0.20149   0.49867   0.94672   0.00000  Uiso   1.00
C15    C     0.23057   0.59472   0.94980   0.00000  Uiso   1.00
C16    C     0.18573   0.63275   0.91496   0.00000  Uiso   1.00
C17    C     0.22320   0.72163   0.92459   0.00000  Uiso   1.00
C18    C     0.19952   0.47093   0.04229   0.00000  Uiso   1.00
C19    C     0.12859   0.40487   0.08521   0.00000  Uiso   1.00
C20    C     0.13992   0.38953   0.17269   0.00000  Uiso   1.00
C21    C     0.27460   0.49218   0.90223   0.00000  Uiso   1.00
C22    C     0.26679   0.44397   0.82742   0.00000  Uiso   1.00
C23    C     0.34133   0.44649   0.79700   0.00000  Uiso   1.00
H24    H     0.40960   0.62703   0.05917   0.00000  Uiso   1.00
H25    H     0.40903   0.77046   0.03563   0.00000  Uiso   1.00
H26    H     0.35189   0.54261   0.20584   0.00000  Uiso   1.00
H27    H     0.49007   0.58170   0.94809   0.00000  Uiso   1.00
H28    H     0.37334   0.90786   0.99063   0.00000  Uiso   1.00
H29    H     0.25289   0.42740   0.34952   0.00000  Uiso   1.00
H30    H     0.54427   0.50983   0.80600   0.00000  Uiso   1.00
H31    H     0.13964   0.46052   0.91330   0.00000  Uiso   1.00
H32    H     0.12426   0.59481   0.88175   0.00000  Uiso   1.00
H33    H     0.06712   0.36696   0.05197   0.00000  Uiso   1.00
H34    H     0.20531   0.40605   0.79421   0.00000  Uiso   1.00
H35    H     0.14221   0.76530   0.86574   0.00000  Uiso   1.00
H36    H     0.02176   0.28484   0.22463   0.00000  Uiso   1.00
H37    H     0.31314   0.36727   0.68111   0.00000  Uiso   1.00
O38    O     0.25251   0.92792   0.91009   0.00000  Uiso   1.00
O39    O     0.09449   0.29757   0.38094   0.00000  Uiso   1.00
O40    O     0.47678   0.40573   0.66785   0.00000  Uiso   1.00
N41    N     0.32107   0.85588   0.96555   0.00000  Uiso   1.00
N42    N     0.20844   0.40669   0.30110   0.00000  Uiso   1.00
N43    N     0.48086   0.48374   0.79297   0.00000  Uiso   1.00
N44    N     0.19670   0.77917   0.89835   0.00000  Uiso   1.00
N45    N     0.08407   0.32998   0.23390   0.00000  Uiso   1.00
N46    N     0.35649   0.40703   0.72576   0.00000  Uiso   1.00
C47    C     0.41111   0.75886   0.69242   0.00000  Uiso   1.00
C48    C     0.35628   0.66628   0.65939   0.00000  Uiso   1.00
C49    C     0.26744   0.61499   0.66907   0.00000  Uiso   1.00
C50    C     0.22929   0.53207   0.63426   0.00000  Uiso   1.00
C51    C     0.13669   0.39293   0.58955   0.00000  Uiso   1.00
C52    C     0.48007   0.75903   0.75188   0.00000  Uiso   1.00
C53    C     0.49532   0.78573   0.83931   0.00000  Uiso   1.00
C54    C     0.56138   0.78089   0.88235   0.00000  Uiso   1.00
C55    C     0.66102   0.78581   0.98121   0.00000  Uiso   1.00
C56    C     0.45882   0.81286   0.61183   0.00000  Uiso   1.00
C57    C     0.45623   0.88484   0.58152   0.00000  Uiso   1.00
C58    C     0.50442   0.92534   0.50666   0.00000  Uiso   1.00
C59    C     0.57106   0.01383   0.38808   0.00000  Uiso   1.00
C60    C     0.50133   0.70282   0.61339   0.00000  Uiso   1.00
C61    C     0.40528   0.63585   0.61647   0.00000  Uiso   1.00
C62    C     0.36725   0.55298   0.58163   0.00000  Uiso   1.00
C63    C     0.27837   0.50157   0.59125   0.00000  Uiso   1.00
C64    C     0.52907   0.72859   0.70896   0.00000  Uiso   1.00
C65    C     0.59513   0.72372   0.75187   0.00000  Uiso   1.00
C66    C     0.61047   0.75039   0.83935   0.00000  Uiso   1.00
C67    C     0.50782   0.78242   0.56890   0.00000  Uiso   1.00
C68    C     0.55603   0.82283   0.49408   0.00000  Uiso   1.00
C69    C     0.55351   0.89484   0.46366   0.00000  Uiso   1.00
H70    H     0.37297   0.78256   0.72584   0.00000  Uiso   1.00
H71    H     0.22954   0.63857   0.70230   0.00000  Uiso   1.00
H72    H     0.45739   0.80929   0.87251   0.00000  Uiso   1.00
H73    H     0.41830   0.90837   0.61476   0.00000  Uiso   1.00
H74    H     0.09214   0.46549   0.65730   0.00000  Uiso   1.00
H75    H     0.57260   0.82548   0.01619   0.00000  Uiso   1.00
H76    H     0.49017   0.03444   0.47267   0.00000  Uiso   1.00
H77    H     0.53948   0.67912   0.57997   0.00000  Uiso   1.00
H78    H     0.40519   0.52944   0.54841   0.00000  Uiso   1.00
H79    H     0.63304   0.70016   0.71863   0.00000  Uiso   1.00
H80    H     0.59395   0.79925   0.46088   0.00000  Uiso   1.00
H81    H     0.23470   0.37692   0.53240   0.00000  Uiso   1.00
H82    H     0.71516   0.73692   0.89130   0.00000  Uiso   1.00
H83    H     0.63273   0.94587   0.34778   0.00000  Uiso   1.00
O84    O     0.07208   0.32460   0.57676   0.00000  Uiso   1.00
O85    O     0.70243   0.79692   0.04760   0.00000  Uiso   1.00
O86    O     0.59427   0.07105   0.33452   0.00000  Uiso   1.00
N87    N     0.14412   0.46519   0.63222   0.00000  Uiso   1.00
N88    N     0.59331   0.80175   0.96777   0.00000  Uiso   1.00
N89    N     0.51626   0.99712   0.45964   0.00000  Uiso   1.00
N90    N     0.22083   0.41753   0.56501   0.00000  Uiso   1.00
N91    N     0.67002   0.75409   0.90056   0.00000  Uiso   1.00
N92    N     0.59297   0.94946   0.39243   0.00000  Uiso   1.00
C93    C     0.24114   0.65225   0.35908   0.00000  Uiso   1.00
C94    C     0.33372   0.68999   0.32606   0.00000  Uiso   1.00
C95    C     0.38501   0.65245   0.33573   0.00000  Uiso   1.00
C96    C     0.46793   0.69722   0.30093   0.00000  Uiso   1.00
C97    C     0.60707   0.74376   0.25622   0.00000  Uiso   1.00
C98    C     0.24097   0.72104   0.41854   0.00000  Uiso   1.00
C99    C     0.21427   0.70959   0.50598   0.00000  Uiso   1.00
C100   C     0.21911   0.78050   0.54902   0.00000  Uiso   1.00
C101   C     0.21419   0.87521   0.64788   0.00000  Uiso   1.00
C102   C     0.18714   0.64596   0.27850   0.00000  Uiso   1.00
C103   C     0.11516   0.57139   0.24819   0.00000  Uiso   1.00
C104   C     0.07466   0.57908   0.17333   0.00000  Uiso   1.00
C105   C     0.98617   0.55723   0.05474   0.00000  Uiso   1.00
C106   C     0.29718   0.79851   0.28005   0.00000  Uiso   1.00
C107   C     0.36415   0.76943   0.28313   0.00000  Uiso   1.00
C108   C     0.44702   0.81427   0.24830   0.00000  Uiso   1.00
C109   C     0.49843   0.77680   0.25792   0.00000  Uiso   1.00
C110   C     0.27141   0.80048   0.37562   0.00000  Uiso   1.00
C111   C     0.27628   0.87141   0.41854   0.00000  Uiso   1.00
C112   C     0.24961   0.86008   0.50602   0.00000  Uiso   1.00
C113   C     0.21758   0.72540   0.23557   0.00000  Uiso   1.00
C114   C     0.17717   0.73321   0.16075   0.00000  Uiso   1.00
C115   C     0.10516   0.65867   0.13033   0.00000  Uiso   1.00
H116   H     0.21744   0.59040   0.39251   0.00000  Uiso   1.00
H117   H     0.36143   0.59097   0.36897   0.00000  Uiso   1.00
H118   H     0.19071   0.64811   0.53918   0.00000  Uiso   1.00
H119   H     0.09163   0.50993   0.28143   0.00000  Uiso   1.00
H120   H     0.53451   0.62666   0.32397   0.00000  Uiso   1.00
H121   H     0.17452   0.74711   0.68286   0.00000  Uiso   1.00
H122   H     0.96556   0.45573   0.13934   0.00000  Uiso   1.00
H123   H     0.32088   0.86036   0.24663   0.00000  Uiso   1.00
H124   H     0.47056   0.87574   0.21508   0.00000  Uiso   1.00
H125   H     0.29984   0.93288   0.38530   0.00000  Uiso   1.00
H126   H     0.20075   0.79469   0.12755   0.00000  Uiso   1.00
H127   H     0.62308   0.85779   0.19907   0.00000  Uiso   1.00
H128   H     0.26308   0.97824   0.55797   0.00000  Uiso   1.00
H129   H     0.05413   0.68686   0.01444   0.00000  Uiso   1.00
O130   O     0.67540   0.74749   0.24342   0.00000  Uiso   1.00
O131   O     0.20308   0.90551   0.71427   0.00000  Uiso   1.00
O132   O     0.92895   0.52322   0.00118   0.00000  Uiso   1.00
N133   N     0.53481   0.67893   0.29889   0.00000  Uiso   1.00
N134   N     0.19825   0.79156   0.63443   0.00000  Uiso   1.00
N135   N     0.00288   0.51914   0.12630   0.00000  Uiso   1.00
N136   N     0.58247   0.80330   0.23168   0.00000  Uiso   1.00
N137   N     0.24591   0.91593   0.56723   0.00000  Uiso   1.00
N138   N     0.05054   0.64351   0.05910   0.00000  Uiso   1.00
C139   C     0.58889   0.34775   0.97425   0.00000  Uiso   1.00
C140   C     0.64372   0.31001   0.00728   0.00000  Uiso   1.00
C141   C     0.73256   0.34755   0.99760   0.00000  Uiso   1.00
C142   C     0.77071   0.30278   0.03241   0.00000  Uiso   1.00
C143   C     0.86331   0.25624   0.07712   0.00000  Uiso   1.00
C144   C     0.51993   0.27896   0.91479   0.00000  Uiso   1.00
C145   C     0.50468   0.29041   0.82735   0.00000  Uiso   1.00
C146   C     0.43862   0.21950   0.78431   0.00000  Uiso   1.00
C147   C     0.33898   0.12479   0.68546   0.00000  Uiso   1.00
C148   C     0.54118   0.35404   0.05484   0.00000  Uiso   1.00
C149   C     0.54377   0.42861   0.08514   0.00000  Uiso   1.00
C150   C     0.49558   0.42092   0.16000   0.00000  Uiso   1.00
C151   C     0.42894   0.44277   0.27859   0.00000  Uiso   1.00
C152   C     0.49867   0.20149   0.05328   0.00000  Uiso   1.00
C153   C     0.59472   0.23057   0.05020   0.00000  Uiso   1.00
C154   C     0.63275   0.18573   0.08504   0.00000  Uiso   1.00
C155   C     0.72163   0.22320   0.07541   0.00000  Uiso   1.00
C156   C     0.47093   0.19952   0.95771   0.00000  Uiso   1.00
C157   C     0.40487   0.12859   0.91479   0.00000  Uiso   1.00
C158   C     0.38953   0.13992   0.82731   0.00000  Uiso   1.00
C159   C     0.49218   0.27460   0.09777   0.00000  Uiso   1.00
C160   C     0.44397   0.26679   0.17258   0.00000  Uiso   1.00
C161   C     0.44649   0.34133   0.20300   0.00000  Uiso   1.00
H162   H     0.62703   0.40960   0.94083   0.00000  Uiso   1.00
H163   H     0.77046   0.40903   0.96437   0.00000  Uiso   1.00
H164   H     0.54261   0.35189   0.79416   0.00000  Uiso   1.00
H165   H     0.58170   0.49007   0.05191   0.00000  Uiso   1.00
H166   H     0.90786   0.37334   0.00937   0.00000  Uiso   1.00
H167   H     0.42740   0.25289   0.65048   0.00000  Uiso   1.00
H168   H     0.50983   0.54427   0.19400   0.00000  Uiso   1.00
H169   H     0.46052   0.13964   0.08670   0.00000  Uiso   1.00
H170   H     0.59481   0.12426   0.11825   0.00000  Uiso   1.00
H171   H     0.36696   0.06712   0.94803   0.00000  Uiso   1.00
H172   H     0.40605   0.20531   0.20579   0.00000  Uiso   1.00
H173   H     0.76530   0.14221   0.13426   0.00000  Uiso   1.00
H174   H     0.28484   0.02176   0.77537   0.00000  Uiso   1.00
H175   H     0.36727   0.31314   0.31889   0.00000  Uiso   1.00
O176   O     0.92792   0.25251   0.08991   0.00000  Uiso   1.00
O177   O     0.29757   0.09449   0.61906   0.00000  Uiso   1.00
O178   O     0.40573   0.47678   0.33215   0.00000  Uiso   1.00
N179   N     0.85588   0.32107   0.03445   0.00000  Uiso   1.00
N180   N     0.40669   0.20844   0.69890   0.00000  Uiso   1.00
N181   N     0.48374   0.48086   0.20703   0.00000  Uiso   1.00
N182   N     0.77917   0.19670   0.10165   0.00000  Uiso   1.00
N183   N     0.32998   0.08407   0.76610   0.00000  Uiso   1.00
N184   N     0.40703   0.35649   0.27424   0.00000  Uiso   1.00
C185   C     0.75886   0.41111   0.30758   0.00000  Uiso   1.00
C186   C     0.66628   0.35628   0.34061   0.00000  Uiso   1.00
C187   C     0.61499   0.26744   0.33093   0.00000  Uiso   1.00
C188   C     0.53207   0.22929   0.36574   0.00000  Uiso   1.00
C189   C     0.39293   0.13669   0.41045   0.00000  Uiso   1.00
C190   C     0.75903   0.48007   0.24812   0.00000  Uiso   1.00
C191   C     0.78573   0.49532   0.16069   0.00000  Uiso   1.00
C192   C     0.78089   0.56138   0.11765   0.00000  Uiso   1.00
C193   C     0.78581   0.66102   0.01879   0.00000  Uiso   1.00
C194   C     0.81286   0.45882   0.38817   0.00000  Uiso   1.00
C195   C     0.88484   0.45623   0.41848   0.00000  Uiso   1.00
C196   C     0.92534   0.50442   0.49334   0.00000  Uiso   1.00
C197   C     0.01383   0.57106   0.61192   0.00000  Uiso   1.00
C198   C     0.70282   0.50133   0.38661   0.00000  Uiso   1.00
C199   C     0.63585   0.40528   0.38353   0.00000  Uiso   1.00
C200   C     0.55298   0.36725   0.41837   0.00000  Uiso   1.00
C201   C     0.50157   0.27837   0.40875   0.00000  Uiso   1.00
C202   C     0.72859   0.52907   0.29104   0.00000  Uiso   1.00
C203   C     0.72372   0.59513   0.24813   0.00000  Uiso   1.00
C204   C     0.75039   0.61047   0.16065   0.00000  Uiso   1.00
C205   C     0.78242   0.50782   0.43110   0.00000  Uiso   1.00
C206   C     0.82283   0.55603   0.50592   0.00000  Uiso   1.00
C207   C     0.89484   0.55351   0.53634   0.00000  Uiso   1.00
H208   H     0.78256   0.37297   0.27416   0.00000  Uiso   1.00
H209   H     0.63857   0.22954   0.29770   0.00000  Uiso   1.00
H210   H     0.80929   0.45739   0.12749   0.00000  Uiso   1.00
H211   H     0.90837   0.41830   0.38524   0.00000  Uiso   1.00
H212   H     0.46549   0.09214   0.34270   0.00000  Uiso   1.00
H213   H     0.82548   0.57260   0.98381   0.00000  Uiso   1.00
H214   H     0.03444   0.49017   0.52733   0.00000  Uiso   1.00
H215   H     0.67912   0.53948   0.42003   0.00000  Uiso   1.00
H216   H     0.52944   0.40519   0.45159   0.00000  Uiso   1.00
H217   H     0.70016   0.63304   0.28137   0.00000  Uiso   1.00
H218   H     0.79925   0.59395   0.53912   0.00000  Uiso   1.00
H219   H     0.37692   0.23470   0.46760   0.00000  Uiso   1.00
H220   H     0.73692   0.71516   0.10870   0.00000  Uiso   1.00
H221   H     0.94587   0.63273   0.65222   0.00000  Uiso   1.00
O222   O     0.32460   0.07208   0.42324   0.00000  Uiso   1.00
O223   O     0.79692   0.70243   0.95240   0.00000  Uiso   1.00
O224   O     0.07105   0.59427   0.66548   0.00000  Uiso   1.00
N225   N     0.46519   0.14412   0.36778   0.00000  Uiso   1.00
N226   N     0.80175   0.59331   0.03223   0.00000  Uiso   1.00
N227   N     0.99712   0.51626   0.54036   0.00000  Uiso   1.00
N228   N     0.41753   0.22083   0.43499   0.00000  Uiso   1.00
N229   N     0.75409   0.67002   0.09944   0.00000  Uiso   1.00
N230   N     0.94946   0.59297   0.60757   0.00000  Uiso   1.00
C231   C     0.65225   0.24114   0.64092   0.00000  Uiso   1.00
C232   C     0.68999   0.33372   0.67394   0.00000  Uiso   1.00
C233   C     0.65245   0.38501   0.66427   0.00000  Uiso   1.00
C234   C     0.69722   0.46793   0.69907   0.00000  Uiso   1.00
C235   C     0.74376   0.60707   0.74378   0.00000  Uiso   1.00
C236   C     0.72104   0.24097   0.58146   0.00000  Uiso   1.00
C237   C     0.70959   0.21427   0.49402   0.00000  Uiso   1.00
C238   C     0.78050   0.21911   0.45098   0.00000  Uiso   1.00
C239   C     0.87521   0.21419   0.35212   0.00000  Uiso   1.00
C240   C     0.64596   0.18714   0.72150   0.00000  Uiso   1.00
C241   C     0.57139   0.11516   0.75181   0.00000  Uiso   1.00
C242   C     0.57908   0.07466   0.82667   0.00000  Uiso   1.00
C243   C     0.55723   0.98617   0.94526   0.00000  Uiso   1.00
C244   C     0.79851   0.29718   0.71995   0.00000  Uiso   1.00
C245   C     0.76943   0.36415   0.71687   0.00000  Uiso   1.00
C246   C     0.81427   0.44702   0.75170   0.00000  Uiso   1.00
C247   C     0.77680   0.49843   0.74208   0.00000  Uiso   1.00
C248   C     0.80048   0.27141   0.62438   0.00000  Uiso   1.00
C249   C     0.87141   0.27628   0.58146   0.00000  Uiso   1.00
C250   C     0.86008   0.24961   0.49398   0.00000  Uiso   1.00
C251   C     0.72540   0.21758   0.76443   0.00000  Uiso   1.00
C252   C     0.73321   0.17717   0.83925   0.00000  Uiso   1.00
C253   C     0.65867   0.10516   0.86967   0.00000  Uiso   1.00
H254   H     0.59040   0.21744   0.60749   0.00000  Uiso   1.00
H255   H     0.59097   0.36143   0.63103   0.00000  Uiso   1.00
H256   H     0.64811   0.19071   0.46082   0.00000  Uiso   1.00
H257   H     0.50993   0.09163   0.71857   0.00000  Uiso   1.00
H258   H     0.62666   0.53451   0.67603   0.00000  Uiso   1.00
H259   H     0.74711   0.17452   0.31714   0.00000  Uiso   1.00
H260   H     0.45573   0.96556   0.86066   0.00000  Uiso   1.00
H261   H     0.86036   0.32088   0.75337   0.00000  Uiso   1.00
H262   H     0.87574   0.47056   0.78492   0.00000  Uiso   1.00
H263   H     0.93288   0.29984   0.61470   0.00000  Uiso   1.00
H264   H     0.79469   0.20075   0.87245   0.00000  Uiso   1.00
H265   H     0.85779   0.62308   0.80093   0.00000  Uiso   1.00
H266   H     0.97824   0.26308   0.44203   0.00000  Uiso   1.00
H267   H     0.68686   0.05413   0.98556   0.00000  Uiso   1.00
O268   O     0.74749   0.67540   0.75658   0.00000  Uiso   1.00
O269   O     0.90551   0.20308   0.28573   0.00000  Uiso   1.00
O270   O     0.52322   0.92895   0.99882   0.00000  Uiso   1.00
N271   N     0.67893   0.53481   0.70111   0.00000  Uiso   1.00
N272   N     0.79156   0.19825   0.36557   0.00000  Uiso   1.00
N273   N     0.51914   0.00288   0.87370   0.00000  Uiso   1.00
N274   N     0.80330   0.58247   0.76832   0.00000  Uiso   1.00
N275   N     0.91593   0.24591   0.43277   0.00000  Uiso   1.00
N276   N     0.64351   0.05054   0.94090   0.00000  Uiso   1.00
