data_job_03735
_audit_creation_date              2018-12-19
_audit_creation_method            'Materials Studio'
_symmetry_space_group_name_H-M    'P1'
_symmetry_Int_Tables_number       1
_symmetry_cell_setting            triclinic
loop_
_symmetry_equiv_pos_as_xyz
  x,y,z
_cell_length_a                    22.2284
_cell_length_b                    22.2284
_cell_length_c                    12.3012
_cell_angle_alpha                 90.0000
_cell_angle_beta                  90.0000
_cell_angle_gamma                 90.0000
loop_
_atom_site_label
_atom_site_type_symbol
_atom_site_fract_x
_atom_site_fract_y
_atom_site_fract_z
_atom_site_U_iso_or_equiv
_atom_site_adp_type
_atom_site_occupancy
C1     C     0.34943   0.50273   0.48204   0.00000  Uiso   1.00
C2     C     0.35492   0.53058   0.59490   0.00000  Uiso   1.00
C3     C     0.40540   0.52825   0.66114   0.00000  Uiso   1.00
C4     C     0.40141   0.55652   0.76153   0.00000  Uiso   1.00
C5     C     0.41792   0.59525   0.93179   0.00000  Uiso   1.00
C6     C     0.29512   0.46090   0.48676   0.00000  Uiso   1.00
C7     C     0.29533   0.39997   0.46207   0.00000  Uiso   1.00
C8     C     0.24101   0.36958   0.47142   0.00000  Uiso   1.00
C9     C     0.16468   0.30013   0.47373   0.00000  Uiso   1.00
C10    C     0.33188   0.55395   0.40592   0.00000  Uiso   1.00
C11    C     0.36299   0.57126   0.31324   0.00000  Uiso   1.00
C12    C     0.33960   0.61921   0.25451   0.00000  Uiso   1.00
C13    C     0.32035   0.69424   0.13129   0.00000  Uiso   1.00
C14    C     0.25258   0.55708   0.54253   0.00000  Uiso   1.00
C15    C     0.30231   0.56010   0.62775   0.00000  Uiso   1.00
C16    C     0.29825   0.58838   0.72806   0.00000  Uiso   1.00
C17    C     0.34872   0.58609   0.79444   0.00000  Uiso   1.00
C18    C     0.24252   0.49041   0.51962   0.00000  Uiso   1.00
C19    C     0.18818   0.46010   0.52900   0.00000  Uiso   1.00
C20    C     0.18831   0.39915   0.50434   0.00000  Uiso   1.00
C21    C     0.27928   0.58347   0.43878   0.00000  Uiso   1.00
C22    C     0.25584   0.63139   0.38017   0.00000  Uiso   1.00
C23    C     0.28690   0.64878   0.28742   0.00000  Uiso   1.00
H24    H     0.39038   0.47975   0.45646   0.00000  Uiso   1.00
H25    H     0.44610   0.50540   0.63569   0.00000  Uiso   1.00
H26    H     0.33605   0.37714   0.43664   0.00000  Uiso   1.00
H27    H     0.40369   0.54841   0.28784   0.00000  Uiso   1.00
H28    H     0.48466   0.54684   0.84889   0.00000  Uiso   1.00
H29    H     0.25261   0.27641   0.42916   0.00000  Uiso   1.00
H30    H     0.39526   0.63755   0.11538   0.00000  Uiso   1.00
H31    H     0.21162   0.58006   0.56811   0.00000  Uiso   1.00
H32    H     0.25753   0.61122   0.75347   0.00000  Uiso   1.00
H33    H     0.14748   0.48296   0.55442   0.00000  Uiso   1.00
H34    H     0.21513   0.65423   0.40562   0.00000  Uiso   1.00
H35    H     0.33162   0.63272   0.94450   0.00000  Uiso   1.00
H36    H     0.09956   0.36229   0.52475   0.00000  Uiso   1.00
H37    H     0.24221   0.72344   0.21098   0.00000  Uiso   1.00
O38    O     0.44156   0.60845   0.01663   0.00000  Uiso   1.00
O39    O     0.13711   0.25366   0.46593   0.00000  Uiso   1.00
O40    O     0.32426   0.72748   0.05426   0.00000  Uiso   1.00
N41    N     0.44235   0.56278   0.84595   0.00000  Uiso   1.00
N42    N     0.22540   0.30995   0.45354   0.00000  Uiso   1.00
N43    N     0.35875   0.64758   0.16016   0.00000  Uiso   1.00
N44    N     0.35999   0.60900   0.89739   0.00000  Uiso   1.00
N45    N     0.14304   0.35616   0.50498   0.00000  Uiso   1.00
N46    N     0.27639   0.69379   0.21160   0.00000  Uiso   1.00
C47    C     0.65057   0.49727   0.48204   0.00000  Uiso   1.00
C48    C     0.64508   0.46942   0.59490   0.00000  Uiso   1.00
C49    C     0.59460   0.47175   0.66114   0.00000  Uiso   1.00
C50    C     0.59859   0.44348   0.76153   0.00000  Uiso   1.00
C51    C     0.58208   0.40475   0.93179   0.00000  Uiso   1.00
C52    C     0.70488   0.53910   0.48676   0.00000  Uiso   1.00
C53    C     0.70467   0.60003   0.46207   0.00000  Uiso   1.00
C54    C     0.75899   0.63042   0.47142   0.00000  Uiso   1.00
C55    C     0.83532   0.69987   0.47373   0.00000  Uiso   1.00
C56    C     0.66812   0.44605   0.40592   0.00000  Uiso   1.00
C57    C     0.63701   0.42874   0.31324   0.00000  Uiso   1.00
C58    C     0.66040   0.38079   0.25451   0.00000  Uiso   1.00
C59    C     0.67965   0.30576   0.13129   0.00000  Uiso   1.00
C60    C     0.74742   0.44292   0.54253   0.00000  Uiso   1.00
C61    C     0.69769   0.43990   0.62775   0.00000  Uiso   1.00
C62    C     0.70175   0.41162   0.72806   0.00000  Uiso   1.00
C63    C     0.65128   0.41391   0.79444   0.00000  Uiso   1.00
C64    C     0.75748   0.50959   0.51962   0.00000  Uiso   1.00
C65    C     0.81182   0.53990   0.52900   0.00000  Uiso   1.00
C66    C     0.81169   0.60085   0.50434   0.00000  Uiso   1.00
C67    C     0.72072   0.41653   0.43878   0.00000  Uiso   1.00
C68    C     0.74416   0.36861   0.38017   0.00000  Uiso   1.00
C69    C     0.71310   0.35122   0.28742   0.00000  Uiso   1.00
H70    H     0.60962   0.52025   0.45646   0.00000  Uiso   1.00
H71    H     0.55390   0.49460   0.63569   0.00000  Uiso   1.00
H72    H     0.66395   0.62286   0.43664   0.00000  Uiso   1.00
H73    H     0.59631   0.45159   0.28784   0.00000  Uiso   1.00
H74    H     0.51534   0.45316   0.84889   0.00000  Uiso   1.00
H75    H     0.74739   0.72359   0.42916   0.00000  Uiso   1.00
H76    H     0.60474   0.36245   0.11538   0.00000  Uiso   1.00
H77    H     0.78838   0.41994   0.56811   0.00000  Uiso   1.00
H78    H     0.74247   0.38878   0.75347   0.00000  Uiso   1.00
H79    H     0.85252   0.51704   0.55442   0.00000  Uiso   1.00
H80    H     0.78487   0.34577   0.40562   0.00000  Uiso   1.00
H81    H     0.66838   0.36728   0.94450   0.00000  Uiso   1.00
H82    H     0.90044   0.63771   0.52475   0.00000  Uiso   1.00
H83    H     0.75779   0.27656   0.21098   0.00000  Uiso   1.00
O84    O     0.55844   0.39155   0.01663   0.00000  Uiso   1.00
O85    O     0.86289   0.74634   0.46593   0.00000  Uiso   1.00
O86    O     0.67574   0.27252   0.05426   0.00000  Uiso   1.00
N87    N     0.55765   0.43722   0.84595   0.00000  Uiso   1.00
N88    N     0.77460   0.69005   0.45354   0.00000  Uiso   1.00
N89    N     0.64125   0.35242   0.16016   0.00000  Uiso   1.00
N90    N     0.64001   0.39100   0.89739   0.00000  Uiso   1.00
N91    N     0.85696   0.64384   0.50498   0.00000  Uiso   1.00
N92    N     0.72361   0.30621   0.21160   0.00000  Uiso   1.00
C93    C     0.99727   0.84943   0.98204   0.00000  Uiso   1.00
C94    C     0.96942   0.85492   0.09490   0.00000  Uiso   1.00
C95    C     0.97175   0.90540   0.16114   0.00000  Uiso   1.00
C96    C     0.94348   0.90141   0.26153   0.00000  Uiso   1.00
C97    C     0.90475   0.91792   0.43179   0.00000  Uiso   1.00
C98    C     0.03910   0.79512   0.98676   0.00000  Uiso   1.00
C99    C     0.10003   0.79533   0.96207   0.00000  Uiso   1.00
C100   C     0.13042   0.74101   0.97142   0.00000  Uiso   1.00
C101   C     0.19987   0.66468   0.97373   0.00000  Uiso   1.00
C102   C     0.94605   0.83188   0.90592   0.00000  Uiso   1.00
C103   C     0.92874   0.86299   0.81324   0.00000  Uiso   1.00
C104   C     0.88079   0.83960   0.75451   0.00000  Uiso   1.00
C105   C     0.80576   0.82035   0.63129   0.00000  Uiso   1.00
C106   C     0.94292   0.75258   0.04253   0.00000  Uiso   1.00
C107   C     0.93990   0.80231   0.12775   0.00000  Uiso   1.00
C108   C     0.91162   0.79825   0.22806   0.00000  Uiso   1.00
C109   C     0.91391   0.84872   0.29444   0.00000  Uiso   1.00
C110   C     0.00959   0.74252   0.01962   0.00000  Uiso   1.00
C111   C     0.03990   0.68818   0.02900   0.00000  Uiso   1.00
C112   C     0.10085   0.68831   0.00434   0.00000  Uiso   1.00
C113   C     0.91653   0.77928   0.93878   0.00000  Uiso   1.00
C114   C     0.86861   0.75584   0.88017   0.00000  Uiso   1.00
C115   C     0.85122   0.78690   0.78742   0.00000  Uiso   1.00
H116   H     0.02025   0.89038   0.95646   0.00000  Uiso   1.00
H117   H     0.99460   0.94610   0.13569   0.00000  Uiso   1.00
H118   H     0.12286   0.83605   0.93664   0.00000  Uiso   1.00
H119   H     0.95159   0.90369   0.78784   0.00000  Uiso   1.00
H120   H     0.95316   0.98466   0.34889   0.00000  Uiso   1.00
H121   H     0.22359   0.75261   0.92916   0.00000  Uiso   1.00
H122   H     0.86245   0.89526   0.61538   0.00000  Uiso   1.00
H123   H     0.91994   0.71162   0.06811   0.00000  Uiso   1.00
H124   H     0.88878   0.75753   0.25347   0.00000  Uiso   1.00
H125   H     0.01704   0.64748   0.05442   0.00000  Uiso   1.00
H126   H     0.84577   0.71513   0.90562   0.00000  Uiso   1.00
H127   H     0.86728   0.83162   0.44450   0.00000  Uiso   1.00
H128   H     0.13771   0.59956   0.02475   0.00000  Uiso   1.00
H129   H     0.77656   0.74221   0.71098   0.00000  Uiso   1.00
O130   O     0.89155   0.94156   0.51663   0.00000  Uiso   1.00
O131   O     0.24634   0.63711   0.96593   0.00000  Uiso   1.00
O132   O     0.77252   0.82426   0.55426   0.00000  Uiso   1.00
N133   N     0.93722   0.94235   0.34595   0.00000  Uiso   1.00
N134   N     0.19005   0.72540   0.95354   0.00000  Uiso   1.00
N135   N     0.85242   0.85875   0.66016   0.00000  Uiso   1.00
N136   N     0.89100   0.85999   0.39739   0.00000  Uiso   1.00
N137   N     0.14384   0.64304   0.00498   0.00000  Uiso   1.00
N138   N     0.80621   0.77639   0.71160   0.00000  Uiso   1.00
C139   C     0.00273   0.15057   0.98204   0.00000  Uiso   1.00
C140   C     0.03058   0.14508   0.09490   0.00000  Uiso   1.00
C141   C     0.02825   0.09460   0.16114   0.00000  Uiso   1.00
C142   C     0.05652   0.09859   0.26153   0.00000  Uiso   1.00
C143   C     0.09525   0.08208   0.43179   0.00000  Uiso   1.00
C144   C     0.96090   0.20488   0.98676   0.00000  Uiso   1.00
C145   C     0.89997   0.20467   0.96207   0.00000  Uiso   1.00
C146   C     0.86958   0.25899   0.97142   0.00000  Uiso   1.00
C147   C     0.80013   0.33532   0.97373   0.00000  Uiso   1.00
C148   C     0.05395   0.16812   0.90592   0.00000  Uiso   1.00
C149   C     0.07126   0.13701   0.81324   0.00000  Uiso   1.00
C150   C     0.11921   0.16040   0.75451   0.00000  Uiso   1.00
C151   C     0.19424   0.17965   0.63129   0.00000  Uiso   1.00
C152   C     0.05708   0.24742   0.04253   0.00000  Uiso   1.00
C153   C     0.06010   0.19769   0.12775   0.00000  Uiso   1.00
C154   C     0.08838   0.20175   0.22806   0.00000  Uiso   1.00
C155   C     0.08609   0.15128   0.29444   0.00000  Uiso   1.00
C156   C     0.99041   0.25748   0.01962   0.00000  Uiso   1.00
C157   C     0.96010   0.31182   0.02900   0.00000  Uiso   1.00
C158   C     0.89915   0.31169   0.00434   0.00000  Uiso   1.00
C159   C     0.08347   0.22072   0.93878   0.00000  Uiso   1.00
C160   C     0.13139   0.24416   0.88017   0.00000  Uiso   1.00
C161   C     0.14878   0.21310   0.78742   0.00000  Uiso   1.00
H162   H     0.97975   0.10962   0.95646   0.00000  Uiso   1.00
H163   H     0.00540   0.05390   0.13569   0.00000  Uiso   1.00
H164   H     0.87714   0.16395   0.93664   0.00000  Uiso   1.00
H165   H     0.04841   0.09631   0.78784   0.00000  Uiso   1.00
H166   H     0.04684   0.01534   0.34889   0.00000  Uiso   1.00
H167   H     0.77641   0.24739   0.92916   0.00000  Uiso   1.00
H168   H     0.13755   0.10474   0.61538   0.00000  Uiso   1.00
H169   H     0.08006   0.28838   0.06811   0.00000  Uiso   1.00
H170   H     0.11122   0.24247   0.25347   0.00000  Uiso   1.00
H171   H     0.98296   0.35252   0.05442   0.00000  Uiso   1.00
H172   H     0.15423   0.28487   0.90562   0.00000  Uiso   1.00
H173   H     0.13272   0.16838   0.44450   0.00000  Uiso   1.00
H174   H     0.86229   0.40044   0.02475   0.00000  Uiso   1.00
H175   H     0.22344   0.25779   0.71098   0.00000  Uiso   1.00
O176   O     0.10845   0.05844   0.51663   0.00000  Uiso   1.00
O177   O     0.75366   0.36289   0.96593   0.00000  Uiso   1.00
O178   O     0.22748   0.17574   0.55426   0.00000  Uiso   1.00
N179   N     0.06278   0.05765   0.34595   0.00000  Uiso   1.00
N180   N     0.80995   0.27460   0.95354   0.00000  Uiso   1.00
N181   N     0.14758   0.14125   0.66016   0.00000  Uiso   1.00
N182   N     0.10900   0.14001   0.39739   0.00000  Uiso   1.00
N183   N     0.85616   0.35696   0.00498   0.00000  Uiso   1.00
N184   N     0.19379   0.22361   0.71160   0.00000  Uiso   1.00
C185   C     0.15057   0.99727   0.01796   0.00000  Uiso   1.00
C186   C     0.14508   0.96942   0.90510   0.00000  Uiso   1.00
C187   C     0.09460   0.97175   0.83886   0.00000  Uiso   1.00
C188   C     0.09859   0.94348   0.73847   0.00000  Uiso   1.00
C189   C     0.08208   0.90475   0.56821   0.00000  Uiso   1.00
C190   C     0.20488   0.03910   0.01324   0.00000  Uiso   1.00
C191   C     0.20467   0.10003   0.03793   0.00000  Uiso   1.00
C192   C     0.25899   0.13042   0.02858   0.00000  Uiso   1.00
C193   C     0.33532   0.19987   0.02627   0.00000  Uiso   1.00
C194   C     0.16812   0.94605   0.09408   0.00000  Uiso   1.00
C195   C     0.13701   0.92874   0.18676   0.00000  Uiso   1.00
C196   C     0.16040   0.88079   0.24549   0.00000  Uiso   1.00
C197   C     0.17965   0.80576   0.36871   0.00000  Uiso   1.00
C198   C     0.24742   0.94292   0.95747   0.00000  Uiso   1.00
C199   C     0.19769   0.93990   0.87225   0.00000  Uiso   1.00
C200   C     0.20175   0.91162   0.77194   0.00000  Uiso   1.00
C201   C     0.15128   0.91391   0.70556   0.00000  Uiso   1.00
C202   C     0.25748   0.00959   0.98038   0.00000  Uiso   1.00
C203   C     0.31182   0.03990   0.97100   0.00000  Uiso   1.00
C204   C     0.31169   0.10085   0.99566   0.00000  Uiso   1.00
C205   C     0.22072   0.91653   0.06122   0.00000  Uiso   1.00
C206   C     0.24416   0.86861   0.11983   0.00000  Uiso   1.00
C207   C     0.21310   0.85122   0.21258   0.00000  Uiso   1.00
H208   H     0.10962   0.02025   0.04354   0.00000  Uiso   1.00
H209   H     0.05390   0.99460   0.86431   0.00000  Uiso   1.00
H210   H     0.16395   0.12286   0.06336   0.00000  Uiso   1.00
H211   H     0.09631   0.95159   0.21216   0.00000  Uiso   1.00
H212   H     0.01534   0.95316   0.65111   0.00000  Uiso   1.00
H213   H     0.24739   0.22359   0.07084   0.00000  Uiso   1.00
H214   H     0.10474   0.86245   0.38462   0.00000  Uiso   1.00
H215   H     0.28838   0.91994   0.93189   0.00000  Uiso   1.00
H216   H     0.24247   0.88878   0.74653   0.00000  Uiso   1.00
H217   H     0.35252   0.01704   0.94558   0.00000  Uiso   1.00
H218   H     0.28487   0.84577   0.09438   0.00000  Uiso   1.00
H219   H     0.16838   0.86728   0.55550   0.00000  Uiso   1.00
H220   H     0.40044   0.13771   0.97525   0.00000  Uiso   1.00
H221   H     0.25779   0.77656   0.28902   0.00000  Uiso   1.00
O222   O     0.05844   0.89155   0.48337   0.00000  Uiso   1.00
O223   O     0.36289   0.24634   0.03407   0.00000  Uiso   1.00
O224   O     0.17574   0.77252   0.44574   0.00000  Uiso   1.00
N225   N     0.05765   0.93722   0.65405   0.00000  Uiso   1.00
N226   N     0.27460   0.19005   0.04646   0.00000  Uiso   1.00
N227   N     0.14125   0.85242   0.33984   0.00000  Uiso   1.00
N228   N     0.14001   0.89100   0.60261   0.00000  Uiso   1.00
N229   N     0.35696   0.14384   0.99502   0.00000  Uiso   1.00
N230   N     0.22361   0.80621   0.28840   0.00000  Uiso   1.00
C231   C     0.84943   0.00273   0.01796   0.00000  Uiso   1.00
C232   C     0.85492   0.03058   0.90510   0.00000  Uiso   1.00
C233   C     0.90540   0.02825   0.83886   0.00000  Uiso   1.00
C234   C     0.90141   0.05652   0.73847   0.00000  Uiso   1.00
C235   C     0.91792   0.09525   0.56821   0.00000  Uiso   1.00
C236   C     0.79512   0.96090   0.01324   0.00000  Uiso   1.00
C237   C     0.79533   0.89997   0.03793   0.00000  Uiso   1.00
C238   C     0.74101   0.86958   0.02858   0.00000  Uiso   1.00
C239   C     0.66468   0.80013   0.02627   0.00000  Uiso   1.00
C240   C     0.83188   0.05395   0.09408   0.00000  Uiso   1.00
C241   C     0.86299   0.07126   0.18676   0.00000  Uiso   1.00
C242   C     0.83960   0.11921   0.24549   0.00000  Uiso   1.00
C243   C     0.82035   0.19424   0.36871   0.00000  Uiso   1.00
C244   C     0.75258   0.05708   0.95747   0.00000  Uiso   1.00
C245   C     0.80231   0.06010   0.87225   0.00000  Uiso   1.00
C246   C     0.79825   0.08838   0.77194   0.00000  Uiso   1.00
C247   C     0.84872   0.08609   0.70556   0.00000  Uiso   1.00
C248   C     0.74252   0.99041   0.98038   0.00000  Uiso   1.00
C249   C     0.68818   0.96010   0.97100   0.00000  Uiso   1.00
C250   C     0.68831   0.89915   0.99566   0.00000  Uiso   1.00
C251   C     0.77928   0.08347   0.06122   0.00000  Uiso   1.00
C252   C     0.75584   0.13139   0.11983   0.00000  Uiso   1.00
C253   C     0.78690   0.14878   0.21258   0.00000  Uiso   1.00
H254   H     0.89038   0.97975   0.04354   0.00000  Uiso   1.00
H255   H     0.94610   0.00540   0.86431   0.00000  Uiso   1.00
H256   H     0.83605   0.87714   0.06336   0.00000  Uiso   1.00
H257   H     0.90369   0.04841   0.21216   0.00000  Uiso   1.00
H258   H     0.98466   0.04684   0.65111   0.00000  Uiso   1.00
H259   H     0.75261   0.77641   0.07084   0.00000  Uiso   1.00
H260   H     0.89526   0.13755   0.38462   0.00000  Uiso   1.00
H261   H     0.71162   0.08006   0.93189   0.00000  Uiso   1.00
H262   H     0.75753   0.11122   0.74653   0.00000  Uiso   1.00
H263   H     0.64748   0.98296   0.94558   0.00000  Uiso   1.00
H264   H     0.71513   0.15423   0.09438   0.00000  Uiso   1.00
H265   H     0.83162   0.13272   0.55550   0.00000  Uiso   1.00
H266   H     0.59956   0.86229   0.97525   0.00000  Uiso   1.00
H267   H     0.74221   0.22344   0.28902   0.00000  Uiso   1.00
O268   O     0.94156   0.10845   0.48337   0.00000  Uiso   1.00
O269   O     0.63711   0.75366   0.03407   0.00000  Uiso   1.00
O270   O     0.82426   0.22748   0.44574   0.00000  Uiso   1.00
N271   N     0.94235   0.06278   0.65405   0.00000  Uiso   1.00
N272   N     0.72540   0.80995   0.04646   0.00000  Uiso   1.00
N273   N     0.85875   0.14758   0.33984   0.00000  Uiso   1.00
N274   N     0.85999   0.10900   0.60261   0.00000  Uiso   1.00
N275   N     0.64304   0.85616   0.99502   0.00000  Uiso   1.00
N276   N     0.77639   0.19379   0.28840   0.00000  Uiso   1.00
C277   C     0.50273   0.65057   0.51796   0.00000  Uiso   1.00
C278   C     0.53058   0.64508   0.40510   0.00000  Uiso   1.00
C279   C     0.52825   0.59460   0.33886   0.00000  Uiso   1.00
C280   C     0.55652   0.59859   0.23847   0.00000  Uiso   1.00
C281   C     0.59525   0.58208   0.06821   0.00000  Uiso   1.00
C282   C     0.46090   0.70488   0.51324   0.00000  Uiso   1.00
C283   C     0.39997   0.70467   0.53793   0.00000  Uiso   1.00
C284   C     0.36958   0.75899   0.52858   0.00000  Uiso   1.00
C285   C     0.30013   0.83532   0.52627   0.00000  Uiso   1.00
C286   C     0.55395   0.66812   0.59408   0.00000  Uiso   1.00
C287   C     0.57126   0.63701   0.68676   0.00000  Uiso   1.00
C288   C     0.61921   0.66040   0.74549   0.00000  Uiso   1.00
C289   C     0.69424   0.67965   0.86871   0.00000  Uiso   1.00
C290   C     0.55708   0.74742   0.45747   0.00000  Uiso   1.00
C291   C     0.56010   0.69769   0.37225   0.00000  Uiso   1.00
C292   C     0.58838   0.70175   0.27194   0.00000  Uiso   1.00
C293   C     0.58609   0.65128   0.20556   0.00000  Uiso   1.00
C294   C     0.49041   0.75748   0.48038   0.00000  Uiso   1.00
C295   C     0.46010   0.81182   0.47100   0.00000  Uiso   1.00
C296   C     0.39915   0.81169   0.49566   0.00000  Uiso   1.00
C297   C     0.58347   0.72072   0.56122   0.00000  Uiso   1.00
C298   C     0.63139   0.74416   0.61983   0.00000  Uiso   1.00
C299   C     0.64878   0.71310   0.71258   0.00000  Uiso   1.00
H300   H     0.47975   0.60962   0.54354   0.00000  Uiso   1.00
H301   H     0.50540   0.55390   0.36431   0.00000  Uiso   1.00
H302   H     0.37714   0.66395   0.56336   0.00000  Uiso   1.00
H303   H     0.54841   0.59631   0.71216   0.00000  Uiso   1.00
H304   H     0.54684   0.51534   0.15111   0.00000  Uiso   1.00
H305   H     0.27641   0.74739   0.57084   0.00000  Uiso   1.00
H306   H     0.63755   0.60474   0.88462   0.00000  Uiso   1.00
H307   H     0.58006   0.78838   0.43189   0.00000  Uiso   1.00
H308   H     0.61122   0.74247   0.24653   0.00000  Uiso   1.00
H309   H     0.48296   0.85252   0.44558   0.00000  Uiso   1.00
H310   H     0.65423   0.78487   0.59438   0.00000  Uiso   1.00
H311   H     0.63272   0.66838   0.05550   0.00000  Uiso   1.00
H312   H     0.36229   0.90044   0.47525   0.00000  Uiso   1.00
H313   H     0.72344   0.75779   0.78902   0.00000  Uiso   1.00
O314   O     0.60845   0.55844   0.98337   0.00000  Uiso   1.00
O315   O     0.25366   0.86289   0.53407   0.00000  Uiso   1.00
O316   O     0.72748   0.67574   0.94574   0.00000  Uiso   1.00
N317   N     0.56278   0.55765   0.15405   0.00000  Uiso   1.00
N318   N     0.30995   0.77460   0.54646   0.00000  Uiso   1.00
N319   N     0.64758   0.64125   0.83984   0.00000  Uiso   1.00
N320   N     0.60900   0.64001   0.10261   0.00000  Uiso   1.00
N321   N     0.35616   0.85696   0.49502   0.00000  Uiso   1.00
N322   N     0.69379   0.72361   0.78840   0.00000  Uiso   1.00
C323   C     0.49727   0.34943   0.51796   0.00000  Uiso   1.00
C324   C     0.46942   0.35492   0.40510   0.00000  Uiso   1.00
C325   C     0.47175   0.40540   0.33886   0.00000  Uiso   1.00
C326   C     0.44348   0.40141   0.23847   0.00000  Uiso   1.00
C327   C     0.40475   0.41792   0.06821   0.00000  Uiso   1.00
C328   C     0.53910   0.29512   0.51324   0.00000  Uiso   1.00
C329   C     0.60003   0.29533   0.53793   0.00000  Uiso   1.00
C330   C     0.63042   0.24101   0.52858   0.00000  Uiso   1.00
C331   C     0.69987   0.16468   0.52627   0.00000  Uiso   1.00
C332   C     0.44605   0.33188   0.59408   0.00000  Uiso   1.00
C333   C     0.42874   0.36299   0.68676   0.00000  Uiso   1.00
C334   C     0.38079   0.33960   0.74549   0.00000  Uiso   1.00
C335   C     0.30576   0.32035   0.86871   0.00000  Uiso   1.00
C336   C     0.44292   0.25258   0.45747   0.00000  Uiso   1.00
C337   C     0.43990   0.30231   0.37225   0.00000  Uiso   1.00
C338   C     0.41162   0.29825   0.27194   0.00000  Uiso   1.00
C339   C     0.41391   0.34872   0.20556   0.00000  Uiso   1.00
C340   C     0.50959   0.24252   0.48038   0.00000  Uiso   1.00
C341   C     0.53990   0.18818   0.47100   0.00000  Uiso   1.00
C342   C     0.60085   0.18831   0.49566   0.00000  Uiso   1.00
C343   C     0.41653   0.27928   0.56122   0.00000  Uiso   1.00
C344   C     0.36861   0.25584   0.61983   0.00000  Uiso   1.00
C345   C     0.35122   0.28690   0.71258   0.00000  Uiso   1.00
H346   H     0.52025   0.39038   0.54354   0.00000  Uiso   1.00
H347   H     0.49460   0.44610   0.36431   0.00000  Uiso   1.00
H348   H     0.62286   0.33605   0.56336   0.00000  Uiso   1.00
H349   H     0.45159   0.40369   0.71216   0.00000  Uiso   1.00
H350   H     0.45316   0.48466   0.15111   0.00000  Uiso   1.00
H351   H     0.72359   0.25261   0.57084   0.00000  Uiso   1.00
H352   H     0.36245   0.39526   0.88462   0.00000  Uiso   1.00
H353   H     0.41994   0.21162   0.43189   0.00000  Uiso   1.00
H354   H     0.38878   0.25753   0.24653   0.00000  Uiso   1.00
H355   H     0.51704   0.14748   0.44558   0.00000  Uiso   1.00
H356   H     0.34577   0.21513   0.59438   0.00000  Uiso   1.00
H357   H     0.36728   0.33162   0.05550   0.00000  Uiso   1.00
H358   H     0.63771   0.09956   0.47525   0.00000  Uiso   1.00
H359   H     0.27656   0.24221   0.78902   0.00000  Uiso   1.00
O360   O     0.39155   0.44156   0.98337   0.00000  Uiso   1.00
O361   O     0.74634   0.13711   0.53407   0.00000  Uiso   1.00
O362   O     0.27252   0.32426   0.94574   0.00000  Uiso   1.00
N363   N     0.43722   0.44235   0.15405   0.00000  Uiso   1.00
N364   N     0.69005   0.22540   0.54646   0.00000  Uiso   1.00
N365   N     0.35242   0.35875   0.83984   0.00000  Uiso   1.00
N366   N     0.39100   0.35999   0.10261   0.00000  Uiso   1.00
N367   N     0.64384   0.14304   0.49502   0.00000  Uiso   1.00
N368   N     0.30621   0.27639   0.78840   0.00000  Uiso   1.00
