data_job_02983
_audit_creation_date              2018-12-19
_audit_creation_method            'Materials Studio'
_symmetry_space_group_name_H-M    'P1'
_symmetry_Int_Tables_number       1
_symmetry_cell_setting            triclinic
loop_
_symmetry_equiv_pos_as_xyz
  x,y,z
_cell_length_a                    32.9851
_cell_length_b                    42.0272
_cell_length_c                    7.1247
_cell_angle_alpha                 90.0000
_cell_angle_beta                  90.0000
_cell_angle_gamma                 90.0000
loop_
_atom_site_label
_atom_site_type_symbol
_atom_site_fract_x
_atom_site_fract_y
_atom_site_fract_z
_atom_site_U_iso_or_equiv
_atom_site_adp_type
_atom_site_occupancy
C1     C     0.19480   0.66034   0.20091   0.00000  Uiso   1.00
C2     C     0.15585   0.66740   0.30839   0.00000  Uiso   1.00
C3     C     0.11931   0.67685   0.22952   0.00000  Uiso   1.00
C4     C     0.08723   0.68215   0.35174   0.00000  Uiso   1.00
C5     C     0.02609   0.69374   0.48912   0.00000  Uiso   1.00
C6     C     0.22714   0.68203   0.28474   0.00000  Uiso   1.00
C7     C     0.25054   0.70377   0.18596   0.00000  Uiso   1.00
C8     C     0.27847   0.72138   0.28827   0.00000  Uiso   1.00
C9     C     0.32803   0.75566   0.38890   0.00000  Uiso   1.00
C10    C     0.20690   0.62652   0.25447   0.00000  Uiso   1.00
C11    C     0.21330   0.60158   0.13024   0.00000  Uiso   1.00
C12    C     0.22421   0.57245   0.20707   0.00000  Uiso   1.00
C13    C     0.24234   0.52055   0.26070   0.00000  Uiso   1.00
C14    C     0.20280   0.65294   0.55824   0.00000  Uiso   1.00
C15    C     0.16019   0.66339   0.50249   0.00000  Uiso   1.00
C16    C     0.12816   0.66867   0.62486   0.00000  Uiso   1.00
C17    C     0.09158   0.67812   0.54618   0.00000  Uiso   1.00
C18    C     0.23148   0.67801   0.47882   0.00000  Uiso   1.00
C19    C     0.25939   0.69559   0.58130   0.00000  Uiso   1.00
C20    C     0.28282   0.71735   0.48271   0.00000  Uiso   1.00
C21    C     0.21124   0.62250   0.44856   0.00000  Uiso   1.00
C22    C     0.22215   0.59340   0.52559   0.00000  Uiso   1.00
C23    C     0.22856   0.56843   0.40150   0.00000  Uiso   1.00
H24    H     0.19142   0.66346   0.04980   0.00000  Uiso   1.00
H25    H     0.11596   0.67996   0.07930   0.00000  Uiso   1.00
H26    H     0.24717   0.70687   0.03576   0.00000  Uiso   1.00
H27    H     0.20994   0.60470   0.98005   0.00000  Uiso   1.00
H28    H     0.03422   0.69648   0.19761   0.00000  Uiso   1.00
H29    H     0.31090   0.75322   0.10578   0.00000  Uiso   1.00
H30    H     0.23238   0.53777   0.98831   0.00000  Uiso   1.00
H31    H     0.20618   0.64982   0.70935   0.00000  Uiso   1.00
H32    H     0.13153   0.66556   0.77505   0.00000  Uiso   1.00
H33    H     0.26274   0.69247   0.73150   0.00000  Uiso   1.00
H34    H     0.22550   0.59030   0.67579   0.00000  Uiso   1.00
H35    H     0.04686   0.68480   0.76231   0.00000  Uiso   1.00
H36    H     0.32354   0.74154   0.67047   0.00000  Uiso   1.00
H37    H     0.24501   0.52609   0.55300   0.00000  Uiso   1.00
O38    O     0.99117   0.70125   0.51128   0.00000  Uiso   1.00
O39    O     0.35416   0.77569   0.39079   0.00000  Uiso   1.00
O40    O     0.25114   0.49303   0.23667   0.00000  Uiso   1.00
N41    N     0.04744   0.69156   0.32150   0.00000  Uiso   1.00
N42    N     0.30611   0.74462   0.23564   0.00000  Uiso   1.00
N43    N     0.23271   0.54320   0.12581   0.00000  Uiso   1.00
N44    N     0.05424   0.68528   0.62535   0.00000  Uiso   1.00
N45    N     0.31291   0.73833   0.53949   0.00000  Uiso   1.00
N46    N     0.23951   0.53691   0.42967   0.00000  Uiso   1.00
C47    C     0.69480   0.16034   0.20091   0.00000  Uiso   1.00
C48    C     0.65585   0.16740   0.30839   0.00000  Uiso   1.00
C49    C     0.61931   0.17685   0.22952   0.00000  Uiso   1.00
C50    C     0.58723   0.18215   0.35174   0.00000  Uiso   1.00
C51    C     0.52609   0.19374   0.48912   0.00000  Uiso   1.00
C52    C     0.72714   0.18203   0.28474   0.00000  Uiso   1.00
C53    C     0.75054   0.20377   0.18596   0.00000  Uiso   1.00
C54    C     0.77847   0.22138   0.28827   0.00000  Uiso   1.00
C55    C     0.82803   0.25566   0.38890   0.00000  Uiso   1.00
C56    C     0.70690   0.12652   0.25447   0.00000  Uiso   1.00
C57    C     0.71330   0.10158   0.13024   0.00000  Uiso   1.00
C58    C     0.72421   0.07245   0.20707   0.00000  Uiso   1.00
C59    C     0.74234   0.02055   0.26070   0.00000  Uiso   1.00
C60    C     0.70280   0.15294   0.55824   0.00000  Uiso   1.00
C61    C     0.66019   0.16339   0.50249   0.00000  Uiso   1.00
C62    C     0.62816   0.16867   0.62486   0.00000  Uiso   1.00
C63    C     0.59158   0.17812   0.54618   0.00000  Uiso   1.00
C64    C     0.73148   0.17801   0.47882   0.00000  Uiso   1.00
C65    C     0.75939   0.19559   0.58130   0.00000  Uiso   1.00
C66    C     0.78282   0.21735   0.48271   0.00000  Uiso   1.00
C67    C     0.71124   0.12250   0.44856   0.00000  Uiso   1.00
C68    C     0.72215   0.09340   0.52559   0.00000  Uiso   1.00
C69    C     0.72856   0.06843   0.40150   0.00000  Uiso   1.00
H70    H     0.69142   0.16346   0.04980   0.00000  Uiso   1.00
H71    H     0.61596   0.17996   0.07930   0.00000  Uiso   1.00
H72    H     0.74717   0.20687   0.03576   0.00000  Uiso   1.00
H73    H     0.70994   0.10470   0.98005   0.00000  Uiso   1.00
H74    H     0.53422   0.19648   0.19761   0.00000  Uiso   1.00
H75    H     0.81090   0.25322   0.10578   0.00000  Uiso   1.00
H76    H     0.73238   0.03777   0.98831   0.00000  Uiso   1.00
H77    H     0.70618   0.14982   0.70935   0.00000  Uiso   1.00
H78    H     0.63153   0.16556   0.77505   0.00000  Uiso   1.00
H79    H     0.76274   0.19247   0.73150   0.00000  Uiso   1.00
H80    H     0.72550   0.09030   0.67579   0.00000  Uiso   1.00
H81    H     0.54686   0.18480   0.76231   0.00000  Uiso   1.00
H82    H     0.82354   0.24154   0.67047   0.00000  Uiso   1.00
H83    H     0.74501   0.02609   0.55300   0.00000  Uiso   1.00
O84    O     0.49117   0.20125   0.51128   0.00000  Uiso   1.00
O85    O     0.85416   0.27569   0.39079   0.00000  Uiso   1.00
O86    O     0.75114   0.99303   0.23667   0.00000  Uiso   1.00
N87    N     0.54744   0.19156   0.32150   0.00000  Uiso   1.00
N88    N     0.80611   0.24462   0.23564   0.00000  Uiso   1.00
N89    N     0.73271   0.04320   0.12581   0.00000  Uiso   1.00
N90    N     0.55424   0.18528   0.62535   0.00000  Uiso   1.00
N91    N     0.81291   0.23833   0.53949   0.00000  Uiso   1.00
N92    N     0.73951   0.03691   0.42967   0.00000  Uiso   1.00
C93    C     0.80520   0.33966   0.70091   0.00000  Uiso   1.00
C94    C     0.84415   0.33260   0.80839   0.00000  Uiso   1.00
C95    C     0.88069   0.32315   0.72952   0.00000  Uiso   1.00
C96    C     0.91277   0.31785   0.85174   0.00000  Uiso   1.00
C97    C     0.97391   0.30626   0.98912   0.00000  Uiso   1.00
C98    C     0.77286   0.31797   0.78474   0.00000  Uiso   1.00
C99    C     0.74946   0.29623   0.68596   0.00000  Uiso   1.00
C100   C     0.72153   0.27862   0.78827   0.00000  Uiso   1.00
C101   C     0.67197   0.24434   0.88890   0.00000  Uiso   1.00
C102   C     0.79310   0.37348   0.75447   0.00000  Uiso   1.00
C103   C     0.78670   0.39842   0.63024   0.00000  Uiso   1.00
C104   C     0.77579   0.42755   0.70707   0.00000  Uiso   1.00
C105   C     0.75766   0.47945   0.76070   0.00000  Uiso   1.00
C106   C     0.79720   0.34706   0.05824   0.00000  Uiso   1.00
C107   C     0.83981   0.33661   0.00249   0.00000  Uiso   1.00
C108   C     0.87184   0.33133   0.12486   0.00000  Uiso   1.00
C109   C     0.90842   0.32188   0.04618   0.00000  Uiso   1.00
C110   C     0.76852   0.32199   0.97882   0.00000  Uiso   1.00
C111   C     0.74061   0.30441   0.08130   0.00000  Uiso   1.00
C112   C     0.71718   0.28265   0.98271   0.00000  Uiso   1.00
C113   C     0.78876   0.37750   0.94856   0.00000  Uiso   1.00
C114   C     0.77785   0.40660   0.02559   0.00000  Uiso   1.00
C115   C     0.77144   0.43157   0.90150   0.00000  Uiso   1.00
H116   H     0.80858   0.33654   0.54980   0.00000  Uiso   1.00
H117   H     0.88404   0.32004   0.57930   0.00000  Uiso   1.00
H118   H     0.75283   0.29313   0.53576   0.00000  Uiso   1.00
H119   H     0.79006   0.39530   0.48005   0.00000  Uiso   1.00
H120   H     0.96578   0.30352   0.69761   0.00000  Uiso   1.00
H121   H     0.68910   0.24678   0.60578   0.00000  Uiso   1.00
H122   H     0.76762   0.46223   0.48831   0.00000  Uiso   1.00
H123   H     0.79382   0.35018   0.20935   0.00000  Uiso   1.00
H124   H     0.86847   0.33444   0.27505   0.00000  Uiso   1.00
H125   H     0.73726   0.30753   0.23150   0.00000  Uiso   1.00
H126   H     0.77450   0.40970   0.17579   0.00000  Uiso   1.00
H127   H     0.95314   0.31520   0.26231   0.00000  Uiso   1.00
H128   H     0.67646   0.25846   0.17047   0.00000  Uiso   1.00
H129   H     0.75499   0.47391   0.05300   0.00000  Uiso   1.00
O130   O     0.00883   0.29875   0.01128   0.00000  Uiso   1.00
O131   O     0.64584   0.22431   0.89079   0.00000  Uiso   1.00
O132   O     0.74886   0.50697   0.73667   0.00000  Uiso   1.00
N133   N     0.95256   0.30844   0.82150   0.00000  Uiso   1.00
N134   N     0.69389   0.25538   0.73564   0.00000  Uiso   1.00
N135   N     0.76729   0.45680   0.62581   0.00000  Uiso   1.00
N136   N     0.94576   0.31472   0.12535   0.00000  Uiso   1.00
N137   N     0.68709   0.26167   0.03949   0.00000  Uiso   1.00
N138   N     0.76049   0.46309   0.92967   0.00000  Uiso   1.00
C139   C     0.30520   0.83966   0.70091   0.00000  Uiso   1.00
C140   C     0.34415   0.83260   0.80839   0.00000  Uiso   1.00
C141   C     0.38069   0.82315   0.72952   0.00000  Uiso   1.00
C142   C     0.41277   0.81785   0.85174   0.00000  Uiso   1.00
C143   C     0.47391   0.80626   0.98912   0.00000  Uiso   1.00
C144   C     0.27286   0.81797   0.78474   0.00000  Uiso   1.00
C145   C     0.24946   0.79623   0.68596   0.00000  Uiso   1.00
C146   C     0.22153   0.77862   0.78827   0.00000  Uiso   1.00
C147   C     0.17197   0.74434   0.88890   0.00000  Uiso   1.00
C148   C     0.29310   0.87348   0.75447   0.00000  Uiso   1.00
C149   C     0.28670   0.89842   0.63024   0.00000  Uiso   1.00
C150   C     0.27579   0.92755   0.70707   0.00000  Uiso   1.00
C151   C     0.25766   0.97945   0.76070   0.00000  Uiso   1.00
C152   C     0.29720   0.84706   0.05824   0.00000  Uiso   1.00
C153   C     0.33981   0.83661   0.00249   0.00000  Uiso   1.00
C154   C     0.37184   0.83133   0.12486   0.00000  Uiso   1.00
C155   C     0.40842   0.82188   0.04618   0.00000  Uiso   1.00
C156   C     0.26852   0.82199   0.97882   0.00000  Uiso   1.00
C157   C     0.24061   0.80441   0.08130   0.00000  Uiso   1.00
C158   C     0.21718   0.78265   0.98271   0.00000  Uiso   1.00
C159   C     0.28876   0.87750   0.94856   0.00000  Uiso   1.00
C160   C     0.27785   0.90660   0.02559   0.00000  Uiso   1.00
C161   C     0.27144   0.93157   0.90150   0.00000  Uiso   1.00
H162   H     0.30858   0.83654   0.54980   0.00000  Uiso   1.00
H163   H     0.38404   0.82004   0.57930   0.00000  Uiso   1.00
H164   H     0.25283   0.79313   0.53576   0.00000  Uiso   1.00
H165   H     0.29006   0.89530   0.48005   0.00000  Uiso   1.00
H166   H     0.46578   0.80352   0.69761   0.00000  Uiso   1.00
H167   H     0.18910   0.74678   0.60578   0.00000  Uiso   1.00
H168   H     0.26762   0.96223   0.48831   0.00000  Uiso   1.00
H169   H     0.29382   0.85018   0.20935   0.00000  Uiso   1.00
H170   H     0.36847   0.83444   0.27505   0.00000  Uiso   1.00
H171   H     0.23726   0.80753   0.23150   0.00000  Uiso   1.00
H172   H     0.27450   0.90970   0.17579   0.00000  Uiso   1.00
H173   H     0.45314   0.81520   0.26231   0.00000  Uiso   1.00
H174   H     0.17646   0.75846   0.17047   0.00000  Uiso   1.00
H175   H     0.25499   0.97391   0.05300   0.00000  Uiso   1.00
O176   O     0.50883   0.79875   0.01128   0.00000  Uiso   1.00
O177   O     0.14584   0.72431   0.89079   0.00000  Uiso   1.00
O178   O     0.24886   0.00697   0.73667   0.00000  Uiso   1.00
N179   N     0.45256   0.80844   0.82150   0.00000  Uiso   1.00
N180   N     0.19389   0.75538   0.73564   0.00000  Uiso   1.00
N181   N     0.26729   0.95680   0.62581   0.00000  Uiso   1.00
N182   N     0.44576   0.81472   0.12535   0.00000  Uiso   1.00
N183   N     0.18709   0.76167   0.03949   0.00000  Uiso   1.00
N184   N     0.26049   0.96309   0.92967   0.00000  Uiso   1.00
C185   C     0.80520   0.66034   0.29909   0.00000  Uiso   1.00
C186   C     0.84415   0.66740   0.19161   0.00000  Uiso   1.00
C187   C     0.88069   0.67685   0.27048   0.00000  Uiso   1.00
C188   C     0.91277   0.68215   0.14826   0.00000  Uiso   1.00
C189   C     0.97391   0.69374   0.01088   0.00000  Uiso   1.00
C190   C     0.77286   0.68203   0.21526   0.00000  Uiso   1.00
C191   C     0.74946   0.70377   0.31404   0.00000  Uiso   1.00
C192   C     0.72153   0.72138   0.21173   0.00000  Uiso   1.00
C193   C     0.67197   0.75566   0.11110   0.00000  Uiso   1.00
C194   C     0.79310   0.62652   0.24553   0.00000  Uiso   1.00
C195   C     0.78670   0.60158   0.36976   0.00000  Uiso   1.00
C196   C     0.77579   0.57245   0.29293   0.00000  Uiso   1.00
C197   C     0.75766   0.52055   0.23930   0.00000  Uiso   1.00
C198   C     0.79720   0.65294   0.94176   0.00000  Uiso   1.00
C199   C     0.83981   0.66339   0.99751   0.00000  Uiso   1.00
C200   C     0.87184   0.66867   0.87514   0.00000  Uiso   1.00
C201   C     0.90842   0.67812   0.95382   0.00000  Uiso   1.00
C202   C     0.76852   0.67801   0.02118   0.00000  Uiso   1.00
C203   C     0.74061   0.69559   0.91870   0.00000  Uiso   1.00
C204   C     0.71718   0.71735   0.01729   0.00000  Uiso   1.00
C205   C     0.78876   0.62250   0.05144   0.00000  Uiso   1.00
C206   C     0.77785   0.59340   0.97441   0.00000  Uiso   1.00
C207   C     0.77144   0.56843   0.09850   0.00000  Uiso   1.00
H208   H     0.80858   0.66346   0.45020   0.00000  Uiso   1.00
H209   H     0.88404   0.67996   0.42070   0.00000  Uiso   1.00
H210   H     0.75283   0.70687   0.46424   0.00000  Uiso   1.00
H211   H     0.79006   0.60470   0.51995   0.00000  Uiso   1.00
H212   H     0.96578   0.69648   0.30239   0.00000  Uiso   1.00
H213   H     0.68910   0.75322   0.39422   0.00000  Uiso   1.00
H214   H     0.76762   0.53777   0.51169   0.00000  Uiso   1.00
H215   H     0.79382   0.64982   0.79065   0.00000  Uiso   1.00
H216   H     0.86847   0.66556   0.72495   0.00000  Uiso   1.00
H217   H     0.73726   0.69247   0.76850   0.00000  Uiso   1.00
H218   H     0.77450   0.59030   0.82421   0.00000  Uiso   1.00
H219   H     0.95314   0.68480   0.73769   0.00000  Uiso   1.00
H220   H     0.67646   0.74154   0.82953   0.00000  Uiso   1.00
H221   H     0.75499   0.52609   0.94700   0.00000  Uiso   1.00
O222   O     0.00883   0.70125   0.98872   0.00000  Uiso   1.00
O223   O     0.64584   0.77569   0.10921   0.00000  Uiso   1.00
O224   O     0.74886   0.49303   0.26333   0.00000  Uiso   1.00
N225   N     0.95256   0.69156   0.17850   0.00000  Uiso   1.00
N226   N     0.69389   0.74462   0.26436   0.00000  Uiso   1.00
N227   N     0.76729   0.54320   0.37419   0.00000  Uiso   1.00
N228   N     0.94576   0.68528   0.87465   0.00000  Uiso   1.00
N229   N     0.68709   0.73833   0.96051   0.00000  Uiso   1.00
N230   N     0.76049   0.53691   0.07033   0.00000  Uiso   1.00
C231   C     0.30520   0.16034   0.29909   0.00000  Uiso   1.00
C232   C     0.34415   0.16740   0.19161   0.00000  Uiso   1.00
C233   C     0.38069   0.17685   0.27048   0.00000  Uiso   1.00
C234   C     0.41277   0.18215   0.14826   0.00000  Uiso   1.00
C235   C     0.47391   0.19374   0.01088   0.00000  Uiso   1.00
C236   C     0.27286   0.18203   0.21526   0.00000  Uiso   1.00
C237   C     0.24946   0.20377   0.31404   0.00000  Uiso   1.00
C238   C     0.22153   0.22138   0.21173   0.00000  Uiso   1.00
C239   C     0.17197   0.25566   0.11110   0.00000  Uiso   1.00
C240   C     0.29310   0.12652   0.24553   0.00000  Uiso   1.00
C241   C     0.28670   0.10158   0.36976   0.00000  Uiso   1.00
C242   C     0.27579   0.07245   0.29293   0.00000  Uiso   1.00
C243   C     0.25766   0.02055   0.23930   0.00000  Uiso   1.00
C244   C     0.29720   0.15294   0.94176   0.00000  Uiso   1.00
C245   C     0.33981   0.16339   0.99751   0.00000  Uiso   1.00
C246   C     0.37184   0.16867   0.87514   0.00000  Uiso   1.00
C247   C     0.40842   0.17812   0.95382   0.00000  Uiso   1.00
C248   C     0.26852   0.17801   0.02118   0.00000  Uiso   1.00
C249   C     0.24061   0.19559   0.91870   0.00000  Uiso   1.00
C250   C     0.21718   0.21735   0.01729   0.00000  Uiso   1.00
C251   C     0.28876   0.12250   0.05144   0.00000  Uiso   1.00
C252   C     0.27785   0.09340   0.97441   0.00000  Uiso   1.00
C253   C     0.27144   0.06843   0.09850   0.00000  Uiso   1.00
H254   H     0.30858   0.16346   0.45020   0.00000  Uiso   1.00
H255   H     0.38404   0.17996   0.42070   0.00000  Uiso   1.00
H256   H     0.25283   0.20687   0.46424   0.00000  Uiso   1.00
H257   H     0.29006   0.10470   0.51995   0.00000  Uiso   1.00
H258   H     0.46578   0.19648   0.30239   0.00000  Uiso   1.00
H259   H     0.18910   0.25322   0.39422   0.00000  Uiso   1.00
H260   H     0.26762   0.03777   0.51169   0.00000  Uiso   1.00
H261   H     0.29382   0.14982   0.79065   0.00000  Uiso   1.00
H262   H     0.36847   0.16556   0.72495   0.00000  Uiso   1.00
H263   H     0.23726   0.19247   0.76850   0.00000  Uiso   1.00
H264   H     0.27450   0.09030   0.82421   0.00000  Uiso   1.00
H265   H     0.45314   0.18480   0.73769   0.00000  Uiso   1.00
H266   H     0.17646   0.24154   0.82953   0.00000  Uiso   1.00
H267   H     0.25499   0.02609   0.94700   0.00000  Uiso   1.00
O268   O     0.50883   0.20125   0.98872   0.00000  Uiso   1.00
O269   O     0.14584   0.27569   0.10921   0.00000  Uiso   1.00
O270   O     0.24886   0.99303   0.26333   0.00000  Uiso   1.00
N271   N     0.45256   0.19156   0.17850   0.00000  Uiso   1.00
N272   N     0.19389   0.24462   0.26436   0.00000  Uiso   1.00
N273   N     0.26729   0.04320   0.37419   0.00000  Uiso   1.00
N274   N     0.44576   0.18528   0.87465   0.00000  Uiso   1.00
N275   N     0.18709   0.23833   0.96051   0.00000  Uiso   1.00
N276   N     0.26049   0.03691   0.07033   0.00000  Uiso   1.00
C277   C     0.19480   0.33966   0.79909   0.00000  Uiso   1.00
C278   C     0.15585   0.33260   0.69161   0.00000  Uiso   1.00
C279   C     0.11931   0.32315   0.77048   0.00000  Uiso   1.00
C280   C     0.08723   0.31785   0.64826   0.00000  Uiso   1.00
C281   C     0.02609   0.30626   0.51088   0.00000  Uiso   1.00
C282   C     0.22714   0.31797   0.71526   0.00000  Uiso   1.00
C283   C     0.25054   0.29623   0.81404   0.00000  Uiso   1.00
C284   C     0.27847   0.27862   0.71173   0.00000  Uiso   1.00
C285   C     0.32803   0.24434   0.61110   0.00000  Uiso   1.00
C286   C     0.20690   0.37348   0.74553   0.00000  Uiso   1.00
C287   C     0.21330   0.39842   0.86976   0.00000  Uiso   1.00
C288   C     0.22421   0.42755   0.79293   0.00000  Uiso   1.00
C289   C     0.24234   0.47945   0.73930   0.00000  Uiso   1.00
C290   C     0.20280   0.34706   0.44176   0.00000  Uiso   1.00
C291   C     0.16019   0.33661   0.49751   0.00000  Uiso   1.00
C292   C     0.12816   0.33133   0.37514   0.00000  Uiso   1.00
C293   C     0.09158   0.32188   0.45382   0.00000  Uiso   1.00
C294   C     0.23148   0.32199   0.52118   0.00000  Uiso   1.00
C295   C     0.25939   0.30441   0.41870   0.00000  Uiso   1.00
C296   C     0.28282   0.28265   0.51729   0.00000  Uiso   1.00
C297   C     0.21124   0.37750   0.55144   0.00000  Uiso   1.00
C298   C     0.22215   0.40660   0.47441   0.00000  Uiso   1.00
C299   C     0.22856   0.43157   0.59850   0.00000  Uiso   1.00
H300   H     0.19142   0.33654   0.95020   0.00000  Uiso   1.00
H301   H     0.11596   0.32004   0.92070   0.00000  Uiso   1.00
H302   H     0.24717   0.29313   0.96424   0.00000  Uiso   1.00
H303   H     0.20994   0.39530   0.01995   0.00000  Uiso   1.00
H304   H     0.03422   0.30352   0.80239   0.00000  Uiso   1.00
H305   H     0.31090   0.24678   0.89422   0.00000  Uiso   1.00
H306   H     0.23238   0.46223   0.01169   0.00000  Uiso   1.00
H307   H     0.20618   0.35018   0.29065   0.00000  Uiso   1.00
H308   H     0.13153   0.33444   0.22495   0.00000  Uiso   1.00
H309   H     0.26274   0.30753   0.26850   0.00000  Uiso   1.00
H310   H     0.22550   0.40970   0.32421   0.00000  Uiso   1.00
H311   H     0.04686   0.31520   0.23769   0.00000  Uiso   1.00
H312   H     0.32354   0.25846   0.32953   0.00000  Uiso   1.00
H313   H     0.24501   0.47391   0.44700   0.00000  Uiso   1.00
O314   O     0.99117   0.29875   0.48872   0.00000  Uiso   1.00
O315   O     0.35416   0.22431   0.60921   0.00000  Uiso   1.00
O316   O     0.25114   0.50697   0.76333   0.00000  Uiso   1.00
N317   N     0.04744   0.30844   0.67850   0.00000  Uiso   1.00
N318   N     0.30611   0.25538   0.76436   0.00000  Uiso   1.00
N319   N     0.23271   0.45680   0.87419   0.00000  Uiso   1.00
N320   N     0.05424   0.31472   0.37465   0.00000  Uiso   1.00
N321   N     0.31291   0.26167   0.46051   0.00000  Uiso   1.00
N322   N     0.23951   0.46309   0.57033   0.00000  Uiso   1.00
C323   C     0.69480   0.83966   0.79909   0.00000  Uiso   1.00
C324   C     0.65585   0.83260   0.69161   0.00000  Uiso   1.00
C325   C     0.61931   0.82315   0.77048   0.00000  Uiso   1.00
C326   C     0.58723   0.81785   0.64826   0.00000  Uiso   1.00
C327   C     0.52609   0.80626   0.51088   0.00000  Uiso   1.00
C328   C     0.72714   0.81797   0.71526   0.00000  Uiso   1.00
C329   C     0.75054   0.79623   0.81404   0.00000  Uiso   1.00
C330   C     0.77847   0.77862   0.71173   0.00000  Uiso   1.00
C331   C     0.82803   0.74434   0.61110   0.00000  Uiso   1.00
C332   C     0.70690   0.87348   0.74553   0.00000  Uiso   1.00
C333   C     0.71330   0.89842   0.86976   0.00000  Uiso   1.00
C334   C     0.72421   0.92755   0.79293   0.00000  Uiso   1.00
C335   C     0.74234   0.97945   0.73930   0.00000  Uiso   1.00
C336   C     0.70280   0.84706   0.44176   0.00000  Uiso   1.00
C337   C     0.66019   0.83661   0.49751   0.00000  Uiso   1.00
C338   C     0.62816   0.83133   0.37514   0.00000  Uiso   1.00
C339   C     0.59158   0.82188   0.45382   0.00000  Uiso   1.00
C340   C     0.73148   0.82199   0.52118   0.00000  Uiso   1.00
C341   C     0.75939   0.80441   0.41870   0.00000  Uiso   1.00
C342   C     0.78282   0.78265   0.51729   0.00000  Uiso   1.00
C343   C     0.71124   0.87750   0.55144   0.00000  Uiso   1.00
C344   C     0.72215   0.90660   0.47441   0.00000  Uiso   1.00
C345   C     0.72856   0.93157   0.59850   0.00000  Uiso   1.00
H346   H     0.69142   0.83654   0.95020   0.00000  Uiso   1.00
H347   H     0.61596   0.82004   0.92070   0.00000  Uiso   1.00
H348   H     0.74717   0.79313   0.96424   0.00000  Uiso   1.00
H349   H     0.70994   0.89530   0.01995   0.00000  Uiso   1.00
H350   H     0.53422   0.80352   0.80239   0.00000  Uiso   1.00
H351   H     0.81090   0.74678   0.89422   0.00000  Uiso   1.00
H352   H     0.73238   0.96223   0.01169   0.00000  Uiso   1.00
H353   H     0.70618   0.85018   0.29065   0.00000  Uiso   1.00
H354   H     0.63153   0.83444   0.22495   0.00000  Uiso   1.00
H355   H     0.76274   0.80753   0.26850   0.00000  Uiso   1.00
H356   H     0.72550   0.90970   0.32421   0.00000  Uiso   1.00
H357   H     0.54686   0.81520   0.23769   0.00000  Uiso   1.00
H358   H     0.82354   0.75846   0.32953   0.00000  Uiso   1.00
H359   H     0.74501   0.97391   0.44700   0.00000  Uiso   1.00
O360   O     0.49117   0.79875   0.48872   0.00000  Uiso   1.00
O361   O     0.85416   0.72431   0.60921   0.00000  Uiso   1.00
O362   O     0.75114   0.00697   0.76333   0.00000  Uiso   1.00
N363   N     0.54744   0.80844   0.67850   0.00000  Uiso   1.00
N364   N     0.80611   0.75538   0.76436   0.00000  Uiso   1.00
N365   N     0.73271   0.95680   0.87419   0.00000  Uiso   1.00
N366   N     0.55424   0.81472   0.37465   0.00000  Uiso   1.00
N367   N     0.81291   0.76167   0.46051   0.00000  Uiso   1.00
N368   N     0.73951   0.96309   0.57033   0.00000  Uiso   1.00
