data_job_06981
_audit_creation_date              2018-12-19
_audit_creation_method            'Materials Studio'
_symmetry_space_group_name_H-M    'P1'
_symmetry_Int_Tables_number       1
_symmetry_cell_setting            triclinic
loop_
_symmetry_equiv_pos_as_xyz
  x,y,z
_cell_length_a                    23.6053
_cell_length_b                    23.4674
_cell_length_c                    19.0935
_cell_angle_alpha                 103.3690
_cell_angle_beta                  113.2350
_cell_angle_gamma                 88.3389
loop_
_atom_site_label
_atom_site_type_symbol
_atom_site_fract_x
_atom_site_fract_y
_atom_site_fract_z
_atom_site_U_iso_or_equiv
_atom_site_adp_type
_atom_site_occupancy
C1     C     0.11031   0.13333   0.68131   0.00000  Uiso   1.00
C2     C     0.05673   0.08701   0.65068   0.00000  Uiso   1.00
C3     C     0.05387   0.03069   0.60560   0.00000  Uiso   1.00
C4     C     0.00084   0.99496   0.58342   0.00000  Uiso   1.00
C5     C     0.92499   0.92002   0.53245   0.00000  Uiso   1.00
C6     C     0.08271   0.18683   0.65105   0.00000  Uiso   1.00
C7     C     0.10172   0.21443   0.60630   0.00000  Uiso   1.00
C8     C     0.07057   0.26273   0.58444   0.00000  Uiso   1.00
C9     C     0.03509   0.34278   0.53411   0.00000  Uiso   1.00
C10    C     0.13044   0.15131   0.77014   0.00000  Uiso   1.00
C11    C     0.18956   0.14905   0.82551   0.00000  Uiso   1.00
C12    C     0.19860   0.16746   0.90393   0.00000  Uiso   1.00
C13    C     0.23722   0.19235   0.03849   0.00000  Uiso   1.00
C14    C     0.02122   0.17004   0.72209   0.00000  Uiso   1.00
C15    C     0.00834   0.10696   0.67283   0.00000  Uiso   1.00
C16    C     0.95530   0.07130   0.65072   0.00000  Uiso   1.00
C17    C     0.95237   0.01493   0.60561   0.00000  Uiso   1.00
C18    C     0.03433   0.20677   0.67320   0.00000  Uiso   1.00
C19    C     0.00315   0.25504   0.65142   0.00000  Uiso   1.00
C20    C     0.02209   0.28271   0.60663   0.00000  Uiso   1.00
C21    C     0.08205   0.17124   0.79229   0.00000  Uiso   1.00
C22    C     0.09099   0.18966   0.87063   0.00000  Uiso   1.00
C23    C     0.15012   0.18743   0.92612   0.00000  Uiso   1.00
H24    H     0.14798   0.11781   0.66406   0.00000  Uiso   1.00
H25    H     0.09132   0.01528   0.58846   0.00000  Uiso   1.00
H26    H     0.13917   0.19900   0.58917   0.00000  Uiso   1.00
H27    H     0.22700   0.13362   0.80835   0.00000  Uiso   1.00
H28    H     0.00716   0.91040   0.51439   0.00000  Uiso   1.00
H29    H     0.10805   0.29779   0.51590   0.00000  Uiso   1.00
H30    H     0.29326   0.15994   0.97809   0.00000  Uiso   1.00
H31    H     0.98355   0.18556   0.73934   0.00000  Uiso   1.00
H32    H     0.91786   0.08674   0.66787   0.00000  Uiso   1.00
H33    H     0.96571   0.27046   0.66857   0.00000  Uiso   1.00
H34    H     0.05354   0.20509   0.88775   0.00000  Uiso   1.00
H35    H     0.86637   0.96840   0.57883   0.00000  Uiso   1.00
H36    H     0.96726   0.35580   0.58035   0.00000  Uiso   1.00
H37    H     0.15247   0.21795   0.04253   0.00000  Uiso   1.00
O38    O     0.89651   0.87318   0.49821   0.00000  Uiso   1.00
O39    O     0.02889   0.38142   0.50022   0.00000  Uiso   1.00
O40    O     0.27188   0.20057   0.10659   0.00000  Uiso   1.00
N41    N     0.98304   0.93761   0.53938   0.00000  Uiso   1.00
N42    N     0.07736   0.29979   0.54078   0.00000  Uiso   1.00
N43    N     0.25053   0.17093   0.97289   0.00000  Uiso   1.00
N44    N     0.90728   0.96882   0.57405   0.00000  Uiso   1.00
N45    N     0.00161   0.33100   0.57546   0.00000  Uiso   1.00
N46    N     0.17477   0.20214   0.00757   0.00000  Uiso   1.00
C47    C     0.50080   0.00810   0.07356   0.00000  Uiso   1.00
C48    C     0.49588   0.95592   0.00630   0.00000  Uiso   1.00
C49    C     0.44548   0.93963   0.93490   0.00000  Uiso   1.00
C50    C     0.45000   0.89053   0.88106   0.00000  Uiso   1.00
C51    C     0.43427   0.81430   0.77404   0.00000  Uiso   1.00
C52    C     0.51474   0.98308   0.14513   0.00000  Uiso   1.00
C53    C     0.48019   0.98963   0.19047   0.00000  Uiso   1.00
C54    C     0.50059   0.96339   0.25351   0.00000  Uiso   1.00
C55    C     0.51417   0.92938   0.36206   0.00000  Uiso   1.00
C56    C     0.55872   0.04538   0.09074   0.00000  Uiso   1.00
C57    C     0.56116   0.10432   0.09037   0.00000  Uiso   1.00
C58    C     0.61861   0.13055   0.10763   0.00000  Uiso   1.00
C59    C     0.70047   0.19326   0.13174   0.00000  Uiso   1.00
C60    C     0.59847   0.94987   0.10491   0.00000  Uiso   1.00
C61    C     0.54893   0.92429   0.02333   0.00000  Uiso   1.00
C62    C     0.55354   0.87521   0.96959   0.00000  Uiso   1.00
C63    C     0.50315   0.85884   0.89812   0.00000  Uiso   1.00
C64    C     0.56778   0.95145   0.16216   0.00000  Uiso   1.00
C65    C     0.58825   0.92521   0.22515   0.00000  Uiso   1.00
C66    C     0.55374   0.93171   0.27057   0.00000  Uiso   1.00
C67    C     0.61177   0.01376   0.10777   0.00000  Uiso   1.00
C68    C     0.66922   0.03990   0.12505   0.00000  Uiso   1.00
C69    C     0.67175   0.09886   0.12469   0.00000  Uiso   1.00
H70    H     0.45950   0.03272   0.06031   0.00000  Uiso   1.00
H71    H     0.40443   0.96411   0.92175   0.00000  Uiso   1.00
H72    H     0.43914   0.01411   0.17728   0.00000  Uiso   1.00
H73    H     0.52010   0.12878   0.07719   0.00000  Uiso   1.00
H74    H     0.36675   0.87409   0.77565   0.00000  Uiso   1.00
H75    H     0.43996   0.97953   0.31446   0.00000  Uiso   1.00
H76    H     0.61068   0.22134   0.10341   0.00000  Uiso   1.00
H77    H     0.63978   0.92525   0.11817   0.00000  Uiso   1.00
H78    H     0.59460   0.85074   0.98278   0.00000  Uiso   1.00
H79    H     0.62931   0.90074   0.23831   0.00000  Uiso   1.00
H80    H     0.71027   0.01541   0.13822   0.00000  Uiso   1.00
H81    H     0.52110   0.78207   0.82518   0.00000  Uiso   1.00
H82    H     0.59430   0.88752   0.36401   0.00000  Uiso   1.00
H83    H     0.76503   0.12932   0.15294   0.00000  Uiso   1.00
O84    O     0.41094   0.78099   0.71032   0.00000  Uiso   1.00
O85    O     0.50699   0.91934   0.41723   0.00000  Uiso   1.00
O86    O     0.73097   0.23659   0.14032   0.00000  Uiso   1.00
N87    N     0.40928   0.86266   0.80588   0.00000  Uiso   1.00
N88    N     0.47772   0.96124   0.30964   0.00000  Uiso   1.00
N89    N     0.63733   0.18731   0.11233   0.00000  Uiso   1.00
N90    N     0.49234   0.81315   0.83253   0.00000  Uiso   1.00
N91    N     0.56077   0.91172   0.33629   0.00000  Uiso   1.00
N92    N     0.72039   0.13780   0.13899   0.00000  Uiso   1.00
C93    C     0.07733   0.59306   0.99578   0.00000  Uiso   1.00
C94    C     0.01730   0.60352   0.93136   0.00000  Uiso   1.00
C95    C     0.96139   0.57088   0.90328   0.00000  Uiso   1.00
C96    C     0.91188   0.58745   0.84414   0.00000  Uiso   1.00
C97    C     0.81773   0.59644   0.74864   0.00000  Uiso   1.00
C98    C     0.12528   0.58485   0.95991   0.00000  Uiso   1.00
C99    C     0.16017   0.53652   0.95585   0.00000  Uiso   1.00
C100   C     0.20156   0.53738   0.92076   0.00000  Uiso   1.00
C101   C     0.27508   0.51742   0.86963   0.00000  Uiso   1.00
C102   C     0.09727   0.65073   0.05831   0.00000  Uiso   1.00
C103   C     0.10862   0.65780   0.13699   0.00000  Uiso   1.00
C104   C     0.12644   0.71413   0.18475   0.00000  Uiso   1.00
C105   C     0.15648   0.79646   0.28640   0.00000  Uiso   1.00
C106   C     0.08880   0.68051   0.94068   0.00000  Uiso   1.00
C107   C     0.02353   0.65102   0.90143   0.00000  Uiso   1.00
C108   C     0.97408   0.66764   0.84232   0.00000  Uiso   1.00
C109   C     0.91812   0.63504   0.81417   0.00000  Uiso   1.00
C110   C     0.13151   0.63235   0.92998   0.00000  Uiso   1.00
C111   C     0.17286   0.63328   0.89489   0.00000  Uiso   1.00
C112   C     0.20780   0.58497   0.89078   0.00000  Uiso   1.00
C113   C     0.10350   0.69824   0.02838   0.00000  Uiso   1.00
C114   C     0.12131   0.75456   0.07603   0.00000  Uiso   1.00
C115   C     0.13269   0.76172   0.15477   0.00000  Uiso   1.00
H116   H     0.07248   0.55608   0.01908   0.00000  Uiso   1.00
H117   H     0.95659   0.53412   0.92645   0.00000  Uiso   1.00
H118   H     0.15534   0.49977   0.97902   0.00000  Uiso   1.00
H119   H     0.10380   0.62103   0.16013   0.00000  Uiso   1.00
H120   H     0.83086   0.53071   0.81054   0.00000  Uiso   1.00
H121   H     0.24995   0.45830   0.92141   0.00000  Uiso   1.00
H122   H     0.14127   0.71400   0.30332   0.00000  Uiso   1.00
H123   H     0.09365   0.71750   0.91738   0.00000  Uiso   1.00
H124   H     0.97892   0.70440   0.81917   0.00000  Uiso   1.00
H125   H     0.17767   0.67005   0.87174   0.00000  Uiso   1.00
H126   H     0.12612   0.79131   0.05285   0.00000  Uiso   1.00
H127   H     0.84898   0.66892   0.72347   0.00000  Uiso   1.00
H128   H     0.26808   0.59650   0.83434   0.00000  Uiso   1.00
H129   H     0.15939   0.85221   0.21624   0.00000  Uiso   1.00
O130   O     0.76408   0.58828   0.70422   0.00000  Uiso   1.00
O131   O     0.31391   0.49328   0.84969   0.00000  Uiso   1.00
O132   O     0.17131   0.82875   0.35074   0.00000  Uiso   1.00
N133   N     0.85087   0.56505   0.80354   0.00000  Uiso   1.00
N134   N     0.24268   0.49734   0.90718   0.00000  Uiso   1.00
N135   N     0.14109   0.73639   0.26424   0.00000  Uiso   1.00
N136   N     0.86062   0.63941   0.75668   0.00000  Uiso   1.00
N137   N     0.25244   0.57170   0.86033   0.00000  Uiso   1.00
N138   N     0.15084   0.81076   0.21738   0.00000  Uiso   1.00
C139   C     0.46628   0.00722   0.57245   0.00000  Uiso   1.00
C140   C     0.40483   0.00408   0.50250   0.00000  Uiso   1.00
C141   C     0.37026   0.95302   0.45254   0.00000  Uiso   1.00
C142   C     0.31532   0.95945   0.39200   0.00000  Uiso   1.00
C143   C     0.22287   0.94613   0.28496   0.00000  Uiso   1.00
C144   C     0.45715   0.04468   0.64345   0.00000  Uiso   1.00
C145   C     0.46658   0.02774   0.71200   0.00000  Uiso   1.00
C146   C     0.45568   0.06836   0.77011   0.00000  Uiso   1.00
C147   C     0.44450   0.11808   0.88191   0.00000  Uiso   1.00
C148   C     0.51212   0.04296   0.55861   0.00000  Uiso   1.00
C149   C     0.56778   0.02460   0.55584   0.00000  Uiso   1.00
C150   C     0.60318   0.06378   0.54254   0.00000  Uiso   1.00
C151   C     0.67735   0.11084   0.52261   0.00000  Uiso   1.00
C152   C     0.43018   0.10946   0.55377   0.00000  Uiso   1.00
C153   C     0.38523   0.05962   0.49236   0.00000  Uiso   1.00
C154   C     0.33032   0.06613   0.43188   0.00000  Uiso   1.00
C155   C     0.29567   0.01509   0.38184   0.00000  Uiso   1.00
C156   C     0.43754   0.10021   0.63331   0.00000  Uiso   1.00
C157   C     0.42663   0.14086   0.69133   0.00000  Uiso   1.00
C158   C     0.43604   0.12399   0.75995   0.00000  Uiso   1.00
C159   C     0.49252   0.09850   0.54846   0.00000  Uiso   1.00
C160   C     0.52784   0.13772   0.53517   0.00000  Uiso   1.00
C161   C     0.58353   0.11941   0.53238   0.00000  Uiso   1.00
H162   H     0.48155   0.96398   0.58035   0.00000  Uiso   1.00
H163   H     0.38545   0.91005   0.46042   0.00000  Uiso   1.00
H164   H     0.48176   0.98477   0.71983   0.00000  Uiso   1.00
H165   H     0.58294   0.98162   0.56369   0.00000  Uiso   1.00
H166   H     0.27025   0.87474   0.32299   0.00000  Uiso   1.00
H167   H     0.47334   0.03229   0.86999   0.00000  Uiso   1.00
H168   H     0.68671   0.02566   0.54075   0.00000  Uiso   1.00
H169   H     0.41492   0.15270   0.54588   0.00000  Uiso   1.00
H170   H     0.31516   0.10911   0.42405   0.00000  Uiso   1.00
H171   H     0.41146   0.18383   0.68347   0.00000  Uiso   1.00
H172   H     0.51265   0.18069   0.52733   0.00000  Uiso   1.00
H173   H     0.21319   0.03631   0.29347   0.00000  Uiso   1.00
H174   H     0.41628   0.19386   0.84048   0.00000  Uiso   1.00
H175   H     0.62965   0.18723   0.51123   0.00000  Uiso   1.00
O176   O     0.17729   0.92345   0.22873   0.00000  Uiso   1.00
O177   O     0.44374   0.13016   0.94638   0.00000  Uiso   1.00
O178   O     0.72368   0.12146   0.51441   0.00000  Uiso   1.00
N179   N     0.27052   0.91874   0.33275   0.00000  Uiso   1.00
N180   N     0.46038   0.06605   0.84416   0.00000  Uiso   1.00
N181   N     0.65987   0.05985   0.53637   0.00000  Uiso   1.00
N182   N     0.23981   0.00568   0.31687   0.00000  Uiso   1.00
N183   N     0.42968   0.15299   0.82828   0.00000  Uiso   1.00
N184   N     0.62917   0.14679   0.52049   0.00000  Uiso   1.00
C185   C     0.19392   0.61736   0.59393   0.00000  Uiso   1.00
C186   C     0.17390   0.56269   0.52627   0.00000  Uiso   1.00
C187   C     0.13730   0.51467   0.51908   0.00000  Uiso   1.00
C188   C     0.12414   0.46903   0.45280   0.00000  Uiso   1.00
C189   C     0.08957   0.38379   0.35640   0.00000  Uiso   1.00
C190   C     0.17210   0.66926   0.55681   0.00000  Uiso   1.00
C191   C     0.13401   0.71085   0.57530   0.00000  Uiso   1.00
C192   C     0.11935   0.75492   0.53473   0.00000  Uiso   1.00
C193   C     0.08204   0.83516   0.48578   0.00000  Uiso   1.00
C194   C     0.26433   0.62311   0.62680   0.00000  Uiso   1.00
C195   C     0.30379   0.62592   0.70414   0.00000  Uiso   1.00
C196   C     0.36677   0.63115   0.72250   0.00000  Uiso   1.00
C197   C     0.47265   0.63973   0.78221   0.00000  Uiso   1.00
C198   C     0.23561   0.62169   0.48901   0.00000  Uiso   1.00
C199   C     0.19654   0.56504   0.46928   0.00000  Uiso   1.00
C200   C     0.18343   0.51945   0.40300   0.00000  Uiso   1.00
C201   C     0.14682   0.47138   0.39571   0.00000  Uiso   1.00
C202   C     0.19475   0.67161   0.49982   0.00000  Uiso   1.00
C203   C     0.18014   0.71563   0.45922   0.00000  Uiso   1.00
C204   C     0.14203   0.75728   0.47764   0.00000  Uiso   1.00
C205   C     0.28698   0.62546   0.56981   0.00000  Uiso   1.00
C206   C     0.34991   0.63069   0.58805   0.00000  Uiso   1.00
C207   C     0.38946   0.63350   0.66541   0.00000  Uiso   1.00
H208   H     0.17629   0.61554   0.63830   0.00000  Uiso   1.00
H209   H     0.11978   0.51288   0.56320   0.00000  Uiso   1.00
H210   H     0.11650   0.70902   0.61941   0.00000  Uiso   1.00
H211   H     0.28625   0.62410   0.74823   0.00000  Uiso   1.00
H212   H     0.06710   0.40010   0.45478   0.00000  Uiso   1.00
H213   H     0.06020   0.81370   0.57334   0.00000  Uiso   1.00
H214   H     0.41814   0.63462   0.84497   0.00000  Uiso   1.00
H215   H     0.25324   0.62351   0.44463   0.00000  Uiso   1.00
H216   H     0.20096   0.52128   0.35890   0.00000  Uiso   1.00
H217   H     0.19768   0.71743   0.41512   0.00000  Uiso   1.00
H218   H     0.36742   0.63251   0.54394   0.00000  Uiso   1.00
H219   H     0.13298   0.40692   0.28897   0.00000  Uiso   1.00
H220   H     0.12608   0.82053   0.40753   0.00000  Uiso   1.00
H221   H     0.48402   0.64145   0.67916   0.00000  Uiso   1.00
O222   O     0.06424   0.33613   0.31896   0.00000  Uiso   1.00
O223   O     0.05520   0.87876   0.47452   0.00000  Uiso   1.00
O224   O     0.52480   0.64381   0.83089   0.00000  Uiso   1.00
N225   N     0.08979   0.41573   0.42753   0.00000  Uiso   1.00
N226   N     0.08333   0.80242   0.53837   0.00000  Uiso   1.00
N227   N     0.41797   0.63501   0.79233   0.00000  Uiso   1.00
N228   N     0.12524   0.41940   0.33831   0.00000  Uiso   1.00
N229   N     0.11878   0.80609   0.44915   0.00000  Uiso   1.00
N230   N     0.45343   0.63868   0.70311   0.00000  Uiso   1.00
C231   C     0.57362   0.58451   0.99837   0.00000  Uiso   1.00
C232   C     0.53906   0.53441   0.00698   0.00000  Uiso   1.00
C233   C     0.47751   0.51520   0.96203   0.00000  Uiso   1.00
C234   C     0.45451   0.46872   0.97904   0.00000  Uiso   1.00
C235   C     0.39520   0.39490   0.98327   0.00000  Uiso   1.00
C236   C     0.62945   0.55841   0.98492   0.00000  Uiso   1.00
C237   C     0.64390   0.55941   0.92143   0.00000  Uiso   1.00
C238   C     0.69699   0.53314   0.91988   0.00000  Uiso   1.00
C239   C     0.77803   0.49663   0.88990   0.00000  Uiso   1.00
C240   C     0.59936   0.62753   0.07870   0.00000  Uiso   1.00
C241   C     0.58853   0.68664   0.09407   0.00000  Uiso   1.00
C242   C     0.61631   0.71856   0.17149   0.00000  Uiso   1.00
C243   C     0.65064   0.78937   0.28712   0.00000  Uiso   1.00
C244   C     0.64223   0.53610   0.10853   0.00000  Uiso   1.00
C245   C     0.57633   0.50811   0.06681   0.00000  Uiso   1.00
C246   C     0.55342   0.46165   0.08390   0.00000  Uiso   1.00
C247   C     0.49185   0.44238   0.03898   0.00000  Uiso   1.00
C248   C     0.66672   0.53212   0.04475   0.00000  Uiso   1.00
C249   C     0.71981   0.50585   0.04330   0.00000  Uiso   1.00
C250   C     0.73433   0.50680   0.97982   0.00000  Uiso   1.00
C251   C     0.63663   0.60124   0.13854   0.00000  Uiso   1.00
C252   C     0.66444   0.63308   0.21594   0.00000  Uiso   1.00
C253   C     0.65365   0.69222   0.23143   0.00000  Uiso   1.00
H254   H     0.54461   0.60498   0.95179   0.00000  Uiso   1.00
H255   H     0.44869   0.53556   0.91572   0.00000  Uiso   1.00
H256   H     0.61505   0.57976   0.87514   0.00000  Uiso   1.00
H257   H     0.55969   0.70697   0.04776   0.00000  Uiso   1.00
H258   H     0.35878   0.44699   0.90210   0.00000  Uiso   1.00
H259   H     0.70958   0.54020   0.81654   0.00000  Uiso   1.00
H260   H     0.59285   0.80845   0.18054   0.00000  Uiso   1.00
H261   H     0.67125   0.51563   0.15511   0.00000  Uiso   1.00
H262   H     0.58227   0.44131   0.13020   0.00000  Uiso   1.00
H263   H     0.74864   0.48551   0.08961   0.00000  Uiso   1.00
H264   H     0.69328   0.61272   0.26223   0.00000  Uiso   1.00
H265   H     0.46721   0.37049   0.07618   0.00000  Uiso   1.00
H266   H     0.81801   0.46371   0.99062   0.00000  Uiso   1.00
H267   H     0.70127   0.73195   0.35461   0.00000  Uiso   1.00
O268   O     0.35219   0.36145   0.96907   0.00000  Uiso   1.00
O269   O     0.81242   0.48375   0.85682   0.00000  Uiso   1.00
O270   O     0.65927   0.83569   0.33438   0.00000  Uiso   1.00
N271   N     0.39651   0.43919   0.94650   0.00000  Uiso   1.00
N272   N     0.72448   0.52633   0.86650   0.00000  Uiso   1.00
N273   N     0.61535   0.77713   0.20680   0.00000  Uiso   1.00
N274   N     0.45485   0.39803   0.04017   0.00000  Uiso   1.00
N275   N     0.78282   0.48517   0.96017   0.00000  Uiso   1.00
N276   N     0.67370   0.73596   0.30047   0.00000  Uiso   1.00
C277   C     0.89434   0.82305   0.30323   0.00000  Uiso   1.00
C278   C     0.94406   0.86006   0.29828   0.00000  Uiso   1.00
C279   C     0.96235   0.91843   0.33721   0.00000  Uiso   1.00
C280   C     0.00863   0.94447   0.32497   0.00000  Uiso   1.00
C281   C     0.08175   0.00668   0.32482   0.00000  Uiso   1.00
C282   C     0.92541   0.76952   0.33002   0.00000  Uiso   1.00
C283   C     0.92801   0.75177   0.39563   0.00000  Uiso   1.00
C284   C     0.95858   0.70159   0.41010   0.00000  Uiso   1.00
C285   C     0.00271   0.62321   0.45920   0.00000  Uiso   1.00
C286   C     0.84759   0.80013   0.21907   0.00000  Uiso   1.00
C287   C     0.78475   0.80810   0.19140   0.00000  Uiso   1.00
C288   C     0.74979   0.78368   0.11245   0.00000  Uiso   1.00
C289   C     0.67309   0.75283   0.98928   0.00000  Uiso   1.00
C290   C     0.94401   0.76549   0.21225   0.00000  Uiso   1.00
C291   C     0.97104   0.82879   0.24886   0.00000  Uiso   1.00
C292   C     0.01730   0.85474   0.23655   0.00000  Uiso   1.00
C293   C     0.03565   0.91315   0.27546   0.00000  Uiso   1.00
C294   C     0.95239   0.73825   0.28060   0.00000  Uiso   1.00
C295   C     0.98296   0.68808   0.29497   0.00000  Uiso   1.00
C296   C     0.98561   0.67027   0.36060   0.00000  Uiso   1.00
C297   C     0.87457   0.76886   0.16965   0.00000  Uiso   1.00
C298   C     0.83970   0.74442   0.09073   0.00000  Uiso   1.00
C299   C     0.77682   0.75236   0.06295   0.00000  Uiso   1.00
H300   H     0.87334   0.84739   0.34171   0.00000  Uiso   1.00
H301   H     0.94146   0.94262   0.37546   0.00000  Uiso   1.00
H302   H     0.90712   0.77598   0.43386   0.00000  Uiso   1.00
H303   H     0.76388   0.83230   0.22966   0.00000  Uiso   1.00
H304   H     0.02890   0.03439   0.39110   0.00000  Uiso   1.00
H305   H     0.95648   0.68301   0.51424   0.00000  Uiso   1.00
H306   H     0.65443   0.80179   0.08363   0.00000  Uiso   1.00
H307   H     0.96502   0.74114   0.17378   0.00000  Uiso   1.00
H308   H     0.03817   0.83054   0.19831   0.00000  Uiso   1.00
H309   H     0.00383   0.66390   0.25671   0.00000  Uiso   1.00
H310   H     0.86060   0.72022   0.05251   0.00000  Uiso   1.00
H311   H     0.10740   0.94342   0.24732   0.00000  Uiso   1.00
H312   H     0.03497   0.59204   0.37046   0.00000  Uiso   1.00
H313   H     0.73293   0.71082   0.93985   0.00000  Uiso   1.00
O314   O     0.11464   0.04962   0.33840   0.00000  Uiso   1.00
O315   O     0.01960   0.58862   0.49994   0.00000  Uiso   1.00
O316   O     0.62333   0.74446   0.93499   0.00000  Uiso   1.00
N317   N     0.03733   0.00072   0.35388   0.00000  Uiso   1.00
N318   N     0.96962   0.67220   0.46901   0.00000  Uiso   1.00
N319   N     0.68723   0.78324   0.06644   0.00000  Uiso   1.00
N320   N     0.07957   0.95177   0.27652   0.00000  Uiso   1.00
N321   N     0.01186   0.62326   0.39165   0.00000  Uiso   1.00
N322   N     0.72947   0.73429   0.98907   0.00000  Uiso   1.00
C323   C     0.20310   0.82449   0.78917   0.00000  Uiso   1.00
C324   C     0.22028   0.87865   0.85743   0.00000  Uiso   1.00
C325   C     0.26009   0.88098   0.93449   0.00000  Uiso   1.00
C326   C     0.26980   0.93468   0.98826   0.00000  Uiso   1.00
C327   C     0.30092   0.01125   0.09767   0.00000  Uiso   1.00
C328   C     0.21953   0.84171   0.72684   0.00000  Uiso   1.00
C329   C     0.25871   0.81297   0.69410   0.00000  Uiso   1.00
C330   C     0.26779   0.83556   0.63794   0.00000  Uiso   1.00
C331   C     0.29771   0.85475   0.54457   0.00000  Uiso   1.00
C332   C     0.13280   0.81563   0.75477   0.00000  Uiso   1.00
C333   C     0.09906   0.76496   0.74550   0.00000  Uiso   1.00
C334   C     0.03511   0.76560   0.71284   0.00000  Uiso   1.00
C335   C     0.93038   0.74430   0.66284   0.00000  Uiso   1.00
C336   C     0.14955   0.91572   0.74763   0.00000  Uiso   1.00
C337   C     0.19119   0.92820   0.83486   0.00000  Uiso   1.00
C338   C     0.20084   0.98192   0.88854   0.00000  Uiso   1.00
C339   C     0.24066   0.98432   0.96566   0.00000  Uiso   1.00
C340   C     0.19044   0.89126   0.70428   0.00000  Uiso   1.00
C341   C     0.19946   0.91390   0.64815   0.00000  Uiso   1.00
C342   C     0.23865   0.88520   0.61534   0.00000  Uiso   1.00
C343   C     0.10371   0.86519   0.73221   0.00000  Uiso   1.00
C344   C     0.03981   0.86590   0.69955   0.00000  Uiso   1.00
C345   C     0.00597   0.81524   0.69023   0.00000  Uiso   1.00
H346   H     0.22575   0.78591   0.80673   0.00000  Uiso   1.00
H347   H     0.28260   0.84263   0.95192   0.00000  Uiso   1.00
H348   H     0.28121   0.77462   0.71156   0.00000  Uiso   1.00
H349   H     0.12158   0.72663   0.76296   0.00000  Uiso   1.00
H350   H     0.33281   0.92736   0.10294   0.00000  Uiso   1.00
H351   H     0.32987   0.78395   0.59612   0.00000  Uiso   1.00
H352   H     0.99327   0.68275   0.70449   0.00000  Uiso   1.00
H353   H     0.12690   0.95430   0.73007   0.00000  Uiso   1.00
H354   H     0.17832   0.02025   0.87106   0.00000  Uiso   1.00
H355   H     0.17694   0.95225   0.63071   0.00000  Uiso   1.00
H356   H     0.01731   0.90425   0.68210   0.00000  Uiso   1.00
H357   H     0.24818   0.07153   0.03731   0.00000  Uiso   1.00
H358   H     0.24524   0.92812   0.53049   0.00000  Uiso   1.00
H359   H     0.90864   0.82692   0.63887   0.00000  Uiso   1.00
O360   O     0.32612   0.03980   0.16425   0.00000  Uiso   1.00
O361   O     0.32226   0.85164   0.49931   0.00000  Uiso   1.00
O362   O     0.88064   0.71887   0.64150   0.00000  Uiso   1.00
N363   N     0.30583   0.95224   0.06815   0.00000  Uiso   1.00
N364   N     0.30309   0.81816   0.59431   0.00000  Uiso   1.00
N365   N     0.98839   0.72354   0.69561   0.00000  Uiso   1.00
N366   N     0.26029   0.02981   0.03283   0.00000  Uiso   1.00
N367   N     0.25755   0.89574   0.55900   0.00000  Uiso   1.00
N368   N     0.94285   0.80112   0.66030   0.00000  Uiso   1.00
C369   C     0.84028   0.28372   0.84304   0.00000  Uiso   1.00
C370   C     0.90756   0.30356   0.89656   0.00000  Uiso   1.00
C371   C     0.94277   0.34658   0.88959   0.00000  Uiso   1.00
C372   C     0.00341   0.35835   0.94440   0.00000  Uiso   1.00
C373   C     0.10414   0.39378   0.01845   0.00000  Uiso   1.00
C374   C     0.80534   0.29184   0.89653   0.00000  Uiso   1.00
C375   C     0.75460   0.32501   0.88954   0.00000  Uiso   1.00
C376   C     0.72919   0.32692   0.94432   0.00000  Uiso   1.00
C377   C     0.67119   0.34412   0.01830   0.00000  Uiso   1.00
C378   C     0.83884   0.21765   0.81122   0.00000  Uiso   1.00
C379   C     0.81625   0.18843   0.73250   0.00000  Uiso   1.00
C380   C     0.81903   0.12787   0.71545   0.00000  Uiso   1.00
C381   C     0.81304   0.02987   0.65698   0.00000  Uiso   1.00
C382   C     0.88536   0.22811   0.95275   0.00000  Uiso   1.00
C383   C     0.93204   0.27336   0.95615   0.00000  Uiso   1.00
C384   C     0.99265   0.28506   0.01097   0.00000  Uiso   1.00
C385   C     0.02794   0.32810   0.00409   0.00000  Uiso   1.00
C386   C     0.82982   0.26164   0.95612   0.00000  Uiso   1.00
C387   C     0.80447   0.26350   0.01092   0.00000  Uiso   1.00
C388   C     0.75371   0.29666   0.00402   0.00000  Uiso   1.00
C389   C     0.86333   0.18745   0.87081   0.00000  Uiso   1.00
C390   C     0.86613   0.12691   0.85388   0.00000  Uiso   1.00
C391   C     0.84355   0.09761   0.77515   0.00000  Uiso   1.00
H392   H     0.82122   0.30723   0.79665   0.00000  Uiso   1.00
H393   H     0.92381   0.36995   0.84347   0.00000  Uiso   1.00
H394   H     0.73566   0.34838   0.84342   0.00000  Uiso   1.00
H395   H     0.79731   0.21182   0.68640   0.00000  Uiso   1.00
H396   H     0.04833   0.42618   0.92168   0.00000  Uiso   1.00
H397   H     0.65161   0.38068   0.92154   0.00000  Uiso   1.00
H398   H     0.78160   0.09271   0.59045   0.00000  Uiso   1.00
H399   H     0.90442   0.20460   0.99915   0.00000  Uiso   1.00
H400   H     0.01158   0.26169   0.05708   0.00000  Uiso   1.00
H401   H     0.82343   0.24012   0.05702   0.00000  Uiso   1.00
H402   H     0.88508   0.10356   0.90001   0.00000  Uiso   1.00
H403   H     0.11957   0.33831   0.09506   0.00000  Uiso   1.00
H404   H     0.72284   0.29281   0.09492   0.00000  Uiso   1.00
H405   H     0.85284   0.00485   0.76382   0.00000  Uiso   1.00
O406   O     0.15294   0.42166   0.04284   0.00000  Uiso   1.00
O407   O     0.63244   0.36196   0.04265   0.00000  Uiso   1.00
O408   O     0.80299   0.98416   0.60826   0.00000  Uiso   1.00
N409   N     0.05040   0.39766   0.95453   0.00000  Uiso   1.00
N410   N     0.67949   0.35513   0.95440   0.00000  Uiso   1.00
N411   N     0.80100   0.08590   0.64486   0.00000  Uiso   1.00
N412   N     0.08873   0.35037   0.04782   0.00000  Uiso   1.00
N413   N     0.71782   0.30784   0.04769   0.00000  Uiso   1.00
N414   N     0.83934   0.03862   0.73815   0.00000  Uiso   1.00
C415   C     0.30706   0.64984   0.24201   0.00000  Uiso   1.00
C416   C     0.35792   0.67549   0.32254   0.00000  Uiso   1.00
C417   C     0.35486   0.72526   0.37642   0.00000  Uiso   1.00
C418   C     0.40627   0.74158   0.44681   0.00000  Uiso   1.00
C419   C     0.47726   0.78635   0.56943   0.00000  Uiso   1.00
C420   C     0.33623   0.64685   0.18292   0.00000  Uiso   1.00
C421   C     0.31493   0.67253   0.11940   0.00000  Uiso   1.00
C422   C     0.34809   0.66473   0.07225   0.00000  Uiso   1.00
C423   C     0.38538   0.66499   0.97807   0.00000  Uiso   1.00
C424   C     0.29333   0.58638   0.24056   0.00000  Uiso   1.00
C425   C     0.23596   0.56122   0.22548   0.00000  Uiso   1.00
C426   C     0.23299   0.50250   0.22684   0.00000  Uiso   1.00
C427   C     0.20367   0.40888   0.22216   0.00000  Uiso   1.00
C428   C     0.40380   0.59031   0.27120   0.00000  Uiso   1.00
C429   C     0.41046   0.64316   0.33839   0.00000  Uiso   1.00
C430   C     0.46189   0.65940   0.40872   0.00000  Uiso   1.00
C431   C     0.45891   0.70918   0.46270   0.00000  Uiso   1.00
C432   C     0.38878   0.61452   0.19877   0.00000  Uiso   1.00
C433   C     0.42196   0.60667   0.15170   0.00000  Uiso   1.00
C434   C     0.40072   0.63234   0.08813   0.00000  Uiso   1.00
C435   C     0.34588   0.55405   0.25641   0.00000  Uiso   1.00
C436   C     0.34299   0.49536   0.25779   0.00000  Uiso   1.00
C437   C     0.28562   0.47011   0.24272   0.00000  Uiso   1.00
H438   H     0.26616   0.67501   0.22966   0.00000  Uiso   1.00
H439   H     0.31419   0.75028   0.36413   0.00000  Uiso   1.00
H440   H     0.27427   0.69755   0.10715   0.00000  Uiso   1.00
H441   H     0.19531   0.58625   0.21322   0.00000  Uiso   1.00
H442   H     0.39063   0.81947   0.52020   0.00000  Uiso   1.00
H443   H     0.30644   0.70828   0.97831   0.00000  Uiso   1.00
H444   H     0.13993   0.47359   0.20198   0.00000  Uiso   1.00
H445   H     0.44471   0.56513   0.28354   0.00000  Uiso   1.00
H446   H     0.50254   0.63437   0.42097   0.00000  Uiso   1.00
H447   H     0.46262   0.58164   0.16398   0.00000  Uiso   1.00
H448   H     0.38366   0.47035   0.27006   0.00000  Uiso   1.00
H449   H     0.54350   0.72540   0.56633   0.00000  Uiso   1.00
H450   H     0.45931   0.61420   0.02444   0.00000  Uiso   1.00
H451   H     0.29280   0.37951   0.24812   0.00000  Uiso   1.00
O452   O     0.50190   0.81998   0.63269   0.00000  Uiso   1.00
O453   O     0.39143   0.67408   0.92175   0.00000  Uiso   1.00
O454   O     0.17298   0.36618   0.21521   0.00000  Uiso   1.00
N455   N     0.41867   0.78782   0.51220   0.00000  Uiso   1.00
N456   N     0.33996   0.68387   0.00558   0.00000  Uiso   1.00
N457   N     0.18428   0.46445   0.21467   0.00000  Uiso   1.00
N458   N     0.50093   0.73720   0.53702   0.00000  Uiso   1.00
N459   N     0.42222   0.63325   0.03040   0.00000  Uiso   1.00
N460   N     0.26654   0.41383   0.23949   0.00000  Uiso   1.00
C461   C     0.85581   0.34882   0.37507   0.00000  Uiso   1.00
C462   C     0.87702   0.39763   0.45015   0.00000  Uiso   1.00
C463   C     0.91440   0.44751   0.46600   0.00000  Uiso   1.00
C464   C     0.92861   0.48695   0.53807   0.00000  Uiso   1.00
C465   C     0.96498   0.56427   0.64642   0.00000  Uiso   1.00
C466   C     0.87674   0.29214   0.40072   0.00000  Uiso   1.00
C467   C     0.91388   0.25332   0.37499   0.00000  Uiso   1.00
C468   C     0.92784   0.20394   0.40545   0.00000  Uiso   1.00
C469   C     0.96373   0.11746   0.43700   0.00000  Uiso   1.00
C470   C     0.78540   0.34389   0.34276   0.00000  Uiso   1.00
C471   C     0.74574   0.34856   0.26830   0.00000  Uiso   1.00
C472   C     0.68280   0.34274   0.24995   0.00000  Uiso   1.00
C473   C     0.57688   0.33661   0.19152   0.00000  Uiso   1.00
C474   C     0.81456   0.33015   0.47490   0.00000  Uiso   1.00
C475   C     0.85462   0.38749   0.50437   0.00000  Uiso   1.00
C476   C     0.86877   0.42686   0.57644   0.00000  Uiso   1.00
C477   C     0.90617   0.47679   0.59239   0.00000  Uiso   1.00
C478   C     0.85434   0.28199   0.45494   0.00000  Uiso   1.00
C479   C     0.86824   0.23266   0.48543   0.00000  Uiso   1.00
C480   C     0.90539   0.19378   0.45977   0.00000  Uiso   1.00
C481   C     0.76300   0.33375   0.39698   0.00000  Uiso   1.00
C482   C     0.70011   0.32791   0.37874   0.00000  Uiso   1.00
C483   C     0.66035   0.33258   0.30427   0.00000  Uiso   1.00
H484   H     0.87325   0.35671   0.33286   0.00000  Uiso   1.00
H485   H     0.93174   0.45534   0.42402   0.00000  Uiso   1.00
H486   H     0.93120   0.26117   0.33303   0.00000  Uiso   1.00
H487   H     0.76309   0.35641   0.22636   0.00000  Uiso   1.00
H488   H     0.98672   0.56021   0.54902   0.00000  Uiso   1.00
H489   H     0.98557   0.15079   0.35713   0.00000  Uiso   1.00
H490   H     0.63108   0.35161   0.13218   0.00000  Uiso   1.00
H491   H     0.79712   0.32225   0.51711   0.00000  Uiso   1.00
H492   H     0.85143   0.41900   0.61839   0.00000  Uiso   1.00
H493   H     0.85090   0.22482   0.52739   0.00000  Uiso   1.00
H494   H     0.68279   0.32006   0.42072   0.00000  Uiso   1.00
H495   H     0.92154   0.53071   0.70677   0.00000  Uiso   1.00
H496   H     0.92039   0.12128   0.51487   0.00000  Uiso   1.00
H497   H     0.56590   0.32211   0.28994   0.00000  Uiso   1.00
O498   O     0.99124   0.60972   0.69120   0.00000  Uiso   1.00
O499   O     0.98973   0.07256   0.43943   0.00000  Uiso   1.00
O500   O     0.52465   0.33604   0.14432   0.00000  Uiso   1.00
N501   N     0.96391   0.54000   0.57224   0.00000  Uiso   1.00
N502   N     0.96285   0.15721   0.39284   0.00000  Uiso   1.00
N503   N     0.63143   0.34495   0.18253   0.00000  Uiso   1.00
N504   N     0.92884   0.52412   0.65712   0.00000  Uiso   1.00
N505   N     0.92778   0.14134   0.47773   0.00000  Uiso   1.00
N506   N     0.59636   0.32907   0.26742   0.00000  Uiso   1.00
C507   C     0.30819   0.25951   0.79158   0.00000  Uiso   1.00
C508   C     0.36023   0.29541   0.78981   0.00000  Uiso   1.00
C509   C     0.41993   0.30662   0.84720   0.00000  Uiso   1.00
C510   C     0.46074   0.34040   0.83468   0.00000  Uiso   1.00
C511   C     0.54432   0.39285   0.84222   0.00000  Uiso   1.00
C512   C     0.25513   0.29963   0.78354   0.00000  Uiso   1.00
C513   C     0.22647   0.31439   0.83566   0.00000  Uiso   1.00
C514   C     0.17881   0.35172   0.81785   0.00000  Uiso   1.00
C515   C     0.09919   0.41070   0.81563   0.00000  Uiso   1.00
C516   C     0.28612   0.21095   0.71621   0.00000  Uiso   1.00
C517   C     0.28350   0.15115   0.71172   0.00000  Uiso   1.00
C518   C     0.26192   0.11382   0.63722   0.00000  Uiso   1.00
C519   C     0.23043   0.03511   0.53047   0.00000  Uiso   1.00
C520   C     0.27450   0.29957   0.66728   0.00000  Uiso   1.00
C521   C     0.34193   0.31717   0.72230   0.00000  Uiso   1.00
C522   C     0.38266   0.35094   0.70968   0.00000  Uiso   1.00
C523   C     0.44242   0.36220   0.76705   0.00000  Uiso   1.00
C524   C     0.23683   0.32139   0.71603   0.00000  Uiso   1.00
C525   C     0.18920   0.35871   0.69814   0.00000  Uiso   1.00
C526   C     0.16048   0.37352   0.75022   0.00000  Uiso   1.00
C527   C     0.26783   0.23271   0.64870   0.00000  Uiso   1.00
C528   C     0.24624   0.19547   0.57420   0.00000  Uiso   1.00
C529   C     0.24360   0.13562   0.56959   0.00000  Uiso   1.00
H530   H     0.32243   0.24257   0.84414   0.00000  Uiso   1.00
H531   H     0.43407   0.28978   0.89944   0.00000  Uiso   1.00
H532   H     0.24063   0.29754   0.88789   0.00000  Uiso   1.00
H533   H     0.29767   0.13433   0.76397   0.00000  Uiso   1.00
H534   H     0.54977   0.35172   0.93100   0.00000  Uiso   1.00
H535   H     0.14188   0.36808   0.90663   0.00000  Uiso   1.00
H536   H     0.26215   0.02391   0.64532   0.00000  Uiso   1.00
H537   H     0.26026   0.31651   0.61472   0.00000  Uiso   1.00
H538   H     0.36849   0.36777   0.65743   0.00000  Uiso   1.00
H539   H     0.17505   0.37554   0.64589   0.00000  Uiso   1.00
H540   H     0.23209   0.21232   0.52197   0.00000  Uiso   1.00
H541   H     0.49654   0.41503   0.73458   0.00000  Uiso   1.00
H542   H     0.08865   0.43138   0.71021   0.00000  Uiso   1.00
H543   H     0.20892   0.08722   0.44890   0.00000  Uiso   1.00
O544   O     0.59547   0.41578   0.86504   0.00000  Uiso   1.00
O545   O     0.06033   0.43722   0.83306   0.00000  Uiso   1.00
O546   O     0.21812   0.98569   0.49023   0.00000  Uiso   1.00
N547   N     0.52239   0.35958   0.87890   0.00000  Uiso   1.00
N548   N     0.14105   0.37487   0.85612   0.00000  Uiso   1.00
N549   N     0.25347   0.05311   0.61182   0.00000  Uiso   1.00
N550   N     0.49375   0.39364   0.77321   0.00000  Uiso   1.00
N551   N     0.11241   0.40894   0.75043   0.00000  Uiso   1.00
N552   N     0.22483   0.08717   0.50613   0.00000  Uiso   1.00
