data_job_00466
_audit_creation_date              2018-12-19
_audit_creation_method            'Materials Studio'
_symmetry_space_group_name_H-M    'P1'
_symmetry_Int_Tables_number       1
_symmetry_cell_setting            triclinic
loop_
_symmetry_equiv_pos_as_xyz
  x,y,z
_cell_length_a                    16.7162
_cell_length_b                    25.9041
_cell_length_c                    20.7870
_cell_angle_alpha                 90.0000
_cell_angle_beta                  143.1284
_cell_angle_gamma                 90.0000
loop_
_atom_site_label
_atom_site_type_symbol
_atom_site_fract_x
_atom_site_fract_y
_atom_site_fract_z
_atom_site_U_iso_or_equiv
_atom_site_adp_type
_atom_site_occupancy
C1     C     0.36395   0.81301   0.43038   0.00000  Uiso   1.00
C2     C     0.47460   0.79822   0.45475   0.00000  Uiso   1.00
C3     C     0.50015   0.74886   0.44835   0.00000  Uiso   1.00
C4     C     0.60597   0.74334   0.47393   0.00000  Uiso   1.00
C5     C     0.76605   0.71394   0.50712   0.00000  Uiso   1.00
C6     C     0.43257   0.83951   0.53105   0.00000  Uiso   1.00
C7     C     0.42276   0.82486   0.58878   0.00000  Uiso   1.00
C8     C     0.49320   0.85410   0.67858   0.00000  Uiso   1.00
C9     C     0.58795   0.88882   0.83018   0.00000  Uiso   1.00
C10    C     0.28234   0.85472   0.34428   0.00000  Uiso   1.00
C11    C     0.14620   0.85287   0.24499   0.00000  Uiso   1.00
C12    C     0.09014   0.89491   0.17755   0.00000  Uiso   1.00
C13    C     0.95162   0.95324   0.03917   0.00000  Uiso   1.00
C14    C     0.50645   0.89098   0.48718   0.00000  Uiso   1.00
C15    C     0.55200   0.84058   0.48560   0.00000  Uiso   1.00
C16    C     0.65781   0.83513   0.51119   0.00000  Uiso   1.00
C17    C     0.68351   0.78577   0.50483   0.00000  Uiso   1.00
C18    C     0.50997   0.88186   0.56190   0.00000  Uiso   1.00
C19    C     0.58043   0.91113   0.65162   0.00000  Uiso   1.00
C20    C     0.57074   0.89653   0.70949   0.00000  Uiso   1.00
C21    C     0.35973   0.89707   0.37512   0.00000  Uiso   1.00
C22    C     0.30387   0.93913   0.30783   0.00000  Uiso   1.00
C23    C     0.16768   0.93734   0.20845   0.00000  Uiso   1.00
H24    H     0.30369   0.78004   0.40637   0.00000  Uiso   1.00
H25    H     0.44023   0.71610   0.42448   0.00000  Uiso   1.00
H26    H     0.36285   0.79209   0.56488   0.00000  Uiso   1.00
H27    H     0.08634   0.82009   0.22114   0.00000  Uiso   1.00
H28    H     0.62578   0.66389   0.45821   0.00000  Uiso   1.00
H29    H     0.46258   0.82413   0.75424   0.00000  Uiso   1.00
H30    H     0.87949   0.88316   0.02939   0.00000  Uiso   1.00
H31    H     0.56671   0.92395   0.51120   0.00000  Uiso   1.00
H32    H     0.71769   0.86790   0.53506   0.00000  Uiso   1.00
H33    H     0.64031   0.94390   0.67547   0.00000  Uiso   1.00
H34    H     0.36379   0.97189   0.33173   0.00000  Uiso   1.00
H35    H     0.85098   0.78710   0.54796   0.00000  Uiso   1.00
H36    H     0.68777   0.94734   0.84399   0.00000  Uiso   1.00
H37    H     0.10469   0.00637   0.11915   0.00000  Uiso   1.00
O38    O     0.83298   0.68602   0.51693   0.00000  Uiso   1.00
O39    O     0.61884   0.89627   0.90529   0.00000  Uiso   1.00
O40    O     0.85385   0.97371   0.95431   0.00000  Uiso   1.00
N41    N     0.65804   0.70058   0.47603   0.00000  Uiso   1.00
N42    N     0.50548   0.85039   0.75282   0.00000  Uiso   1.00
N43    N     0.96033   0.90559   0.07516   0.00000  Uiso   1.00
N44    N     0.77922   0.76687   0.52433   0.00000  Uiso   1.00
N45    N     0.62665   0.91669   0.80111   0.00000  Uiso   1.00
N46    N     0.08151   0.97189   0.12345   0.00000  Uiso   1.00
C47    C     0.21475   0.68541   0.42640   0.00000  Uiso   1.00
C48    C     0.15256   0.69948   0.45100   0.00000  Uiso   1.00
C49    C     0.11242   0.74850   0.44388   0.00000  Uiso   1.00
C50    C     0.05781   0.75338   0.46981   0.00000  Uiso   1.00
C51    C     0.96341   0.78171   0.50320   0.00000  Uiso   1.00
C52    C     0.34762   0.65964   0.52737   0.00000  Uiso   1.00
C53    C     0.47149   0.67516   0.58445   0.00000  Uiso   1.00
C54    C     0.58108   0.64649   0.67467   0.00000  Uiso   1.00
C55    C     0.78951   0.61295   0.82658   0.00000  Uiso   1.00
C56    C     0.12653   0.64330   0.34109   0.00000  Uiso   1.00
C57    C     0.06453   0.64508   0.24156   0.00000  Uiso   1.00
C58    C     0.98799   0.60265   0.17496   0.00000  Uiso   1.00
C59    C     0.85314   0.54374   0.03765   0.00000  Uiso   1.00
C60    C     0.18912   0.60688   0.48512   0.00000  Uiso   1.00
C61    C     0.13864   0.65682   0.48289   0.00000  Uiso   1.00
C62    C     0.08406   0.66162   0.50884   0.00000  Uiso   1.00
C63    C     0.04385   0.71065   0.50175   0.00000  Uiso   1.00
C64    C     0.33370   0.61699   0.55926   0.00000  Uiso   1.00
C65    C     0.44313   0.58828   0.64941   0.00000  Uiso   1.00
C66    C     0.56713   0.60376   0.70662   0.00000  Uiso   1.00
C67    C     0.11260   0.60065   0.37298   0.00000  Uiso   1.00
C68    C     0.03616   0.55820   0.30652   0.00000  Uiso   1.00
C69    C     0.97404   0.55992   0.20691   0.00000  Uiso   1.00
H70    H     0.22560   0.71861   0.40158   0.00000  Uiso   1.00
H71    H     0.12323   0.78150   0.41920   0.00000  Uiso   1.00
H72    H     0.48224   0.70817   0.55975   0.00000  Uiso   1.00
H73    H     0.07532   0.67809   0.21691   0.00000  Uiso   1.00
H74    H     0.00363   0.83242   0.45284   0.00000  Uiso   1.00
H75    H     0.76061   0.67778   0.74917   0.00000  Uiso   1.00
H76    H     0.90256   0.61436   0.02623   0.00000  Uiso   1.00
H77    H     0.17828   0.57368   0.50995   0.00000  Uiso   1.00
H78    H     0.07330   0.62861   0.53351   0.00000  Uiso   1.00
H79    H     0.43231   0.55528   0.67406   0.00000  Uiso   1.00
H80    H     0.02540   0.52520   0.33122   0.00000  Uiso   1.00
H81    H     0.96311   0.70833   0.54563   0.00000  Uiso   1.00
H82    H     0.72010   0.55369   0.84195   0.00000  Uiso   1.00
H83    H     0.86205   0.49027   0.11901   0.00000  Uiso   1.00
O84    O     0.91521   0.80913   0.51282   0.00000  Uiso   1.00
O85    O     0.90833   0.60624   0.90157   0.00000  Uiso   1.00
O86    O     0.78259   0.52304   0.95309   0.00000  Uiso   1.00
N87    N     0.00848   0.79567   0.47142   0.00000  Uiso   1.00
N88    N     0.71621   0.65110   0.74849   0.00000  Uiso   1.00
N89    N     0.91404   0.59180   0.07261   0.00000  Uiso   1.00
N90    N     0.98667   0.72890   0.52135   0.00000  Uiso   1.00
N91    N     0.69441   0.58433   0.79841   0.00000  Uiso   1.00
N92    N     0.89223   0.52503   0.12253   0.00000  Uiso   1.00
C93    C     0.63605   0.31301   0.06962   0.00000  Uiso   1.00
C94    C     0.52540   0.29822   0.04525   0.00000  Uiso   1.00
C95    C     0.49985   0.24886   0.05165   0.00000  Uiso   1.00
C96    C     0.39403   0.24334   0.02607   0.00000  Uiso   1.00
C97    C     0.23395   0.21394   0.99288   0.00000  Uiso   1.00
C98    C     0.56743   0.33951   0.96895   0.00000  Uiso   1.00
C99    C     0.57724   0.32486   0.91122   0.00000  Uiso   1.00
C100   C     0.50680   0.35410   0.82142   0.00000  Uiso   1.00
C101   C     0.41205   0.38882   0.66982   0.00000  Uiso   1.00
C102   C     0.71766   0.35472   0.15572   0.00000  Uiso   1.00
C103   C     0.85380   0.35287   0.25501   0.00000  Uiso   1.00
C104   C     0.90986   0.39491   0.32245   0.00000  Uiso   1.00
C105   C     0.04838   0.45324   0.46083   0.00000  Uiso   1.00
C106   C     0.49355   0.39098   0.01282   0.00000  Uiso   1.00
C107   C     0.44800   0.34058   0.01440   0.00000  Uiso   1.00
C108   C     0.34219   0.33513   0.98881   0.00000  Uiso   1.00
C109   C     0.31649   0.28577   0.99517   0.00000  Uiso   1.00
C110   C     0.49003   0.38186   0.93810   0.00000  Uiso   1.00
C111   C     0.41957   0.41113   0.84838   0.00000  Uiso   1.00
C112   C     0.42926   0.39653   0.79051   0.00000  Uiso   1.00
C113   C     0.64027   0.39707   0.12488   0.00000  Uiso   1.00
C114   C     0.69613   0.43913   0.19217   0.00000  Uiso   1.00
C115   C     0.83232   0.43734   0.29155   0.00000  Uiso   1.00
H116   H     0.69631   0.28004   0.09363   0.00000  Uiso   1.00
H117   H     0.55977   0.21610   0.07552   0.00000  Uiso   1.00
H118   H     0.63715   0.29209   0.93512   0.00000  Uiso   1.00
H119   H     0.91366   0.32009   0.27886   0.00000  Uiso   1.00
H120   H     0.37422   0.16389   0.04179   0.00000  Uiso   1.00
H121   H     0.53742   0.32413   0.74576   0.00000  Uiso   1.00
H122   H     0.12051   0.38316   0.47061   0.00000  Uiso   1.00
H123   H     0.43329   0.42395   0.98880   0.00000  Uiso   1.00
H124   H     0.28231   0.36790   0.96494   0.00000  Uiso   1.00
H125   H     0.35969   0.44390   0.82453   0.00000  Uiso   1.00
H126   H     0.63621   0.47189   0.16827   0.00000  Uiso   1.00
H127   H     0.14902   0.28710   0.95204   0.00000  Uiso   1.00
H128   H     0.31223   0.44734   0.65601   0.00000  Uiso   1.00
H129   H     0.89531   0.50637   0.38085   0.00000  Uiso   1.00
O130   O     0.16702   0.18602   0.98307   0.00000  Uiso   1.00
O131   O     0.38116   0.39627   0.59471   0.00000  Uiso   1.00
O132   O     0.14615   0.47371   0.54569   0.00000  Uiso   1.00
N133   N     0.34196   0.20058   0.02397   0.00000  Uiso   1.00
N134   N     0.49452   0.35039   0.74718   0.00000  Uiso   1.00
N135   N     0.03967   0.40559   0.42484   0.00000  Uiso   1.00
N136   N     0.22078   0.26687   0.97567   0.00000  Uiso   1.00
N137   N     0.37335   0.41669   0.69889   0.00000  Uiso   1.00
N138   N     0.91849   0.47189   0.37655   0.00000  Uiso   1.00
C139   C     0.78525   0.18541   0.07360   0.00000  Uiso   1.00
C140   C     0.84744   0.19948   0.04900   0.00000  Uiso   1.00
C141   C     0.88758   0.24850   0.05612   0.00000  Uiso   1.00
C142   C     0.94219   0.25338   0.03019   0.00000  Uiso   1.00
C143   C     0.03659   0.28171   0.99680   0.00000  Uiso   1.00
C144   C     0.65238   0.15964   0.97263   0.00000  Uiso   1.00
C145   C     0.52851   0.17516   0.91555   0.00000  Uiso   1.00
C146   C     0.41892   0.14649   0.82533   0.00000  Uiso   1.00
C147   C     0.21049   0.11295   0.67342   0.00000  Uiso   1.00
C148   C     0.87347   0.14330   0.15891   0.00000  Uiso   1.00
C149   C     0.93547   0.14508   0.25844   0.00000  Uiso   1.00
C150   C     0.01201   0.10265   0.32504   0.00000  Uiso   1.00
C151   C     0.14686   0.04374   0.46235   0.00000  Uiso   1.00
C152   C     0.81088   0.10688   0.01488   0.00000  Uiso   1.00
C153   C     0.86136   0.15682   0.01711   0.00000  Uiso   1.00
C154   C     0.91594   0.16162   0.99116   0.00000  Uiso   1.00
C155   C     0.95615   0.21065   0.99825   0.00000  Uiso   1.00
C156   C     0.66630   0.11699   0.94074   0.00000  Uiso   1.00
C157   C     0.55687   0.08828   0.85059   0.00000  Uiso   1.00
C158   C     0.43287   0.10376   0.79338   0.00000  Uiso   1.00
C159   C     0.88740   0.10065   0.12702   0.00000  Uiso   1.00
C160   C     0.96384   0.05820   0.19348   0.00000  Uiso   1.00
C161   C     0.02596   0.05992   0.29309   0.00000  Uiso   1.00
H162   H     0.77440   0.21861   0.09842   0.00000  Uiso   1.00
H163   H     0.87677   0.28150   0.08080   0.00000  Uiso   1.00
H164   H     0.51776   0.20817   0.94025   0.00000  Uiso   1.00
H165   H     0.92468   0.17809   0.28309   0.00000  Uiso   1.00
H166   H     0.99637   0.33242   0.04716   0.00000  Uiso   1.00
H167   H     0.23939   0.17778   0.75083   0.00000  Uiso   1.00
H168   H     0.09744   0.11436   0.47377   0.00000  Uiso   1.00
H169   H     0.82172   0.07368   0.99005   0.00000  Uiso   1.00
H170   H     0.92670   0.12861   0.96649   0.00000  Uiso   1.00
H171   H     0.56769   0.05528   0.82594   0.00000  Uiso   1.00
H172   H     0.97460   0.02520   0.16878   0.00000  Uiso   1.00
H173   H     0.03689   0.20833   0.95437   0.00000  Uiso   1.00
H174   H     0.27990   0.05369   0.65805   0.00000  Uiso   1.00
H175   H     0.13795   0.99027   0.38099   0.00000  Uiso   1.00
O176   O     0.08479   0.30913   0.98718   0.00000  Uiso   1.00
O177   O     0.09167   0.10624   0.59843   0.00000  Uiso   1.00
O178   O     0.21741   0.02304   0.54691   0.00000  Uiso   1.00
N179   N     0.99152   0.29567   0.02858   0.00000  Uiso   1.00
N180   N     0.28379   0.15110   0.75151   0.00000  Uiso   1.00
N181   N     0.08596   0.09180   0.42739   0.00000  Uiso   1.00
N182   N     0.01333   0.22890   0.97865   0.00000  Uiso   1.00
N183   N     0.30559   0.08433   0.70159   0.00000  Uiso   1.00
N184   N     0.10777   0.02503   0.37747   0.00000  Uiso   1.00
C185   C     0.63605   0.18699   0.56962   0.00000  Uiso   1.00
C186   C     0.52540   0.20178   0.54525   0.00000  Uiso   1.00
C187   C     0.49985   0.25114   0.55165   0.00000  Uiso   1.00
C188   C     0.39403   0.25666   0.52607   0.00000  Uiso   1.00
C189   C     0.23395   0.28606   0.49288   0.00000  Uiso   1.00
C190   C     0.56743   0.16049   0.46895   0.00000  Uiso   1.00
C191   C     0.57724   0.17514   0.41122   0.00000  Uiso   1.00
C192   C     0.50680   0.14590   0.32142   0.00000  Uiso   1.00
C193   C     0.41205   0.11118   0.16982   0.00000  Uiso   1.00
C194   C     0.71766   0.14528   0.65572   0.00000  Uiso   1.00
C195   C     0.85380   0.14713   0.75501   0.00000  Uiso   1.00
C196   C     0.90986   0.10509   0.82245   0.00000  Uiso   1.00
C197   C     0.04838   0.04676   0.96083   0.00000  Uiso   1.00
C198   C     0.49355   0.10902   0.51282   0.00000  Uiso   1.00
C199   C     0.44800   0.15942   0.51440   0.00000  Uiso   1.00
C200   C     0.34219   0.16487   0.48881   0.00000  Uiso   1.00
C201   C     0.31649   0.21423   0.49517   0.00000  Uiso   1.00
C202   C     0.49003   0.11814   0.43810   0.00000  Uiso   1.00
C203   C     0.41957   0.08887   0.34838   0.00000  Uiso   1.00
C204   C     0.42926   0.10347   0.29051   0.00000  Uiso   1.00
C205   C     0.64027   0.10293   0.62488   0.00000  Uiso   1.00
C206   C     0.69613   0.06087   0.69217   0.00000  Uiso   1.00
C207   C     0.83232   0.06266   0.79155   0.00000  Uiso   1.00
H208   H     0.69631   0.21996   0.59363   0.00000  Uiso   1.00
H209   H     0.55977   0.28390   0.57552   0.00000  Uiso   1.00
H210   H     0.63715   0.20791   0.43512   0.00000  Uiso   1.00
H211   H     0.91366   0.17991   0.77886   0.00000  Uiso   1.00
H212   H     0.37422   0.33611   0.54179   0.00000  Uiso   1.00
H213   H     0.53742   0.17587   0.24576   0.00000  Uiso   1.00
H214   H     0.12051   0.11684   0.97061   0.00000  Uiso   1.00
H215   H     0.43329   0.07605   0.48880   0.00000  Uiso   1.00
H216   H     0.28231   0.13210   0.46494   0.00000  Uiso   1.00
H217   H     0.35969   0.05610   0.32453   0.00000  Uiso   1.00
H218   H     0.63621   0.02811   0.66827   0.00000  Uiso   1.00
H219   H     0.14902   0.21290   0.45204   0.00000  Uiso   1.00
H220   H     0.31223   0.05266   0.15601   0.00000  Uiso   1.00
H221   H     0.89531   0.99363   0.88085   0.00000  Uiso   1.00
O222   O     0.16702   0.31398   0.48307   0.00000  Uiso   1.00
O223   O     0.38116   0.10373   0.09471   0.00000  Uiso   1.00
O224   O     0.14615   0.02629   0.04569   0.00000  Uiso   1.00
N225   N     0.34196   0.29942   0.52397   0.00000  Uiso   1.00
N226   N     0.49452   0.14961   0.24718   0.00000  Uiso   1.00
N227   N     0.03967   0.09441   0.92484   0.00000  Uiso   1.00
N228   N     0.22078   0.23313   0.47567   0.00000  Uiso   1.00
N229   N     0.37335   0.08331   0.19889   0.00000  Uiso   1.00
N230   N     0.91849   0.02811   0.87655   0.00000  Uiso   1.00
C231   C     0.78525   0.31459   0.57360   0.00000  Uiso   1.00
C232   C     0.84744   0.30052   0.54900   0.00000  Uiso   1.00
C233   C     0.88758   0.25150   0.55612   0.00000  Uiso   1.00
C234   C     0.94219   0.24662   0.53019   0.00000  Uiso   1.00
C235   C     0.03659   0.21829   0.49680   0.00000  Uiso   1.00
C236   C     0.65238   0.34036   0.47263   0.00000  Uiso   1.00
C237   C     0.52851   0.32484   0.41555   0.00000  Uiso   1.00
C238   C     0.41892   0.35351   0.32533   0.00000  Uiso   1.00
C239   C     0.21049   0.38705   0.17342   0.00000  Uiso   1.00
C240   C     0.87347   0.35670   0.65891   0.00000  Uiso   1.00
C241   C     0.93547   0.35492   0.75844   0.00000  Uiso   1.00
C242   C     0.01201   0.39735   0.82504   0.00000  Uiso   1.00
C243   C     0.14686   0.45626   0.96235   0.00000  Uiso   1.00
C244   C     0.81088   0.39312   0.51488   0.00000  Uiso   1.00
C245   C     0.86136   0.34318   0.51711   0.00000  Uiso   1.00
C246   C     0.91594   0.33838   0.49116   0.00000  Uiso   1.00
C247   C     0.95615   0.28935   0.49825   0.00000  Uiso   1.00
C248   C     0.66630   0.38301   0.44074   0.00000  Uiso   1.00
C249   C     0.55687   0.41172   0.35059   0.00000  Uiso   1.00
C250   C     0.43287   0.39624   0.29338   0.00000  Uiso   1.00
C251   C     0.88740   0.39935   0.62702   0.00000  Uiso   1.00
C252   C     0.96385   0.44180   0.69348   0.00000  Uiso   1.00
C253   C     0.02596   0.44008   0.79309   0.00000  Uiso   1.00
H254   H     0.77440   0.28139   0.59842   0.00000  Uiso   1.00
H255   H     0.87677   0.21850   0.58080   0.00000  Uiso   1.00
H256   H     0.51776   0.29183   0.44025   0.00000  Uiso   1.00
H257   H     0.92468   0.32191   0.78309   0.00000  Uiso   1.00
H258   H     0.99637   0.16758   0.54716   0.00000  Uiso   1.00
H259   H     0.23939   0.32222   0.25083   0.00000  Uiso   1.00
H260   H     0.09744   0.38564   0.97377   0.00000  Uiso   1.00
H261   H     0.82172   0.42632   0.49005   0.00000  Uiso   1.00
H262   H     0.92670   0.37139   0.46649   0.00000  Uiso   1.00
H263   H     0.56769   0.44472   0.32594   0.00000  Uiso   1.00
H264   H     0.97460   0.47480   0.66878   0.00000  Uiso   1.00
H265   H     0.03689   0.29167   0.45437   0.00000  Uiso   1.00
H266   H     0.27990   0.44631   0.15805   0.00000  Uiso   1.00
H267   H     0.13795   0.50973   0.88099   0.00000  Uiso   1.00
O268   O     0.08479   0.19087   0.48718   0.00000  Uiso   1.00
O269   O     0.09167   0.39376   0.09843   0.00000  Uiso   1.00
O270   O     0.21741   0.47696   0.04691   0.00000  Uiso   1.00
N271   N     0.99152   0.20433   0.52858   0.00000  Uiso   1.00
N272   N     0.28379   0.34890   0.25151   0.00000  Uiso   1.00
N273   N     0.08596   0.40820   0.92739   0.00000  Uiso   1.00
N274   N     0.01333   0.27110   0.47865   0.00000  Uiso   1.00
N275   N     0.30559   0.41567   0.20159   0.00000  Uiso   1.00
N276   N     0.10777   0.47497   0.87747   0.00000  Uiso   1.00
C277   C     0.36395   0.68699   0.93038   0.00000  Uiso   1.00
C278   C     0.47460   0.70178   0.95475   0.00000  Uiso   1.00
C279   C     0.50015   0.75114   0.94835   0.00000  Uiso   1.00
C280   C     0.60597   0.75666   0.97393   0.00000  Uiso   1.00
C281   C     0.76605   0.78606   0.00712   0.00000  Uiso   1.00
C282   C     0.43257   0.66049   0.03105   0.00000  Uiso   1.00
C283   C     0.42276   0.67514   0.08878   0.00000  Uiso   1.00
C284   C     0.49320   0.64590   0.17858   0.00000  Uiso   1.00
C285   C     0.58795   0.61118   0.33018   0.00000  Uiso   1.00
C286   C     0.28234   0.64528   0.84428   0.00000  Uiso   1.00
C287   C     0.14620   0.64713   0.74499   0.00000  Uiso   1.00
C288   C     0.09014   0.60509   0.67755   0.00000  Uiso   1.00
C289   C     0.95162   0.54676   0.53917   0.00000  Uiso   1.00
C290   C     0.50645   0.60902   0.98718   0.00000  Uiso   1.00
C291   C     0.55200   0.65942   0.98560   0.00000  Uiso   1.00
C292   C     0.65781   0.66487   0.01119   0.00000  Uiso   1.00
C293   C     0.68351   0.71423   0.00483   0.00000  Uiso   1.00
C294   C     0.50997   0.61814   0.06190   0.00000  Uiso   1.00
C295   C     0.58043   0.58887   0.15162   0.00000  Uiso   1.00
C296   C     0.57074   0.60347   0.20949   0.00000  Uiso   1.00
C297   C     0.35973   0.60293   0.87512   0.00000  Uiso   1.00
C298   C     0.30387   0.56087   0.80783   0.00000  Uiso   1.00
C299   C     0.16768   0.56266   0.70845   0.00000  Uiso   1.00
H300   H     0.30369   0.71996   0.90637   0.00000  Uiso   1.00
H301   H     0.44023   0.78390   0.92448   0.00000  Uiso   1.00
H302   H     0.36285   0.70791   0.06488   0.00000  Uiso   1.00
H303   H     0.08634   0.67991   0.72114   0.00000  Uiso   1.00
H304   H     0.62578   0.83611   0.95821   0.00000  Uiso   1.00
H305   H     0.46258   0.67587   0.25424   0.00000  Uiso   1.00
H306   H     0.87949   0.61684   0.52939   0.00000  Uiso   1.00
H307   H     0.56671   0.57605   0.01120   0.00000  Uiso   1.00
H308   H     0.71769   0.63210   0.03506   0.00000  Uiso   1.00
H309   H     0.64031   0.55610   0.17547   0.00000  Uiso   1.00
H310   H     0.36379   0.52811   0.83173   0.00000  Uiso   1.00
H311   H     0.85098   0.71290   0.04796   0.00000  Uiso   1.00
H312   H     0.68777   0.55266   0.34399   0.00000  Uiso   1.00
H313   H     0.10469   0.49363   0.61915   0.00000  Uiso   1.00
O314   O     0.83298   0.81398   0.01693   0.00000  Uiso   1.00
O315   O     0.61884   0.60373   0.40529   0.00000  Uiso   1.00
O316   O     0.85385   0.52629   0.45431   0.00000  Uiso   1.00
N317   N     0.65804   0.79942   0.97603   0.00000  Uiso   1.00
N318   N     0.50548   0.64961   0.25282   0.00000  Uiso   1.00
N319   N     0.96033   0.59441   0.57516   0.00000  Uiso   1.00
N320   N     0.77922   0.73313   0.02433   0.00000  Uiso   1.00
N321   N     0.62665   0.58331   0.30111   0.00000  Uiso   1.00
N322   N     0.08151   0.52811   0.62345   0.00000  Uiso   1.00
C323   C     0.21475   0.81459   0.92640   0.00000  Uiso   1.00
C324   C     0.15256   0.80052   0.95100   0.00000  Uiso   1.00
C325   C     0.11242   0.75150   0.94388   0.00000  Uiso   1.00
C326   C     0.05781   0.74662   0.96981   0.00000  Uiso   1.00
C327   C     0.96341   0.71829   0.00320   0.00000  Uiso   1.00
C328   C     0.34762   0.84036   0.02737   0.00000  Uiso   1.00
C329   C     0.47149   0.82484   0.08445   0.00000  Uiso   1.00
C330   C     0.58108   0.85351   0.17467   0.00000  Uiso   1.00
C331   C     0.78951   0.88705   0.32658   0.00000  Uiso   1.00
C332   C     0.12653   0.85670   0.84109   0.00000  Uiso   1.00
C333   C     0.06453   0.85492   0.74156   0.00000  Uiso   1.00
C334   C     0.98799   0.89735   0.67496   0.00000  Uiso   1.00
C335   C     0.85314   0.95626   0.53765   0.00000  Uiso   1.00
C336   C     0.18912   0.89312   0.98512   0.00000  Uiso   1.00
C337   C     0.13864   0.84318   0.98289   0.00000  Uiso   1.00
C338   C     0.08406   0.83838   0.00884   0.00000  Uiso   1.00
C339   C     0.04385   0.78935   0.00175   0.00000  Uiso   1.00
C340   C     0.33370   0.88301   0.05926   0.00000  Uiso   1.00
C341   C     0.44313   0.91172   0.14941   0.00000  Uiso   1.00
C342   C     0.56713   0.89624   0.20662   0.00000  Uiso   1.00
C343   C     0.11260   0.89935   0.87298   0.00000  Uiso   1.00
C344   C     0.03616   0.94180   0.80652   0.00000  Uiso   1.00
C345   C     0.97404   0.94008   0.70691   0.00000  Uiso   1.00
H346   H     0.22560   0.78139   0.90158   0.00000  Uiso   1.00
H347   H     0.12323   0.71850   0.91920   0.00000  Uiso   1.00
H348   H     0.48224   0.79183   0.05975   0.00000  Uiso   1.00
H349   H     0.07532   0.82191   0.71691   0.00000  Uiso   1.00
H350   H     0.00363   0.66758   0.95284   0.00000  Uiso   1.00
H351   H     0.76061   0.82222   0.24917   0.00000  Uiso   1.00
H352   H     0.90256   0.88564   0.52623   0.00000  Uiso   1.00
H353   H     0.17828   0.92632   0.00995   0.00000  Uiso   1.00
H354   H     0.07330   0.87139   0.03351   0.00000  Uiso   1.00
H355   H     0.43231   0.94472   0.17406   0.00000  Uiso   1.00
H356   H     0.02540   0.97480   0.83122   0.00000  Uiso   1.00
H357   H     0.96311   0.79167   0.04563   0.00000  Uiso   1.00
H358   H     0.72010   0.94631   0.34195   0.00000  Uiso   1.00
H359   H     0.86205   0.00973   0.61901   0.00000  Uiso   1.00
O360   O     0.91521   0.69087   0.01282   0.00000  Uiso   1.00
O361   O     0.90833   0.89376   0.40157   0.00000  Uiso   1.00
O362   O     0.78259   0.97696   0.45309   0.00000  Uiso   1.00
N363   N     0.00848   0.70433   0.97142   0.00000  Uiso   1.00
N364   N     0.71621   0.84890   0.24849   0.00000  Uiso   1.00
N365   N     0.91404   0.90820   0.57261   0.00000  Uiso   1.00
N366   N     0.98667   0.77110   0.02135   0.00000  Uiso   1.00
N367   N     0.69441   0.91567   0.29841   0.00000  Uiso   1.00
N368   N     0.89223   0.97497   0.62253   0.00000  Uiso   1.00
