data_job_02496
_audit_creation_date              2018-12-19
_audit_creation_method            'Materials Studio'
_symmetry_space_group_name_H-M    'P1'
_symmetry_Int_Tables_number       1
_symmetry_cell_setting            triclinic
loop_
_symmetry_equiv_pos_as_xyz
  x,y,z
_cell_length_a                    14.4213
_cell_length_b                    9.5766
_cell_length_c                    26.7978
_cell_angle_alpha                 90.0000
_cell_angle_beta                  137.4766
_cell_angle_gamma                 90.0000
loop_
_atom_site_label
_atom_site_type_symbol
_atom_site_fract_x
_atom_site_fract_y
_atom_site_fract_z
_atom_site_U_iso_or_equiv
_atom_site_adp_type
_atom_site_occupancy
C1     C     0.13720   0.69622   0.48262   0.00000  Uiso   1.00
C2     C     0.21241   0.79265   0.54854   0.00000  Uiso   1.00
C3     C     0.17659   0.81664   0.58371   0.00000  Uiso   1.00
C4     C     0.25846   0.90854   0.64300   0.00000  Uiso   1.00
C5     C     0.35793   0.04835   0.74180   0.00000  Uiso   1.00
C6     C     0.09851   0.78616   0.42247   0.00000  Uiso   1.00
C7     C     0.96691   0.80468   0.35165   0.00000  Uiso   1.00
C8     C     0.95290   0.89111   0.30481   0.00000  Uiso   1.00
C9     C     0.87554   0.02077   0.20787   0.00000  Uiso   1.00
C10    C     0.24398   0.59248   0.50614   0.00000  Uiso   1.00
C11    C     0.23469   0.44814   0.50563   0.00000  Uiso   1.00
C12    C     0.34315   0.37150   0.52921   0.00000  Uiso   1.00
C13    C     0.49166   0.20044   0.56218   0.00000  Uiso   1.00
C14    C     0.34632   0.81676   0.52537   0.00000  Uiso   1.00
C15    C     0.32600   0.85812   0.57175   0.00000  Uiso   1.00
C16    C     0.40795   0.95000   0.63100   0.00000  Uiso   1.00
C17    C     0.37226   0.97412   0.66626   0.00000  Uiso   1.00
C18    C     0.21209   0.85163   0.44569   0.00000  Uiso   1.00
C19    C     0.19828   0.93804   0.39894   0.00000  Uiso   1.00
C20    C     0.06669   0.95669   0.32806   0.00000  Uiso   1.00
C21    C     0.35757   0.65794   0.52935   0.00000  Uiso   1.00
C22    C     0.46606   0.58150   0.55293   0.00000  Uiso   1.00
C23    C     0.45694   0.43708   0.55247   0.00000  Uiso   1.00
H24    H     0.04876   0.64526   0.46454   0.00000  Uiso   1.00
H25    H     0.08867   0.76596   0.56572   0.00000  Uiso   1.00
H26    H     0.87903   0.75399   0.33369   0.00000  Uiso   1.00
H27    H     0.14677   0.39752   0.48766   0.00000  Uiso   1.00
H28    H     0.18297   0.92870   0.68812   0.00000  Uiso   1.00
H29    H     0.74094   0.90342   0.19887   0.00000  Uiso   1.00
H30    H     0.30553   0.15172   0.52354   0.00000  Uiso   1.00
H31    H     0.43475   0.86773   0.54344   0.00000  Uiso   1.00
H32    H     0.49585   0.00064   0.64896   0.00000  Uiso   1.00
H33    H     0.28620   0.98868   0.41692   0.00000  Uiso   1.00
H34    H     0.55394   0.63220   0.57089   0.00000  Uiso   1.00
H35    H     0.51345   0.11918   0.75568   0.00000  Uiso   1.00
H36    H     0.07141   0.09390   0.26642   0.00000  Uiso   1.00
H37    H     0.63601   0.34220   0.59109   0.00000  Uiso   1.00
O38    O     0.38140   0.10740   0.78987   0.00000  Uiso   1.00
O39    O     0.80148   0.07421   0.14799   0.00000  Uiso   1.00
O40    O     0.54221   0.08800   0.57395   0.00000  Uiso   1.00
N41    N     0.25238   0.95527   0.68955   0.00000  Uiso   1.00
N42    N     0.83910   0.93165   0.23213   0.00000  Uiso   1.00
N43    N     0.36693   0.22887   0.53565   0.00000  Uiso   1.00
N44    N     0.43021   0.05776   0.72590   0.00000  Uiso   1.00
N45    N     0.01693   0.03415   0.26848   0.00000  Uiso   1.00
N46    N     0.54476   0.33137   0.57200   0.00000  Uiso   1.00
C47    C     0.86280   0.19622   0.01738   0.00000  Uiso   1.00
C48    C     0.78759   0.29265   0.95146   0.00000  Uiso   1.00
C49    C     0.82341   0.31664   0.91629   0.00000  Uiso   1.00
C50    C     0.74154   0.40854   0.85700   0.00000  Uiso   1.00
C51    C     0.64207   0.54835   0.75820   0.00000  Uiso   1.00
C52    C     0.90149   0.28616   0.07753   0.00000  Uiso   1.00
C53    C     0.03309   0.30468   0.14835   0.00000  Uiso   1.00
C54    C     0.04710   0.39111   0.19519   0.00000  Uiso   1.00
C55    C     0.12446   0.52077   0.29213   0.00000  Uiso   1.00
C56    C     0.75602   0.09248   0.99386   0.00000  Uiso   1.00
C57    C     0.76531   0.94814   0.99437   0.00000  Uiso   1.00
C58    C     0.65685   0.87150   0.97079   0.00000  Uiso   1.00
C59    C     0.50834   0.70044   0.93782   0.00000  Uiso   1.00
C60    C     0.65368   0.31676   0.97463   0.00000  Uiso   1.00
C61    C     0.67400   0.35812   0.92825   0.00000  Uiso   1.00
C62    C     0.59205   0.45000   0.86900   0.00000  Uiso   1.00
C63    C     0.62774   0.47412   0.83374   0.00000  Uiso   1.00
C64    C     0.78791   0.35163   0.05431   0.00000  Uiso   1.00
C65    C     0.80172   0.43804   0.10106   0.00000  Uiso   1.00
C66    C     0.93331   0.45669   0.17194   0.00000  Uiso   1.00
C67    C     0.64243   0.15794   0.97065   0.00000  Uiso   1.00
C68    C     0.53394   0.08150   0.94707   0.00000  Uiso   1.00
C69    C     0.54306   0.93708   0.94753   0.00000  Uiso   1.00
H70    H     0.95124   0.14526   0.03546   0.00000  Uiso   1.00
H71    H     0.91133   0.26596   0.93428   0.00000  Uiso   1.00
H72    H     0.12097   0.25399   0.16631   0.00000  Uiso   1.00
H73    H     0.85323   0.89752   0.01234   0.00000  Uiso   1.00
H74    H     0.81703   0.42870   0.81188   0.00000  Uiso   1.00
H75    H     0.25906   0.40342   0.30113   0.00000  Uiso   1.00
H76    H     0.69447   0.65172   0.97646   0.00000  Uiso   1.00
H77    H     0.56525   0.36773   0.95656   0.00000  Uiso   1.00
H78    H     0.50415   0.50064   0.85104   0.00000  Uiso   1.00
H79    H     0.71380   0.48868   0.08308   0.00000  Uiso   1.00
H80    H     0.44606   0.13220   0.92911   0.00000  Uiso   1.00
H81    H     0.48655   0.61918   0.74432   0.00000  Uiso   1.00
H82    H     0.92859   0.59390   0.23358   0.00000  Uiso   1.00
H83    H     0.36399   0.84220   0.90891   0.00000  Uiso   1.00
O84    O     0.61860   0.60740   0.71013   0.00000  Uiso   1.00
O85    O     0.19852   0.57421   0.35201   0.00000  Uiso   1.00
O86    O     0.45779   0.58800   0.92605   0.00000  Uiso   1.00
N87    N     0.74762   0.45527   0.81045   0.00000  Uiso   1.00
N88    N     0.16090   0.43165   0.26787   0.00000  Uiso   1.00
N89    N     0.63307   0.72887   0.96435   0.00000  Uiso   1.00
N90    N     0.56979   0.55776   0.77410   0.00000  Uiso   1.00
N91    N     0.98307   0.53415   0.23152   0.00000  Uiso   1.00
N92    N     0.45524   0.83137   0.92800   0.00000  Uiso   1.00
C93    C     0.86280   0.30378   0.51738   0.00000  Uiso   1.00
C94    C     0.78759   0.20735   0.45146   0.00000  Uiso   1.00
C95    C     0.82341   0.18336   0.41629   0.00000  Uiso   1.00
C96    C     0.74154   0.09146   0.35700   0.00000  Uiso   1.00
C97    C     0.64207   0.95165   0.25820   0.00000  Uiso   1.00
C98    C     0.90149   0.21384   0.57753   0.00000  Uiso   1.00
C99    C     0.03309   0.19532   0.64835   0.00000  Uiso   1.00
C100   C     0.04710   0.10889   0.69519   0.00000  Uiso   1.00
C101   C     0.12446   0.97923   0.79213   0.00000  Uiso   1.00
C102   C     0.75602   0.40752   0.49386   0.00000  Uiso   1.00
C103   C     0.76531   0.55186   0.49437   0.00000  Uiso   1.00
C104   C     0.65685   0.62850   0.47079   0.00000  Uiso   1.00
C105   C     0.50834   0.79956   0.43782   0.00000  Uiso   1.00
C106   C     0.65368   0.18324   0.47463   0.00000  Uiso   1.00
C107   C     0.67400   0.14188   0.42825   0.00000  Uiso   1.00
C108   C     0.59205   0.05000   0.36900   0.00000  Uiso   1.00
C109   C     0.62774   0.02588   0.33374   0.00000  Uiso   1.00
C110   C     0.78791   0.14837   0.55431   0.00000  Uiso   1.00
C111   C     0.80172   0.06196   0.60106   0.00000  Uiso   1.00
C112   C     0.93331   0.04331   0.67194   0.00000  Uiso   1.00
C113   C     0.64243   0.34206   0.47065   0.00000  Uiso   1.00
C114   C     0.53394   0.41850   0.44707   0.00000  Uiso   1.00
C115   C     0.54306   0.56292   0.44753   0.00000  Uiso   1.00
H116   H     0.95124   0.35474   0.53546   0.00000  Uiso   1.00
H117   H     0.91133   0.23404   0.43428   0.00000  Uiso   1.00
H118   H     0.12097   0.24601   0.66631   0.00000  Uiso   1.00
H119   H     0.85323   0.60248   0.51234   0.00000  Uiso   1.00
H120   H     0.81703   0.07130   0.31188   0.00000  Uiso   1.00
H121   H     0.25906   0.09658   0.80113   0.00000  Uiso   1.00
H122   H     0.69447   0.84828   0.47646   0.00000  Uiso   1.00
H123   H     0.56525   0.13227   0.45656   0.00000  Uiso   1.00
H124   H     0.50415   0.99936   0.35104   0.00000  Uiso   1.00
H125   H     0.71380   0.01132   0.58308   0.00000  Uiso   1.00
H126   H     0.44606   0.36780   0.42911   0.00000  Uiso   1.00
H127   H     0.48655   0.88082   0.24432   0.00000  Uiso   1.00
H128   H     0.92859   0.90610   0.73358   0.00000  Uiso   1.00
H129   H     0.36399   0.65780   0.40891   0.00000  Uiso   1.00
O130   O     0.61860   0.89260   0.21013   0.00000  Uiso   1.00
O131   O     0.19852   0.92579   0.85201   0.00000  Uiso   1.00
O132   O     0.45779   0.91200   0.42605   0.00000  Uiso   1.00
N133   N     0.74762   0.04473   0.31045   0.00000  Uiso   1.00
N134   N     0.16090   0.06835   0.76787   0.00000  Uiso   1.00
N135   N     0.63307   0.77113   0.46435   0.00000  Uiso   1.00
N136   N     0.56979   0.94224   0.27410   0.00000  Uiso   1.00
N137   N     0.98307   0.96585   0.73152   0.00000  Uiso   1.00
N138   N     0.45524   0.66863   0.42800   0.00000  Uiso   1.00
C139   C     0.13720   0.80378   0.98262   0.00000  Uiso   1.00
C140   C     0.21241   0.70735   0.04854   0.00000  Uiso   1.00
C141   C     0.17659   0.68336   0.08371   0.00000  Uiso   1.00
C142   C     0.25846   0.59146   0.14300   0.00000  Uiso   1.00
C143   C     0.35793   0.45165   0.24180   0.00000  Uiso   1.00
C144   C     0.09851   0.71384   0.92247   0.00000  Uiso   1.00
C145   C     0.96691   0.69532   0.85165   0.00000  Uiso   1.00
C146   C     0.95290   0.60889   0.80481   0.00000  Uiso   1.00
C147   C     0.87554   0.47923   0.70787   0.00000  Uiso   1.00
C148   C     0.24398   0.90752   0.00614   0.00000  Uiso   1.00
C149   C     0.23469   0.05186   0.00563   0.00000  Uiso   1.00
C150   C     0.34315   0.12850   0.02921   0.00000  Uiso   1.00
C151   C     0.49166   0.29956   0.06218   0.00000  Uiso   1.00
C152   C     0.34632   0.68324   0.02537   0.00000  Uiso   1.00
C153   C     0.32600   0.64188   0.07175   0.00000  Uiso   1.00
C154   C     0.40795   0.55000   0.13100   0.00000  Uiso   1.00
C155   C     0.37226   0.52588   0.16626   0.00000  Uiso   1.00
C156   C     0.21209   0.64837   0.94569   0.00000  Uiso   1.00
C157   C     0.19828   0.56196   0.89894   0.00000  Uiso   1.00
C158   C     0.06669   0.54331   0.82806   0.00000  Uiso   1.00
C159   C     0.35757   0.84206   0.02935   0.00000  Uiso   1.00
C160   C     0.46606   0.91850   0.05293   0.00000  Uiso   1.00
C161   C     0.45694   0.06292   0.05247   0.00000  Uiso   1.00
H162   H     0.04876   0.85474   0.96454   0.00000  Uiso   1.00
H163   H     0.08867   0.73404   0.06572   0.00000  Uiso   1.00
H164   H     0.87903   0.74601   0.83369   0.00000  Uiso   1.00
H165   H     0.14677   0.10248   0.98766   0.00000  Uiso   1.00
H166   H     0.18297   0.57130   0.18812   0.00000  Uiso   1.00
H167   H     0.74094   0.59658   0.69887   0.00000  Uiso   1.00
H168   H     0.30553   0.34828   0.02354   0.00000  Uiso   1.00
H169   H     0.43475   0.63227   0.04344   0.00000  Uiso   1.00
H170   H     0.49585   0.49936   0.14896   0.00000  Uiso   1.00
H171   H     0.28620   0.51132   0.91692   0.00000  Uiso   1.00
H172   H     0.55394   0.86780   0.07089   0.00000  Uiso   1.00
H173   H     0.51345   0.38082   0.25568   0.00000  Uiso   1.00
H174   H     0.07141   0.40610   0.76642   0.00000  Uiso   1.00
H175   H     0.63601   0.15780   0.09109   0.00000  Uiso   1.00
O176   O     0.38140   0.39260   0.28987   0.00000  Uiso   1.00
O177   O     0.80148   0.42579   0.64799   0.00000  Uiso   1.00
O178   O     0.54221   0.41200   0.07395   0.00000  Uiso   1.00
N179   N     0.25238   0.54473   0.18955   0.00000  Uiso   1.00
N180   N     0.83910   0.56835   0.73213   0.00000  Uiso   1.00
N181   N     0.36693   0.27113   0.03565   0.00000  Uiso   1.00
N182   N     0.43021   0.44224   0.22590   0.00000  Uiso   1.00
N183   N     0.01693   0.46585   0.76848   0.00000  Uiso   1.00
N184   N     0.54476   0.16863   0.07200   0.00000  Uiso   1.00
