data_job_07016
_audit_creation_date              2018-12-19
_audit_creation_method            'Materials Studio'
_symmetry_space_group_name_H-M    'P1'
_symmetry_Int_Tables_number       1
_symmetry_cell_setting            triclinic
loop_
_symmetry_equiv_pos_as_xyz
  x,y,z
_cell_length_a                    23.3984
_cell_length_b                    20.2943
_cell_length_c                    20.6437
_cell_angle_alpha                 84.0292
_cell_angle_beta                  81.0143
_cell_angle_gamma                 103.2030
loop_
_atom_site_label
_atom_site_type_symbol
_atom_site_fract_x
_atom_site_fract_y
_atom_site_fract_z
_atom_site_U_iso_or_equiv
_atom_site_adp_type
_atom_site_occupancy
C1     C     0.31122   0.05038   0.98889   0.00000  Uiso   1.00
C2     C     0.26539   0.08039   0.02877   0.00000  Uiso   1.00
C3     C     0.25040   0.14071   0.00896   0.00000  Uiso   1.00
C4     C     0.20741   0.15941   0.05254   0.00000  Uiso   1.00
C5     C     0.14038   0.21214   0.10518   0.00000  Uiso   1.00
C6     C     0.35609   0.04173   0.03331   0.00000  Uiso   1.00
C7     C     0.41735   0.06954   0.01730   0.00000  Uiso   1.00
C8     C     0.45071   0.05567   0.06470   0.00000  Uiso   1.00
C9     C     0.52450   0.04834   0.12436   0.00000  Uiso   1.00
C10    C     0.27814   0.97827   0.98177   0.00000  Uiso   1.00
C11    C     0.27387   0.95271   0.92244   0.00000  Uiso   1.00
C12    C     0.24162   0.88541   0.92646   0.00000  Uiso   1.00
C13    C     0.19437   0.77955   0.90610   0.00000  Uiso   1.00
C14    C     0.26154   0.97631   0.10152   0.00000  Uiso   1.00
C15    C     0.23841   0.04016   0.08995   0.00000  Uiso   1.00
C16    C     0.19544   0.05876   0.13357   0.00000  Uiso   1.00
C17    C     0.18038   0.11910   0.11383   0.00000  Uiso   1.00
C18    C     0.32911   0.00150   0.09448   0.00000  Uiso   1.00
C19    C     0.36239   0.98758   0.14192   0.00000  Uiso   1.00
C20    C     0.42369   0.01537   0.12599   0.00000  Uiso   1.00
C21    C     0.25115   0.93803   0.04295   0.00000  Uiso   1.00
C22    C     0.21891   0.87076   0.04706   0.00000  Uiso   1.00
C23    C     0.21459   0.84510   0.98774   0.00000  Uiso   1.00
H24    H     0.33223   0.08171   0.94126   0.00000  Uiso   1.00
H25    H     0.27129   0.17184   0.96161   0.00000  Uiso   1.00
H26    H     0.43822   0.10066   0.96995   0.00000  Uiso   1.00
H27    H     0.29476   0.98386   0.87511   0.00000  Uiso   1.00
H28    H     0.19185   0.25404   0.01117   0.00000  Uiso   1.00
H29    H     0.54383   0.10395   0.02874   0.00000  Uiso   1.00
H30    H     0.24131   0.85764   0.82874   0.00000  Uiso   1.00
H31    H     0.24054   0.94498   0.14915   0.00000  Uiso   1.00
H32    H     0.17456   0.02762   0.18091   0.00000  Uiso   1.00
H33    H     0.34149   0.95644   0.18925   0.00000  Uiso   1.00
H34    H     0.19803   0.83964   0.09441   0.00000  Uiso   1.00
H35    H     0.11334   0.13699   0.18916   0.00000  Uiso   1.00
H36    H     0.46532   0.98689   0.20674   0.00000  Uiso   1.00
H37    H     0.16281   0.74058   0.00674   0.00000  Uiso   1.00
O38    O     0.11087   0.25235   0.11732   0.00000  Uiso   1.00
O39    O     0.57265   0.05542   0.14037   0.00000  Uiso   1.00
O40    O     0.17575   0.73227   0.87798   0.00000  Uiso   1.00
N41    N     0.18242   0.21514   0.04869   0.00000  Uiso   1.00
N42    N     0.51150   0.07482   0.06513   0.00000  Uiso   1.00
N43    N     0.22868   0.84454   0.87815   0.00000  Uiso   1.00
N44    N     0.14017   0.15216   0.14447   0.00000  Uiso   1.00
N45    N     0.46925   0.01184   0.16091   0.00000  Uiso   1.00
N46    N     0.18644   0.78155   0.97393   0.00000  Uiso   1.00
C47    C     0.01110   0.51494   0.81946   0.00000  Uiso   1.00
C48    C     0.06221   0.48642   0.83804   0.00000  Uiso   1.00
C49    C     0.05930   0.44212   0.89507   0.00000  Uiso   1.00
C50    C     0.11093   0.42193   0.90295   0.00000  Uiso   1.00
C51    C     0.18230   0.37413   0.93902   0.00000  Uiso   1.00
C52    C     0.03413   0.59259   0.80895   0.00000  Uiso   1.00
C53    C     0.00761   0.63756   0.84153   0.00000  Uiso   1.00
C54    C     0.03560   0.70675   0.82491   0.00000  Uiso   1.00
C55    C     0.06336   0.82378   0.81580   0.00000  Uiso   1.00
C56    C     0.00334   0.49523   0.75149   0.00000  Uiso   1.00
C57    C     0.95092   0.45834   0.73574   0.00000  Uiso   1.00
C58    C     0.95299   0.44556   0.67075   0.00000  Uiso   1.00
C59    C     0.93294   0.41142   0.57242   0.00000  Uiso   1.00
C60    C     0.10797   0.55786   0.73203   0.00000  Uiso   1.00
C61    C     0.11483   0.50974   0.79055   0.00000  Uiso   1.00
C62    C     0.16648   0.48961   0.79833   0.00000  Uiso   1.00
C63    C     0.16364   0.44528   0.85537   0.00000  Uiso   1.00
C64    C     0.08675   0.61591   0.76146   0.00000  Uiso   1.00
C65    C     0.11479   0.68505   0.74479   0.00000  Uiso   1.00
C66    C     0.08832   0.73010   0.77734   0.00000  Uiso   1.00
C67    C     0.05596   0.51854   0.70400   0.00000  Uiso   1.00
C68    C     0.05811   0.50582   0.63901   0.00000  Uiso   1.00
C69    C     0.00571   0.46892   0.62317   0.00000  Uiso   1.00
H70    H     0.97013   0.49680   0.85644   0.00000  Uiso   1.00
H71    H     0.01857   0.42410   0.93181   0.00000  Uiso   1.00
H72    H     0.96688   0.61951   0.87827   0.00000  Uiso   1.00
H73    H     0.91021   0.44031   0.77251   0.00000  Uiso   1.00
H74    H     0.09548   0.35380   0.99445   0.00000  Uiso   1.00
H75    H     0.98649   0.76583   0.88154   0.00000  Uiso   1.00
H76    H     0.86699   0.38795   0.65851   0.00000  Uiso   1.00
H77    H     0.14894   0.57601   0.69506   0.00000  Uiso   1.00
H78    H     0.20719   0.50766   0.76158   0.00000  Uiso   1.00
H79    H     0.15551   0.70307   0.70804   0.00000  Uiso   1.00
H80    H     0.09884   0.52387   0.60227   0.00000  Uiso   1.00
H81    H     0.24858   0.42162   0.85628   0.00000  Uiso   1.00
H82    H     0.13958   0.83365   0.74337   0.00000  Uiso   1.00
H83    H     0.02008   0.45578   0.52035   0.00000  Uiso   1.00
O84    O     0.20713   0.34133   0.97205   0.00000  Uiso   1.00
O85    O     0.06413   0.88190   0.82390   0.00000  Uiso   1.00
O86    O     0.90735   0.38614   0.53130   0.00000  Uiso   1.00
N87    N     0.12352   0.37913   0.95280   0.00000  Uiso   1.00
N88    N     0.02162   0.76435   0.84724   0.00000  Uiso   1.00
N89    N     0.90989   0.41109   0.63873   0.00000  Uiso   1.00
N90    N     0.20589   0.41563   0.87845   0.00000  Uiso   1.00
N91    N     0.10400   0.80085   0.77289   0.00000  Uiso   1.00
N92    N     0.99227   0.44758   0.56438   0.00000  Uiso   1.00
C93    C     0.92202   0.05981   0.38108   0.00000  Uiso   1.00
C94    C     0.94999   0.13658   0.36461   0.00000  Uiso   1.00
C95    C     0.00506   0.16733   0.32457   0.00000  Uiso   1.00
C96    C     0.02269   0.23829   0.31562   0.00000  Uiso   1.00
C97    C     0.07163   0.35160   0.28550   0.00000  Uiso   1.00
C98    C     0.90914   0.04365   0.45652   0.00000  Uiso   1.00
C99    C     0.92987   0.99627   0.49375   0.00000  Uiso   1.00
C100   C     0.91311   0.98900   0.56217   0.00000  Uiso   1.00
C101   C     0.89861   0.95800   0.67473   0.00000  Uiso   1.00
C102   C     0.86128   0.04809   0.36003   0.00000  Uiso   1.00
C103   C     0.84175   0.00442   0.31615   0.00000  Uiso   1.00
C104   C     0.78469   0.00087   0.30335   0.00000  Uiso   1.00
C105   C     0.69588   0.97675   0.26611   0.00000  Uiso   1.00
C106   C     0.85540   0.13114   0.43640   0.00000  Uiso   1.00
C107   C     0.91380   0.17532   0.39466   0.00000  Uiso   1.00
C108   C     0.93135   0.24625   0.38577   0.00000  Uiso   1.00
C109   C     0.98644   0.27711   0.34572   0.00000  Uiso   1.00
C110   C     0.87296   0.08239   0.48656   0.00000  Uiso   1.00
C111   C     0.85616   0.07519   0.55495   0.00000  Uiso   1.00
C112   C     0.87686   0.02781   0.59227   0.00000  Uiso   1.00
C113   C     0.82509   0.08683   0.39008   0.00000  Uiso   1.00
C114   C     0.76805   0.08334   0.37735   0.00000  Uiso   1.00
C115   C     0.74844   0.03968   0.33345   0.00000  Uiso   1.00
H116   H     0.95019   0.02965   0.35770   0.00000  Uiso   1.00
H117   H     0.03305   0.13733   0.30133   0.00000  Uiso   1.00
H118   H     0.95787   0.96629   0.47048   0.00000  Uiso   1.00
H119   H     0.86977   0.97445   0.29291   0.00000  Uiso   1.00
H120   H     0.10897   0.27381   0.25211   0.00000  Uiso   1.00
H121   H     0.95043   0.91315   0.60877   0.00000  Uiso   1.00
H122   H     0.76465   0.93033   0.23433   0.00000  Uiso   1.00
H123   H     0.82723   0.16130   0.45979   0.00000  Uiso   1.00
H124   H     0.90334   0.27622   0.40902   0.00000  Uiso   1.00
H125   H     0.82816   0.10517   0.57818   0.00000  Uiso   1.00
H126   H     0.74006   0.11333   0.40061   0.00000  Uiso   1.00
H127   H     0.00369   0.38653   0.33952   0.00000  Uiso   1.00
H128   H     0.84515   0.02586   0.69618   0.00000  Uiso   1.00
H129   H     0.65937   0.04305   0.32174   0.00000  Uiso   1.00
O130   O     0.10862   0.40339   0.26059   0.00000  Uiso   1.00
O131   O     0.90062   0.93020   0.72852   0.00000  Uiso   1.00
O132   O     0.65688   0.95275   0.23726   0.00000  Uiso   1.00
N133   N     0.07374   0.28457   0.27964   0.00000  Uiso   1.00
N134   N     0.92552   0.94738   0.61310   0.00000  Uiso   1.00
N135   N     0.75183   0.96343   0.26304   0.00000  Uiso   1.00
N136   N     0.01709   0.34522   0.32667   0.00000  Uiso   1.00
N137   N     0.86887   0.00803   0.66013   0.00000  Uiso   1.00
N138   N     0.69518   0.02409   0.31007   0.00000  Uiso   1.00
C139   C     0.87160   0.68134   0.50240   0.00000  Uiso   1.00
C140   C     0.84473   0.73595   0.53156   0.00000  Uiso   1.00
C141   C     0.83154   0.74111   0.59847   0.00000  Uiso   1.00
C142   C     0.80716   0.79473   0.61508   0.00000  Uiso   1.00
C143   C     0.76709   0.87245   0.66776   0.00000  Uiso   1.00
C144   C     0.92824   0.71976   0.45363   0.00000  Uiso   1.00
C145   C     0.98526   0.71130   0.45502   0.00000  Uiso   1.00
C146   C     0.03118   0.75129   0.40602   0.00000  Uiso   1.00
C147   C     0.12076   0.80383   0.33769   0.00000  Uiso   1.00
C148   C     0.82825   0.64729   0.46066   0.00000  Uiso   1.00
C149   C     0.80122   0.57788   0.46794   0.00000  Uiso   1.00
C150   C     0.76297   0.55686   0.42485   0.00000  Uiso   1.00
C151   C     0.69731   0.49687   0.36743   0.00000  Uiso   1.00
C152   C     0.85176   0.76742   0.41290   0.00000  Uiso   1.00
C153   C     0.83395   0.78271   0.48295   0.00000  Uiso   1.00
C154   C     0.80958   0.83634   0.49946   0.00000  Uiso   1.00
C155   C     0.79636   0.84157   0.56638   0.00000  Uiso   1.00
C156   C     0.91746   0.76652   0.40502   0.00000  Uiso   1.00
C157   C     0.96331   0.80653   0.35600   0.00000  Uiso   1.00
C158   C     0.02038   0.79813   0.35732   0.00000  Uiso   1.00
C159   C     0.81748   0.69404   0.41205   0.00000  Uiso   1.00
C160   C     0.77926   0.67312   0.36893   0.00000  Uiso   1.00
C161   C     0.75217   0.60370   0.37615   0.00000  Uiso   1.00
H162   H     0.88000   0.64494   0.54024   0.00000  Uiso   1.00
H163   H     0.83989   0.70492   0.63608   0.00000  Uiso   1.00
H164   H     0.99359   0.67511   0.49264   0.00000  Uiso   1.00
H165   H     0.80957   0.54172   0.50557   0.00000  Uiso   1.00
H166   H     0.79069   0.79205   0.72089   0.00000  Uiso   1.00
H167   H     0.11476   0.72917   0.41844   0.00000  Uiso   1.00
H168   H     0.72673   0.44789   0.44569   0.00000  Uiso   1.00
H169   H     0.84337   0.80382   0.37505   0.00000  Uiso   1.00
H170   H     0.80125   0.87251   0.46183   0.00000  Uiso   1.00
H171   H     0.95495   0.84270   0.31839   0.00000  Uiso   1.00
H172   H     0.77093   0.70932   0.33132   0.00000  Uiso   1.00
H173   H     0.75933   0.92808   0.57947   0.00000  Uiso   1.00
H174   H     0.08341   0.86520   0.27701   0.00000  Uiso   1.00
H175   H     0.69537   0.58392   0.30426   0.00000  Uiso   1.00
O176   O     0.74798   0.90240   0.71024   0.00000  Uiso   1.00
O177   O     0.17315   0.81990   0.31343   0.00000  Uiso   1.00
O178   O     0.66406   0.45087   0.34919   0.00000  Uiso   1.00
N179   N     0.78908   0.81463   0.67570   0.00000  Uiso   1.00
N180   N     0.09207   0.75585   0.39293   0.00000  Uiso   1.00
N181   N     0.72931   0.49287   0.41840   0.00000  Uiso   1.00
N182   N     0.77220   0.88782   0.59960   0.00000  Uiso   1.00
N183   N     0.07519   0.82905   0.31683   0.00000  Uiso   1.00
N184   N     0.71243   0.56607   0.34230   0.00000  Uiso   1.00
C185   C     0.61788   0.45574   0.02750   0.00000  Uiso   1.00
C186   C     0.66423   0.50124   0.97065   0.00000  Uiso   1.00
C187   C     0.67051   0.57054   0.95166   0.00000  Uiso   1.00
C188   C     0.71567   0.60302   0.89841   0.00000  Uiso   1.00
C189   C     0.78195   0.67908   0.81518   0.00000  Uiso   1.00
C190   C     0.65295   0.42405   0.07299   0.00000  Uiso   1.00
C191   C     0.64975   0.42844   0.14004   0.00000  Uiso   1.00
C192   C     0.68541   0.39594   0.17294   0.00000  Uiso   1.00
C193   C     0.73416   0.35212   0.24861   0.00000  Uiso   1.00
C194   C     0.58375   0.39703   0.99719   0.00000  Uiso   1.00
C195   C     0.52236   0.37869   0.00053   0.00000  Uiso   1.00
C196   C     0.49976   0.32343   0.96963   0.00000  Uiso   1.00
C197   C     0.44106   0.23766   0.92761   0.00000  Uiso   1.00
C198   C     0.68689   0.39021   0.96669   0.00000  Uiso   1.00
C199   C     0.70171   0.46564   0.93763   0.00000  Uiso   1.00
C200   C     0.74687   0.49803   0.88439   0.00000  Uiso   1.00
C201   C     0.75322   0.56736   0.86532   0.00000  Uiso   1.00
C202   C     0.69044   0.38845   0.03996   0.00000  Uiso   1.00
C203   C     0.72611   0.35593   0.07277   0.00000  Uiso   1.00
C204   C     0.72296   0.36028   0.13986   0.00000  Uiso   1.00
C205   C     0.62124   0.36143   0.96416   0.00000  Uiso   1.00
C206   C     0.59872   0.30618   0.93326   0.00000  Uiso   1.00
C207   C     0.53731   0.28776   0.93654   0.00000  Uiso   1.00
H208   H     0.58869   0.48346   0.05321   0.00000  Uiso   1.00
H209   H     0.64150   0.59807   0.97723   0.00000  Uiso   1.00
H210   H     0.62073   0.45599   0.16559   0.00000  Uiso   1.00
H211   H     0.49337   0.40625   0.02609   0.00000  Uiso   1.00
H212   H     0.71658   0.70944   0.87845   0.00000  Uiso   1.00
H213   H     0.67279   0.40984   0.27561   0.00000  Uiso   1.00
H214   H     0.40421   0.30495   0.98146   0.00000  Uiso   1.00
H215   H     0.71608   0.36249   0.94098   0.00000  Uiso   1.00
H216   H     0.77587   0.47046   0.85884   0.00000  Uiso   1.00
H217   H     0.75511   0.32839   0.04720   0.00000  Uiso   1.00
H218   H     0.62774   0.27865   0.90770   0.00000  Uiso   1.00
H219   H     0.82565   0.60588   0.78236   0.00000  Uiso   1.00
H220   H     0.78185   0.30627   0.17952   0.00000  Uiso   1.00
H221   H     0.51328   0.20139   0.88537   0.00000  Uiso   1.00
O222   O     0.80816   0.73088   0.77841   0.00000  Uiso   1.00
O223   O     0.75070   0.33780   0.29947   0.00000  Uiso   1.00
O224   O     0.39833   0.20020   0.91355   0.00000  Uiso   1.00
N225   N     0.73404   0.67025   0.86710   0.00000  Uiso   1.00
N226   N     0.69310   0.39015   0.23842   0.00000  Uiso   1.00
N227   N     0.44200   0.29207   0.96343   0.00000  Uiso   1.00
N228   N     0.79272   0.61452   0.81539   0.00000  Uiso   1.00
N229   N     0.75179   0.33442   0.18671   0.00000  Uiso   1.00
N230   N     0.50069   0.23635   0.91172   0.00000  Uiso   1.00
C231   C     0.54355   0.88066   0.62793   0.00000  Uiso   1.00
C232   C     0.55433   0.85208   0.69500   0.00000  Uiso   1.00
C233   C     0.60654   0.83580   0.70703   0.00000  Uiso   1.00
C234   C     0.60753   0.81030   0.77181   0.00000  Uiso   1.00
C235   C     0.63179   0.76730   0.86822   0.00000  Uiso   1.00
C236   C     0.52594   0.94732   0.63763   0.00000  Uiso   1.00
C237   C     0.55429   0.01111   0.60143   0.00000  Uiso   1.00
C238   C     0.53137   0.06579   0.61791   0.00000  Uiso   1.00
C239   C     0.51154   0.17065   0.62522   0.00000  Uiso   1.00
C240   C     0.48796   0.83139   0.61533   0.00000  Uiso   1.00
C241   C     0.48436   0.79772   0.56038   0.00000  Uiso   1.00
C242   C     0.42946   0.75479   0.55808   0.00000  Uiso   1.00
C243   C     0.35066   0.67965   0.53077   0.00000  Uiso   1.00
C244   C     0.45244   0.86432   0.72156   0.00000  Uiso   1.00
C245   C     0.50484   0.84321   0.74585   0.00000  Uiso   1.00
C246   C     0.50574   0.81772   0.81063   0.00000  Uiso   1.00
C247   C     0.55795   0.80141   0.82276   0.00000  Uiso   1.00
C248   C     0.47645   0.93845   0.68849   0.00000  Uiso   1.00
C249   C     0.45348   0.99304   0.70502   0.00000  Uiso   1.00
C250   C     0.48179   0.05690   0.66886   0.00000  Uiso   1.00
C251   C     0.43847   0.82251   0.66619   0.00000  Uiso   1.00
C252   C     0.38356   0.77964   0.66398   0.00000  Uiso   1.00
C253   C     0.37988   0.74590   0.60903   0.00000  Uiso   1.00
H254   H     0.58208   0.88757   0.58834   0.00000  Uiso   1.00
H255   H     0.64483   0.84268   0.66766   0.00000  Uiso   1.00
H256   H     0.59258   0.01796   0.56207   0.00000  Uiso   1.00
H257   H     0.52267   0.80460   0.52103   0.00000  Uiso   1.00
H258   H     0.69259   0.78902   0.77805   0.00000  Uiso   1.00
H259   H     0.58240   0.15861   0.55538   0.00000  Uiso   1.00
H260   H     0.43497   0.70868   0.46884   0.00000  Uiso   1.00
H261   H     0.41391   0.85742   0.76116   0.00000  Uiso   1.00
H262   H     0.46743   0.81086   0.84998   0.00000  Uiso   1.00
H263   H     0.41518   0.98615   0.74438   0.00000  Uiso   1.00
H264   H     0.34527   0.77278   0.70334   0.00000  Uiso   1.00
H265   H     0.54861   0.76320   0.92602   0.00000  Uiso   1.00
H266   H     0.43842   0.13279   0.70335   0.00000  Uiso   1.00
H267   H     0.29099   0.68286   0.61681   0.00000  Uiso   1.00
O268   O     0.65885   0.74605   0.90734   0.00000  Uiso   1.00
O269   O     0.51428   0.23094   0.61520   0.00000  Uiso   1.00
O270   O     0.32086   0.64065   0.50167   0.00000  Uiso   1.00
N271   N     0.65135   0.78932   0.80068   0.00000  Uiso   1.00
N272   N     0.54834   0.13487   0.59251   0.00000  Uiso   1.00
N273   N     0.41050   0.71424   0.51159   0.00000  Uiso   1.00
N274   N     0.57388   0.77542   0.88030   0.00000  Uiso   1.00
N275   N     0.47086   0.12097   0.67213   0.00000  Uiso   1.00
N276   N     0.33303   0.70034   0.59121   0.00000  Uiso   1.00
C277   C     0.68878   0.94962   0.01111   0.00000  Uiso   1.00
C278   C     0.73461   0.91961   0.97123   0.00000  Uiso   1.00
C279   C     0.74960   0.85929   0.99104   0.00000  Uiso   1.00
C280   C     0.79259   0.84059   0.94746   0.00000  Uiso   1.00
C281   C     0.85962   0.78786   0.89482   0.00000  Uiso   1.00
C282   C     0.64391   0.95827   0.96669   0.00000  Uiso   1.00
C283   C     0.58265   0.93046   0.98270   0.00000  Uiso   1.00
C284   C     0.54929   0.94433   0.93530   0.00000  Uiso   1.00
C285   C     0.47550   0.95166   0.87564   0.00000  Uiso   1.00
C286   C     0.72186   0.02173   0.01823   0.00000  Uiso   1.00
C287   C     0.72613   0.04729   0.07756   0.00000  Uiso   1.00
C288   C     0.75838   0.11459   0.07354   0.00000  Uiso   1.00
C289   C     0.80563   0.22045   0.09390   0.00000  Uiso   1.00
C290   C     0.73846   0.02369   0.89848   0.00000  Uiso   1.00
C291   C     0.76159   0.95984   0.91005   0.00000  Uiso   1.00
C292   C     0.80456   0.94124   0.86643   0.00000  Uiso   1.00
C293   C     0.81962   0.88090   0.88617   0.00000  Uiso   1.00
C294   C     0.67089   0.99850   0.90552   0.00000  Uiso   1.00
C295   C     0.63761   0.01242   0.85808   0.00000  Uiso   1.00
C296   C     0.57631   0.98463   0.87401   0.00000  Uiso   1.00
C297   C     0.74885   0.06197   0.95705   0.00000  Uiso   1.00
C298   C     0.78109   0.12924   0.95294   0.00000  Uiso   1.00
C299   C     0.78541   0.15490   0.01226   0.00000  Uiso   1.00
H300   H     0.66777   0.91829   0.05874   0.00000  Uiso   1.00
H301   H     0.72871   0.82816   0.03839   0.00000  Uiso   1.00
H302   H     0.56178   0.89934   0.03005   0.00000  Uiso   1.00
H303   H     0.70524   0.01614   0.12489   0.00000  Uiso   1.00
H304   H     0.80815   0.74596   0.98883   0.00000  Uiso   1.00
H305   H     0.45617   0.89605   0.97126   0.00000  Uiso   1.00
H306   H     0.75869   0.14236   0.17126   0.00000  Uiso   1.00
H307   H     0.75946   0.05502   0.85085   0.00000  Uiso   1.00
H308   H     0.82544   0.97238   0.81909   0.00000  Uiso   1.00
H309   H     0.65851   0.04356   0.81075   0.00000  Uiso   1.00
H310   H     0.80197   0.16036   0.90559   0.00000  Uiso   1.00
H311   H     0.88666   0.86301   0.81084   0.00000  Uiso   1.00
H312   H     0.53468   0.01311   0.79326   0.00000  Uiso   1.00
H313   H     0.83719   0.25942   0.99326   0.00000  Uiso   1.00
O314   O     0.88913   0.74765   0.88268   0.00000  Uiso   1.00
O315   O     0.42735   0.94458   0.85963   0.00000  Uiso   1.00
O316   O     0.82425   0.26773   0.12202   0.00000  Uiso   1.00
N317   N     0.81758   0.78486   0.95131   0.00000  Uiso   1.00
N318   N     0.48850   0.92518   0.93487   0.00000  Uiso   1.00
N319   N     0.77132   0.15546   0.12185   0.00000  Uiso   1.00
N320   N     0.85983   0.84784   0.85553   0.00000  Uiso   1.00
N321   N     0.53075   0.98816   0.83909   0.00000  Uiso   1.00
N322   N     0.81356   0.21845   0.02607   0.00000  Uiso   1.00
C323   C     0.98890   0.48506   0.18054   0.00000  Uiso   1.00
C324   C     0.93779   0.51358   0.16196   0.00000  Uiso   1.00
C325   C     0.94070   0.55788   0.10493   0.00000  Uiso   1.00
C326   C     0.88907   0.57807   0.09705   0.00000  Uiso   1.00
C327   C     0.81770   0.62587   0.06098   0.00000  Uiso   1.00
C328   C     0.96587   0.40741   0.19105   0.00000  Uiso   1.00
C329   C     0.99239   0.36244   0.15847   0.00000  Uiso   1.00
C330   C     0.96440   0.29325   0.17509   0.00000  Uiso   1.00
C331   C     0.93664   0.17622   0.18420   0.00000  Uiso   1.00
C332   C     0.99666   0.50477   0.24851   0.00000  Uiso   1.00
C333   C     0.04908   0.54166   0.26426   0.00000  Uiso   1.00
C334   C     0.04701   0.55444   0.32925   0.00000  Uiso   1.00
C335   C     0.06706   0.58858   0.42758   0.00000  Uiso   1.00
C336   C     0.89203   0.44214   0.26797   0.00000  Uiso   1.00
C337   C     0.88517   0.49026   0.20945   0.00000  Uiso   1.00
C338   C     0.83352   0.51039   0.20167   0.00000  Uiso   1.00
C339   C     0.83636   0.55472   0.14463   0.00000  Uiso   1.00
C340   C     0.91325   0.38409   0.23854   0.00000  Uiso   1.00
C341   C     0.88521   0.31495   0.25521   0.00000  Uiso   1.00
C342   C     0.91168   0.26990   0.22266   0.00000  Uiso   1.00
C343   C     0.94404   0.48146   0.29600   0.00000  Uiso   1.00
C344   C     0.94189   0.49418   0.36099   0.00000  Uiso   1.00
C345   C     0.99429   0.53108   0.37683   0.00000  Uiso   1.00
H346   H     0.02987   0.50320   0.14356   0.00000  Uiso   1.00
H347   H     0.98143   0.57590   0.06819   0.00000  Uiso   1.00
H348   H     0.03312   0.38049   0.12173   0.00000  Uiso   1.00
H349   H     0.08979   0.55969   0.22749   0.00000  Uiso   1.00
H350   H     0.90452   0.64620   0.00555   0.00000  Uiso   1.00
H351   H     0.01351   0.23417   0.11846   0.00000  Uiso   1.00
H352   H     0.13301   0.61205   0.34149   0.00000  Uiso   1.00
H353   H     0.85106   0.42399   0.30494   0.00000  Uiso   1.00
H354   H     0.79281   0.49234   0.23842   0.00000  Uiso   1.00
H355   H     0.84449   0.29693   0.29196   0.00000  Uiso   1.00
H356   H     0.90116   0.47613   0.39773   0.00000  Uiso   1.00
H357   H     0.75142   0.57838   0.14372   0.00000  Uiso   1.00
H358   H     0.86042   0.16635   0.25663   0.00000  Uiso   1.00
H359   H     0.97992   0.54422   0.47965   0.00000  Uiso   1.00
O360   O     0.79287   0.65867   0.02795   0.00000  Uiso   1.00
O361   O     0.93587   0.11810   0.17610   0.00000  Uiso   1.00
O362   O     0.09265   0.61386   0.46870   0.00000  Uiso   1.00
N363   N     0.87648   0.62087   0.04720   0.00000  Uiso   1.00
N364   N     0.97838   0.23565   0.15276   0.00000  Uiso   1.00
N365   N     0.09011   0.58891   0.36127   0.00000  Uiso   1.00
N366   N     0.79411   0.58437   0.12155   0.00000  Uiso   1.00
N367   N     0.89600   0.19915   0.22711   0.00000  Uiso   1.00
N368   N     0.00773   0.55242   0.43562   0.00000  Uiso   1.00
C369   C     0.07798   0.94019   0.61892   0.00000  Uiso   1.00
C370   C     0.05001   0.86342   0.63539   0.00000  Uiso   1.00
C371   C     0.99494   0.83267   0.67543   0.00000  Uiso   1.00
C372   C     0.97731   0.76171   0.68438   0.00000  Uiso   1.00
C373   C     0.92837   0.64840   0.71450   0.00000  Uiso   1.00
C374   C     0.09086   0.95635   0.54348   0.00000  Uiso   1.00
C375   C     0.07013   0.00373   0.50625   0.00000  Uiso   1.00
C376   C     0.08689   0.01100   0.43783   0.00000  Uiso   1.00
C377   C     0.10139   0.04200   0.32527   0.00000  Uiso   1.00
C378   C     0.13872   0.95191   0.63997   0.00000  Uiso   1.00
C379   C     0.15825   0.99558   0.68385   0.00000  Uiso   1.00
C380   C     0.21531   0.99913   0.69665   0.00000  Uiso   1.00
C381   C     0.30412   0.02325   0.73389   0.00000  Uiso   1.00
C382   C     0.14460   0.86886   0.56360   0.00000  Uiso   1.00
C383   C     0.08620   0.82468   0.60534   0.00000  Uiso   1.00
C384   C     0.06865   0.75375   0.61423   0.00000  Uiso   1.00
C385   C     0.01356   0.72289   0.65428   0.00000  Uiso   1.00
C386   C     0.12704   0.91761   0.51344   0.00000  Uiso   1.00
C387   C     0.14384   0.92481   0.44505   0.00000  Uiso   1.00
C388   C     0.12314   0.97219   0.40773   0.00000  Uiso   1.00
C389   C     0.17491   0.91317   0.60992   0.00000  Uiso   1.00
C390   C     0.23195   0.91666   0.62265   0.00000  Uiso   1.00
C391   C     0.25156   0.96032   0.66655   0.00000  Uiso   1.00
H392   H     0.04981   0.97035   0.64230   0.00000  Uiso   1.00
H393   H     0.96695   0.86267   0.69867   0.00000  Uiso   1.00
H394   H     0.04213   0.03371   0.52952   0.00000  Uiso   1.00
H395   H     0.13023   0.02555   0.70709   0.00000  Uiso   1.00
H396   H     0.89103   0.72619   0.74789   0.00000  Uiso   1.00
H397   H     0.04957   0.08685   0.39123   0.00000  Uiso   1.00
H398   H     0.23535   0.06967   0.76567   0.00000  Uiso   1.00
H399   H     0.17277   0.83870   0.54021   0.00000  Uiso   1.00
H400   H     0.09666   0.72378   0.59098   0.00000  Uiso   1.00
H401   H     0.17184   0.89483   0.42182   0.00000  Uiso   1.00
H402   H     0.25994   0.88667   0.59939   0.00000  Uiso   1.00
H403   H     0.99631   0.61347   0.66048   0.00000  Uiso   1.00
H404   H     0.15485   0.97414   0.30382   0.00000  Uiso   1.00
H405   H     0.34063   0.95695   0.67826   0.00000  Uiso   1.00
O406   O     0.89138   0.59661   0.73941   0.00000  Uiso   1.00
O407   O     0.09938   0.06980   0.27148   0.00000  Uiso   1.00
O408   O     0.34312   0.04725   0.76274   0.00000  Uiso   1.00
N409   N     0.92626   0.71543   0.72036   0.00000  Uiso   1.00
N410   N     0.07448   0.05262   0.38690   0.00000  Uiso   1.00
N411   N     0.24817   0.03657   0.73696   0.00000  Uiso   1.00
N412   N     0.98291   0.65478   0.67333   0.00000  Uiso   1.00
N413   N     0.13113   0.99197   0.33987   0.00000  Uiso   1.00
N414   N     0.30482   0.97591   0.68993   0.00000  Uiso   1.00
C415   C     0.12840   0.31866   0.49760   0.00000  Uiso   1.00
C416   C     0.15527   0.26405   0.46844   0.00000  Uiso   1.00
C417   C     0.16846   0.25889   0.40153   0.00000  Uiso   1.00
C418   C     0.19284   0.20527   0.38492   0.00000  Uiso   1.00
C419   C     0.23291   0.12755   0.33224   0.00000  Uiso   1.00
C420   C     0.07176   0.28024   0.54637   0.00000  Uiso   1.00
C421   C     0.01474   0.28870   0.54498   0.00000  Uiso   1.00
C422   C     0.96882   0.24871   0.59398   0.00000  Uiso   1.00
C423   C     0.87924   0.19617   0.66231   0.00000  Uiso   1.00
C424   C     0.17175   0.35271   0.53934   0.00000  Uiso   1.00
C425   C     0.19878   0.42212   0.53206   0.00000  Uiso   1.00
C426   C     0.23703   0.44314   0.57515   0.00000  Uiso   1.00
C427   C     0.30269   0.50313   0.63257   0.00000  Uiso   1.00
C428   C     0.14824   0.23258   0.58710   0.00000  Uiso   1.00
C429   C     0.16605   0.21729   0.51705   0.00000  Uiso   1.00
C430   C     0.19042   0.16366   0.50054   0.00000  Uiso   1.00
C431   C     0.20364   0.15843   0.43362   0.00000  Uiso   1.00
C432   C     0.08254   0.23348   0.59498   0.00000  Uiso   1.00
C433   C     0.03669   0.19347   0.64400   0.00000  Uiso   1.00
C434   C     0.97962   0.20187   0.64268   0.00000  Uiso   1.00
C435   C     0.18252   0.30596   0.58795   0.00000  Uiso   1.00
C436   C     0.22074   0.32688   0.63107   0.00000  Uiso   1.00
C437   C     0.24783   0.39630   0.62385   0.00000  Uiso   1.00
H438   H     0.12000   0.35506   0.45976   0.00000  Uiso   1.00
H439   H     0.16011   0.29508   0.36392   0.00000  Uiso   1.00
H440   H     0.00641   0.32489   0.50736   0.00000  Uiso   1.00
H441   H     0.19043   0.45828   0.49443   0.00000  Uiso   1.00
H442   H     0.20931   0.20795   0.27911   0.00000  Uiso   1.00
H443   H     0.88524   0.27083   0.58156   0.00000  Uiso   1.00
H444   H     0.27327   0.55211   0.55431   0.00000  Uiso   1.00
H445   H     0.15663   0.19618   0.62495   0.00000  Uiso   1.00
H446   H     0.19875   0.12749   0.53817   0.00000  Uiso   1.00
H447   H     0.04505   0.15730   0.68161   0.00000  Uiso   1.00
H448   H     0.22907   0.29068   0.66868   0.00000  Uiso   1.00
H449   H     0.24067   0.07192   0.42053   0.00000  Uiso   1.00
H450   H     0.91659   0.13480   0.72299   0.00000  Uiso   1.00
H451   H     0.30463   0.41608   0.69574   0.00000  Uiso   1.00
O452   O     0.25202   0.09760   0.28976   0.00000  Uiso   1.00
O453   O     0.82685   0.18010   0.68657   0.00000  Uiso   1.00
O454   O     0.33594   0.54913   0.65081   0.00000  Uiso   1.00
N455   N     0.21092   0.18537   0.32430   0.00000  Uiso   1.00
N456   N     0.90793   0.24415   0.60707   0.00000  Uiso   1.00
N457   N     0.27069   0.50713   0.58160   0.00000  Uiso   1.00
N458   N     0.22780   0.11218   0.40040   0.00000  Uiso   1.00
N459   N     0.92481   0.17095   0.68317   0.00000  Uiso   1.00
N460   N     0.28757   0.43393   0.65770   0.00000  Uiso   1.00
C461   C     0.38212   0.54426   0.97250   0.00000  Uiso   1.00
C462   C     0.33577   0.49876   0.02935   0.00000  Uiso   1.00
C463   C     0.32949   0.42946   0.04834   0.00000  Uiso   1.00
C464   C     0.28433   0.39698   0.10159   0.00000  Uiso   1.00
C465   C     0.21805   0.32092   0.18482   0.00000  Uiso   1.00
C466   C     0.34705   0.57595   0.92701   0.00000  Uiso   1.00
C467   C     0.35025   0.57156   0.85996   0.00000  Uiso   1.00
C468   C     0.31459   0.60406   0.82706   0.00000  Uiso   1.00
C469   C     0.26584   0.64788   0.75139   0.00000  Uiso   1.00
C470   C     0.41625   0.60297   0.00281   0.00000  Uiso   1.00
C471   C     0.47764   0.62131   0.99947   0.00000  Uiso   1.00
C472   C     0.50024   0.67657   0.03037   0.00000  Uiso   1.00
C473   C     0.55894   0.76234   0.07239   0.00000  Uiso   1.00
C474   C     0.31311   0.60979   0.03331   0.00000  Uiso   1.00
C475   C     0.29829   0.53436   0.06237   0.00000  Uiso   1.00
C476   C     0.25313   0.50197   0.11561   0.00000  Uiso   1.00
C477   C     0.24678   0.43264   0.13468   0.00000  Uiso   1.00
C478   C     0.30956   0.61155   0.96004   0.00000  Uiso   1.00
C479   C     0.27389   0.64407   0.92723   0.00000  Uiso   1.00
C480   C     0.27704   0.63972   0.86014   0.00000  Uiso   1.00
C481   C     0.37876   0.63857   0.03584   0.00000  Uiso   1.00
C482   C     0.40128   0.69382   0.06674   0.00000  Uiso   1.00
C483   C     0.46269   0.71224   0.06346   0.00000  Uiso   1.00
H484   H     0.41131   0.51654   0.94679   0.00000  Uiso   1.00
H485   H     0.35850   0.40193   0.02277   0.00000  Uiso   1.00
H486   H     0.37927   0.54401   0.83441   0.00000  Uiso   1.00
H487   H     0.50663   0.59375   0.97391   0.00000  Uiso   1.00
H488   H     0.28342   0.29056   0.12155   0.00000  Uiso   1.00
H489   H     0.32721   0.59016   0.72439   0.00000  Uiso   1.00
H490   H     0.59579   0.69505   0.01854   0.00000  Uiso   1.00
H491   H     0.28392   0.63751   0.05902   0.00000  Uiso   1.00
H492   H     0.22413   0.52954   0.14116   0.00000  Uiso   1.00
H493   H     0.24489   0.67161   0.95280   0.00000  Uiso   1.00
H494   H     0.37226   0.72135   0.09230   0.00000  Uiso   1.00
H495   H     0.17435   0.39412   0.21764   0.00000  Uiso   1.00
H496   H     0.21815   0.69373   0.82048   0.00000  Uiso   1.00
H497   H     0.48672   0.79861   0.11463   0.00000  Uiso   1.00
O498   O     0.19184   0.26912   0.22159   0.00000  Uiso   1.00
O499   O     0.24930   0.66220   0.70053   0.00000  Uiso   1.00
O500   O     0.60167   0.79980   0.08645   0.00000  Uiso   1.00
N501   N     0.26596   0.32975   0.13290   0.00000  Uiso   1.00
N502   N     0.30690   0.60985   0.76158   0.00000  Uiso   1.00
N503   N     0.55800   0.70793   0.03657   0.00000  Uiso   1.00
N504   N     0.20728   0.38548   0.18461   0.00000  Uiso   1.00
N505   N     0.24821   0.66558   0.81329   0.00000  Uiso   1.00
N506   N     0.49931   0.76365   0.08828   0.00000  Uiso   1.00
C507   C     0.45645   0.11934   0.37207   0.00000  Uiso   1.00
C508   C     0.44567   0.14792   0.30500   0.00000  Uiso   1.00
C509   C     0.39346   0.16420   0.29297   0.00000  Uiso   1.00
C510   C     0.39247   0.18970   0.22819   0.00000  Uiso   1.00
C511   C     0.36821   0.23270   0.13178   0.00000  Uiso   1.00
C512   C     0.47406   0.05268   0.36237   0.00000  Uiso   1.00
C513   C     0.44571   0.98889   0.39857   0.00000  Uiso   1.00
C514   C     0.46863   0.93421   0.38209   0.00000  Uiso   1.00
C515   C     0.48846   0.82935   0.37478   0.00000  Uiso   1.00
C516   C     0.51204   0.16861   0.38467   0.00000  Uiso   1.00
C517   C     0.51564   0.20228   0.43962   0.00000  Uiso   1.00
C518   C     0.57054   0.24521   0.44192   0.00000  Uiso   1.00
C519   C     0.64934   0.32035   0.46923   0.00000  Uiso   1.00
C520   C     0.54756   0.13568   0.27844   0.00000  Uiso   1.00
C521   C     0.49516   0.15679   0.25415   0.00000  Uiso   1.00
C522   C     0.49426   0.18228   0.18937   0.00000  Uiso   1.00
C523   C     0.44205   0.19859   0.17724   0.00000  Uiso   1.00
C524   C     0.52355   0.06155   0.31151   0.00000  Uiso   1.00
C525   C     0.54652   0.00696   0.29498   0.00000  Uiso   1.00
C526   C     0.51821   0.94310   0.33114   0.00000  Uiso   1.00
C527   C     0.56153   0.17749   0.33381   0.00000  Uiso   1.00
C528   C     0.61644   0.22036   0.33602   0.00000  Uiso   1.00
C529   C     0.62012   0.25410   0.39097   0.00000  Uiso   1.00
H530   H     0.41792   0.11243   0.41166   0.00000  Uiso   1.00
H531   H     0.35517   0.15732   0.33234   0.00000  Uiso   1.00
H532   H     0.40742   0.98204   0.43793   0.00000  Uiso   1.00
H533   H     0.47733   0.19540   0.47897   0.00000  Uiso   1.00
H534   H     0.30741   0.21098   0.22195   0.00000  Uiso   1.00
H535   H     0.41760   0.84139   0.44462   0.00000  Uiso   1.00
H536   H     0.56503   0.29132   0.53116   0.00000  Uiso   1.00
H537   H     0.58609   0.14258   0.23884   0.00000  Uiso   1.00
H538   H     0.53257   0.18914   0.15002   0.00000  Uiso   1.00
H539   H     0.58482   0.01385   0.25562   0.00000  Uiso   1.00
H540   H     0.65473   0.22722   0.29666   0.00000  Uiso   1.00
H541   H     0.45139   0.23680   0.07398   0.00000  Uiso   1.00
H542   H     0.56158   0.86721   0.29665   0.00000  Uiso   1.00
H543   H     0.70901   0.31714   0.38319   0.00000  Uiso   1.00
O544   O     0.34115   0.25395   0.09266   0.00000  Uiso   1.00
O545   O     0.48572   0.76906   0.38480   0.00000  Uiso   1.00
O546   O     0.67914   0.35935   0.49833   0.00000  Uiso   1.00
N547   N     0.34865   0.21068   0.19932   0.00000  Uiso   1.00
N548   N     0.45166   0.86513   0.40749   0.00000  Uiso   1.00
N549   N     0.58950   0.28576   0.48841   0.00000  Uiso   1.00
N550   N     0.42612   0.22458   0.11970   0.00000  Uiso   1.00
N551   N     0.52914   0.87903   0.32787   0.00000  Uiso   1.00
N552   N     0.66697   0.29966   0.40879   0.00000  Uiso   1.00
