data_job_01212
_audit_creation_date              2018-12-19
_audit_creation_method            'Materials Studio'
_symmetry_space_group_name_H-M    'P1'
_symmetry_Int_Tables_number       1
_symmetry_cell_setting            triclinic
loop_
_symmetry_equiv_pos_as_xyz
  x,y,z
_cell_length_a                    18.3291
_cell_length_b                    9.5499
_cell_length_c                    24.2902
_cell_angle_alpha                 90.0000
_cell_angle_beta                  143.2090
_cell_angle_gamma                 90.0000
loop_
_atom_site_label
_atom_site_type_symbol
_atom_site_fract_x
_atom_site_fract_y
_atom_site_fract_z
_atom_site_U_iso_or_equiv
_atom_site_adp_type
_atom_site_occupancy
C1     C     0.08260   0.04507   0.30683   0.00000  Uiso   1.00
C2     C     0.06345   0.13684   0.34589   0.00000  Uiso   1.00
C3     C     0.95679   0.14643   0.31188   0.00000  Uiso   1.00
C4     C     0.95763   0.23638   0.35729   0.00000  Uiso   1.00
C5     C     0.91208   0.36715   0.40626   0.00000  Uiso   1.00
C6     C     0.12307   0.14347   0.28535   0.00000  Uiso   1.00
C7     C     0.06655   0.15861   0.20043   0.00000  Uiso   1.00
C8     C     0.11761   0.25413   0.19489   0.00000  Uiso   1.00
C9     C     0.16467   0.39511   0.14988   0.00000  Uiso   1.00
C10    C     0.19228   0.95269   0.38595   0.00000  Uiso   1.00
C11    C     0.19396   0.80742   0.38561   0.00000  Uiso   1.00
C12    C     0.30329   0.74231   0.46476   0.00000  Uiso   1.00
C13    C     0.45781   0.58707   0.57595   0.00000  Uiso   1.00
C14    C     0.27376   0.18776   0.44796   0.00000  Uiso   1.00
C15    C     0.16728   0.21435   0.42255   0.00000  Uiso   1.00
C16    C     0.16829   0.30430   0.46803   0.00000  Uiso   1.00
C17    C     0.06165   0.31402   0.43409   0.00000  Uiso   1.00
C18    C     0.22690   0.22097   0.36200   0.00000  Uiso   1.00
C19    C     0.27805   0.31648   0.35658   0.00000  Uiso   1.00
C20    C     0.22163   0.33177   0.27168   0.00000  Uiso   1.00
C21    C     0.29611   0.03019   0.46261   0.00000  Uiso   1.00
C22    C     0.40546   0.96529   0.54177   0.00000  Uiso   1.00
C23    C     0.40731   0.81995   0.54156   0.00000  Uiso   1.00
H24    H     0.00176   0.98473   0.24714   0.00000  Uiso   1.00
H25    H     0.87645   0.08645   0.25255   0.00000  Uiso   1.00
H26    H     0.98621   0.09861   0.14112   0.00000  Uiso   1.00
H27    H     0.11360   0.74748   0.32628   0.00000  Uiso   1.00
H28    H     0.78329   0.23343   0.29233   0.00000  Uiso   1.00
H29    H     0.01475   0.25905   0.05739   0.00000  Uiso   1.00
H30    H     0.28337   0.51861   0.44783   0.00000  Uiso   1.00
H31    H     0.35461   0.24810   0.50764   0.00000  Uiso   1.00
H32    H     0.24865   0.36427   0.52735   0.00000  Uiso   1.00
H33    H     0.35841   0.37643   0.41592   0.00000  Uiso   1.00
H34    H     0.48580   0.02530   0.60108   0.00000  Uiso   1.00
H35    H     0.08539   0.45893   0.51537   0.00000  Uiso   1.00
H36    H     0.31685   0.48454   0.28043   0.00000  Uiso   1.00
H37    H     0.58546   0.74411   0.67086   0.00000  Uiso   1.00
O38    O     0.85826   0.41788   0.41209   0.00000  Uiso   1.00
O39    O     0.16194   0.45147   0.10387   0.00000  Uiso   1.00
O40    O     0.51436   0.48003   0.61611   0.00000  Uiso   1.00
N41    N     0.86894   0.27054   0.34213   0.00000  Uiso   1.00
N42    N     0.08533   0.29451   0.12247   0.00000  Uiso   1.00
N43    N     0.33647   0.60226   0.48748   0.00000  Uiso   1.00
N44    N     0.03149   0.39188   0.46214   0.00000  Uiso   1.00
N45    N     0.24788   0.41584   0.24249   0.00000  Uiso   1.00
N46    N     0.49903   0.72359   0.60750   0.00000  Uiso   1.00
C47    C     0.91740   0.54507   0.19317   0.00000  Uiso   1.00
C48    C     0.93655   0.63684   0.15411   0.00000  Uiso   1.00
C49    C     0.04321   0.64643   0.18812   0.00000  Uiso   1.00
C50    C     0.04237   0.73638   0.14271   0.00000  Uiso   1.00
C51    C     0.08792   0.86715   0.09374   0.00000  Uiso   1.00
C52    C     0.87693   0.64347   0.21465   0.00000  Uiso   1.00
C53    C     0.93345   0.65861   0.29957   0.00000  Uiso   1.00
C54    C     0.88239   0.75413   0.30511   0.00000  Uiso   1.00
C55    C     0.83533   0.89511   0.35012   0.00000  Uiso   1.00
C56    C     0.80772   0.45269   0.11405   0.00000  Uiso   1.00
C57    C     0.80604   0.30742   0.11439   0.00000  Uiso   1.00
C58    C     0.69671   0.24231   0.03524   0.00000  Uiso   1.00
C59    C     0.54219   0.08707   0.92405   0.00000  Uiso   1.00
C60    C     0.72624   0.68776   0.05204   0.00000  Uiso   1.00
C61    C     0.83272   0.71435   0.07745   0.00000  Uiso   1.00
C62    C     0.83171   0.80430   0.03197   0.00000  Uiso   1.00
C63    C     0.93835   0.81402   0.06591   0.00000  Uiso   1.00
C64    C     0.77310   0.72097   0.13800   0.00000  Uiso   1.00
C65    C     0.72195   0.81648   0.14342   0.00000  Uiso   1.00
C66    C     0.77837   0.83177   0.22832   0.00000  Uiso   1.00
C67    C     0.70389   0.53019   0.03739   0.00000  Uiso   1.00
C68    C     0.59454   0.46529   0.95823   0.00000  Uiso   1.00
C69    C     0.59269   0.31995   0.95844   0.00000  Uiso   1.00
H70    H     0.99824   0.48473   0.25286   0.00000  Uiso   1.00
H71    H     0.12355   0.58645   0.24745   0.00000  Uiso   1.00
H72    H     0.01379   0.59861   0.35888   0.00000  Uiso   1.00
H73    H     0.88640   0.24748   0.17372   0.00000  Uiso   1.00
H74    H     0.21671   0.73343   0.20767   0.00000  Uiso   1.00
H75    H     0.98525   0.75905   0.44261   0.00000  Uiso   1.00
H76    H     0.71663   0.01861   0.05217   0.00000  Uiso   1.00
H77    H     0.64539   0.74810   0.99236   0.00000  Uiso   1.00
H78    H     0.75135   0.86427   0.97265   0.00000  Uiso   1.00
H79    H     0.64159   0.87643   0.08408   0.00000  Uiso   1.00
H80    H     0.51420   0.52530   0.89892   0.00000  Uiso   1.00
H81    H     0.91461   0.95893   0.98463   0.00000  Uiso   1.00
H82    H     0.68315   0.98454   0.21957   0.00000  Uiso   1.00
H83    H     0.41454   0.24411   0.82914   0.00000  Uiso   1.00
O84    O     0.14174   0.91788   0.08791   0.00000  Uiso   1.00
O85    O     0.83806   0.95147   0.39613   0.00000  Uiso   1.00
O86    O     0.48564   0.98003   0.88389   0.00000  Uiso   1.00
N87    N     0.13106   0.77054   0.15787   0.00000  Uiso   1.00
N88    N     0.91467   0.79451   0.37753   0.00000  Uiso   1.00
N89    N     0.66353   0.10226   0.01252   0.00000  Uiso   1.00
N90    N     0.96851   0.89188   0.03786   0.00000  Uiso   1.00
N91    N     0.75212   0.91584   0.25751   0.00000  Uiso   1.00
N92    N     0.50097   0.22359   0.89250   0.00000  Uiso   1.00
C93    C     0.91740   0.95493   0.69317   0.00000  Uiso   1.00
C94    C     0.93655   0.86316   0.65411   0.00000  Uiso   1.00
C95    C     0.04321   0.85357   0.68812   0.00000  Uiso   1.00
C96    C     0.04237   0.76362   0.64271   0.00000  Uiso   1.00
C97    C     0.08792   0.63285   0.59374   0.00000  Uiso   1.00
C98    C     0.87693   0.85653   0.71465   0.00000  Uiso   1.00
C99    C     0.93345   0.84139   0.79957   0.00000  Uiso   1.00
C100   C     0.88239   0.74587   0.80511   0.00000  Uiso   1.00
C101   C     0.83533   0.60489   0.85012   0.00000  Uiso   1.00
C102   C     0.80772   0.04731   0.61405   0.00000  Uiso   1.00
C103   C     0.80604   0.19258   0.61439   0.00000  Uiso   1.00
C104   C     0.69671   0.25769   0.53524   0.00000  Uiso   1.00
C105   C     0.54219   0.41293   0.42405   0.00000  Uiso   1.00
C106   C     0.72624   0.81224   0.55204   0.00000  Uiso   1.00
C107   C     0.83272   0.78565   0.57745   0.00000  Uiso   1.00
C108   C     0.83171   0.69570   0.53197   0.00000  Uiso   1.00
C109   C     0.93835   0.68598   0.56591   0.00000  Uiso   1.00
C110   C     0.77310   0.77903   0.63800   0.00000  Uiso   1.00
C111   C     0.72195   0.68352   0.64342   0.00000  Uiso   1.00
C112   C     0.77837   0.66823   0.72832   0.00000  Uiso   1.00
C113   C     0.70389   0.96981   0.53739   0.00000  Uiso   1.00
C114   C     0.59454   0.03471   0.45823   0.00000  Uiso   1.00
C115   C     0.59269   0.18005   0.45844   0.00000  Uiso   1.00
H116   H     0.99824   0.01527   0.75286   0.00000  Uiso   1.00
H117   H     0.12355   0.91355   0.74745   0.00000  Uiso   1.00
H118   H     0.01379   0.90139   0.85888   0.00000  Uiso   1.00
H119   H     0.88640   0.25252   0.67372   0.00000  Uiso   1.00
H120   H     0.21671   0.76657   0.70767   0.00000  Uiso   1.00
H121   H     0.98525   0.74095   0.94261   0.00000  Uiso   1.00
H122   H     0.71663   0.48139   0.55217   0.00000  Uiso   1.00
H123   H     0.64539   0.75190   0.49236   0.00000  Uiso   1.00
H124   H     0.75135   0.63573   0.47265   0.00000  Uiso   1.00
H125   H     0.64159   0.62357   0.58408   0.00000  Uiso   1.00
H126   H     0.51420   0.97470   0.39892   0.00000  Uiso   1.00
H127   H     0.91461   0.54107   0.48463   0.00000  Uiso   1.00
H128   H     0.68315   0.51546   0.71957   0.00000  Uiso   1.00
H129   H     0.41454   0.25589   0.32914   0.00000  Uiso   1.00
O130   O     0.14174   0.58212   0.58791   0.00000  Uiso   1.00
O131   O     0.83806   0.54853   0.89613   0.00000  Uiso   1.00
O132   O     0.48564   0.51997   0.38389   0.00000  Uiso   1.00
N133   N     0.13106   0.72946   0.65787   0.00000  Uiso   1.00
N134   N     0.91467   0.70549   0.87753   0.00000  Uiso   1.00
N135   N     0.66353   0.39774   0.51252   0.00000  Uiso   1.00
N136   N     0.96851   0.60812   0.53786   0.00000  Uiso   1.00
N137   N     0.75212   0.58416   0.75751   0.00000  Uiso   1.00
N138   N     0.50097   0.27641   0.39250   0.00000  Uiso   1.00
C139   C     0.08260   0.45493   0.80683   0.00000  Uiso   1.00
C140   C     0.06345   0.36316   0.84589   0.00000  Uiso   1.00
C141   C     0.95679   0.35357   0.81188   0.00000  Uiso   1.00
C142   C     0.95763   0.26362   0.85729   0.00000  Uiso   1.00
C143   C     0.91208   0.13285   0.90626   0.00000  Uiso   1.00
C144   C     0.12307   0.35653   0.78535   0.00000  Uiso   1.00
C145   C     0.06655   0.34139   0.70043   0.00000  Uiso   1.00
C146   C     0.11761   0.24587   0.69489   0.00000  Uiso   1.00
C147   C     0.16467   0.10489   0.64988   0.00000  Uiso   1.00
C148   C     0.19228   0.54731   0.88595   0.00000  Uiso   1.00
C149   C     0.19396   0.69258   0.88561   0.00000  Uiso   1.00
C150   C     0.30329   0.75769   0.96476   0.00000  Uiso   1.00
C151   C     0.45781   0.91293   0.07595   0.00000  Uiso   1.00
C152   C     0.27376   0.31224   0.94796   0.00000  Uiso   1.00
C153   C     0.16728   0.28565   0.92255   0.00000  Uiso   1.00
C154   C     0.16829   0.19570   0.96803   0.00000  Uiso   1.00
C155   C     0.06165   0.18598   0.93409   0.00000  Uiso   1.00
C156   C     0.22690   0.27903   0.86200   0.00000  Uiso   1.00
C157   C     0.27805   0.18352   0.85658   0.00000  Uiso   1.00
C158   C     0.22163   0.16823   0.77168   0.00000  Uiso   1.00
C159   C     0.29611   0.46981   0.96261   0.00000  Uiso   1.00
C160   C     0.40546   0.53471   0.04177   0.00000  Uiso   1.00
C161   C     0.40731   0.68005   0.04156   0.00000  Uiso   1.00
H162   H     0.00176   0.51527   0.74714   0.00000  Uiso   1.00
H163   H     0.87645   0.41355   0.75255   0.00000  Uiso   1.00
H164   H     0.98621   0.40139   0.64112   0.00000  Uiso   1.00
H165   H     0.11360   0.75252   0.82628   0.00000  Uiso   1.00
H166   H     0.78329   0.26657   0.79233   0.00000  Uiso   1.00
H167   H     0.01475   0.24095   0.55739   0.00000  Uiso   1.00
H168   H     0.28337   0.98139   0.94783   0.00000  Uiso   1.00
H169   H     0.35461   0.25190   0.00764   0.00000  Uiso   1.00
H170   H     0.24865   0.13573   0.02735   0.00000  Uiso   1.00
H171   H     0.35841   0.12357   0.91592   0.00000  Uiso   1.00
H172   H     0.48580   0.47470   0.10108   0.00000  Uiso   1.00
H173   H     0.08539   0.04107   0.01537   0.00000  Uiso   1.00
H174   H     0.31685   0.01546   0.78043   0.00000  Uiso   1.00
H175   H     0.58546   0.75589   0.17086   0.00000  Uiso   1.00
O176   O     0.85826   0.08212   0.91209   0.00000  Uiso   1.00
O177   O     0.16194   0.04853   0.60387   0.00000  Uiso   1.00
O178   O     0.51436   0.01997   0.11611   0.00000  Uiso   1.00
N179   N     0.86894   0.22946   0.84213   0.00000  Uiso   1.00
N180   N     0.08533   0.20549   0.62247   0.00000  Uiso   1.00
N181   N     0.33647   0.89774   0.98748   0.00000  Uiso   1.00
N182   N     0.03149   0.10812   0.96214   0.00000  Uiso   1.00
N183   N     0.24788   0.08416   0.74249   0.00000  Uiso   1.00
N184   N     0.49903   0.77641   0.10750   0.00000  Uiso   1.00
