data_job_04206
_audit_creation_date              2018-12-19
_audit_creation_method            'Materials Studio'
_symmetry_space_group_name_H-M    'P1'
_symmetry_Int_Tables_number       1
_symmetry_cell_setting            triclinic
loop_
_symmetry_equiv_pos_as_xyz
  x,y,z
_cell_length_a                    21.9398
_cell_length_b                    12.9054
_cell_length_c                    36.5975
_cell_angle_alpha                 90.0000
_cell_angle_beta                  139.5430
_cell_angle_gamma                 90.0000
loop_
_atom_site_label
_atom_site_type_symbol
_atom_site_fract_x
_atom_site_fract_y
_atom_site_fract_z
_atom_site_U_iso_or_equiv
_atom_site_adp_type
_atom_site_occupancy
C1     C     0.28110   0.65632   0.91709   0.00000  Uiso   1.00
C2     C     0.22191   0.74808   0.90270   0.00000  Uiso   1.00
C3     C     0.14693   0.74338   0.89267   0.00000  Uiso   1.00
C4     C     0.10182   0.83598   0.88015   0.00000  Uiso   1.00
C5     C     0.00548   0.96417   0.85814   0.00000  Uiso   1.00
C6     C     0.27534   0.65574   0.87285   0.00000  Uiso   1.00
C7     C     0.24529   0.57340   0.83774   0.00000  Uiso   1.00
C8     C     0.24516   0.58827   0.80010   0.00000  Uiso   1.00
C9     C     0.23184   0.57308   0.73179   0.00000  Uiso   1.00
C10    C     0.38252   0.68355   0.97270   0.00000  Uiso   1.00
C11    C     0.44261   0.62457   0.02154   0.00000  Uiso   1.00
C12    C     0.53273   0.66283   0.06797   0.00000  Uiso   1.00
C13    C     0.68582   0.69081   0.15468   0.00000  Uiso   1.00
C14    C     0.33432   0.82912   0.91270   0.00000  Uiso   1.00
C15    C     0.25082   0.84194   0.90031   0.00000  Uiso   1.00
C16    C     0.20581   0.93457   0.88781   0.00000  Uiso   1.00
C17    C     0.13077   0.93001   0.87777   0.00000  Uiso   1.00
C18    C     0.30424   0.74960   0.87047   0.00000  Uiso   1.00
C19    C     0.30417   0.76459   0.83288   0.00000  Uiso   1.00
C20    C     0.27412   0.68229   0.79771   0.00000  Uiso   1.00
C21    C     0.41143   0.77741   0.97032   0.00000  Uiso   1.00
C22    C     0.50148   0.81576   0.01668   0.00000  Uiso   1.00
C23    C     0.56169   0.75686   0.06558   0.00000  Uiso   1.00
H24    H     0.25860   0.58324   0.91894   0.00000  Uiso   1.00
H25    H     0.12458   0.67073   0.89451   0.00000  Uiso   1.00
H26    H     0.22293   0.50078   0.83959   0.00000  Uiso   1.00
H27    H     0.42021   0.55194   0.02337   0.00000  Uiso   1.00
H28    H     0.98871   0.80911   0.86636   0.00000  Uiso   1.00
H29    H     0.19613   0.45074   0.75057   0.00000  Uiso   1.00
H30    H     0.61214   0.55863   0.13809   0.00000  Uiso   1.00
H31    H     0.35683   0.90219   0.91084   0.00000  Uiso   1.00
H32    H     0.22820   0.00719   0.88597   0.00000  Uiso   1.00
H33    H     0.32655   0.83723   0.83105   0.00000  Uiso   1.00
H34    H     0.52383   0.88839   0.01482   0.00000  Uiso   1.00
H35    H     0.07281   0.08219   0.85942   0.00000  Uiso   1.00
H36    H     0.28023   0.72382   0.74364   0.00000  Uiso   1.00
H37    H     0.69623   0.83171   0.13116   0.00000  Uiso   1.00
O38    O     0.94435   0.00896   0.84665   0.00000  Uiso   1.00
O39    O     0.21649   0.53878   0.69476   0.00000  Uiso   1.00
O40    O     0.76227   0.68033   0.20317   0.00000  Uiso   1.00
N41    N     0.02617   0.85897   0.86815   0.00000  Uiso   1.00
N42    N     0.22008   0.52392   0.75989   0.00000  Uiso   1.00
N43    N     0.60902   0.62477   0.12218   0.00000  Uiso   1.00
N44    N     0.07142   0.00592   0.86442   0.00000  Uiso   1.00
N45    N     0.26533   0.67087   0.75616   0.00000  Uiso   1.00
N46    N     0.65427   0.77172   0.11845   0.00000  Uiso   1.00
C47    C     0.78110   0.15632   0.91709   0.00000  Uiso   1.00
C48    C     0.72191   0.24808   0.90270   0.00000  Uiso   1.00
C49    C     0.64693   0.24338   0.89267   0.00000  Uiso   1.00
C50    C     0.60182   0.33598   0.88015   0.00000  Uiso   1.00
C51    C     0.50548   0.46417   0.85814   0.00000  Uiso   1.00
C52    C     0.77534   0.15574   0.87285   0.00000  Uiso   1.00
C53    C     0.74529   0.07340   0.83774   0.00000  Uiso   1.00
C54    C     0.74516   0.08827   0.80010   0.00000  Uiso   1.00
C55    C     0.73184   0.07308   0.73179   0.00000  Uiso   1.00
C56    C     0.88252   0.18355   0.97270   0.00000  Uiso   1.00
C57    C     0.94261   0.12457   0.02154   0.00000  Uiso   1.00
C58    C     0.03273   0.16283   0.06797   0.00000  Uiso   1.00
C59    C     0.18582   0.19081   0.15468   0.00000  Uiso   1.00
C60    C     0.83432   0.32912   0.91270   0.00000  Uiso   1.00
C61    C     0.75082   0.34194   0.90031   0.00000  Uiso   1.00
C62    C     0.70581   0.43457   0.88781   0.00000  Uiso   1.00
C63    C     0.63077   0.43001   0.87777   0.00000  Uiso   1.00
C64    C     0.80424   0.24960   0.87047   0.00000  Uiso   1.00
C65    C     0.80417   0.26459   0.83288   0.00000  Uiso   1.00
C66    C     0.77412   0.18229   0.79771   0.00000  Uiso   1.00
C67    C     0.91143   0.27741   0.97032   0.00000  Uiso   1.00
C68    C     0.00148   0.31576   0.01668   0.00000  Uiso   1.00
C69    C     0.06169   0.25686   0.06558   0.00000  Uiso   1.00
H70    H     0.75860   0.08324   0.91894   0.00000  Uiso   1.00
H71    H     0.62458   0.17073   0.89451   0.00000  Uiso   1.00
H72    H     0.72293   0.00078   0.83959   0.00000  Uiso   1.00
H73    H     0.92021   0.05194   0.02337   0.00000  Uiso   1.00
H74    H     0.48871   0.30911   0.86636   0.00000  Uiso   1.00
H75    H     0.69613   0.95074   0.75057   0.00000  Uiso   1.00
H76    H     0.11214   0.05863   0.13809   0.00000  Uiso   1.00
H77    H     0.85683   0.40219   0.91084   0.00000  Uiso   1.00
H78    H     0.72820   0.50719   0.88597   0.00000  Uiso   1.00
H79    H     0.82655   0.33723   0.83105   0.00000  Uiso   1.00
H80    H     0.02383   0.38839   0.01482   0.00000  Uiso   1.00
H81    H     0.57281   0.58219   0.85942   0.00000  Uiso   1.00
H82    H     0.78023   0.22382   0.74364   0.00000  Uiso   1.00
H83    H     0.19623   0.33171   0.13116   0.00000  Uiso   1.00
O84    O     0.44435   0.50896   0.84665   0.00000  Uiso   1.00
O85    O     0.71649   0.03878   0.69476   0.00000  Uiso   1.00
O86    O     0.26227   0.18033   0.20317   0.00000  Uiso   1.00
N87    N     0.52617   0.35897   0.86815   0.00000  Uiso   1.00
N88    N     0.72008   0.02392   0.75989   0.00000  Uiso   1.00
N89    N     0.10902   0.12477   0.12218   0.00000  Uiso   1.00
N90    N     0.57142   0.50592   0.86442   0.00000  Uiso   1.00
N91    N     0.76533   0.17087   0.75616   0.00000  Uiso   1.00
N92    N     0.15427   0.27172   0.11845   0.00000  Uiso   1.00
C93    C     0.71890   0.65632   0.58291   0.00000  Uiso   1.00
C94    C     0.77809   0.74808   0.59730   0.00000  Uiso   1.00
C95    C     0.85307   0.74338   0.60733   0.00000  Uiso   1.00
C96    C     0.89818   0.83598   0.61985   0.00000  Uiso   1.00
C97    C     0.99452   0.96417   0.64186   0.00000  Uiso   1.00
C98    C     0.72466   0.65574   0.62715   0.00000  Uiso   1.00
C99    C     0.75471   0.57340   0.66226   0.00000  Uiso   1.00
C100   C     0.75484   0.58827   0.69990   0.00000  Uiso   1.00
C101   C     0.76816   0.57308   0.76821   0.00000  Uiso   1.00
C102   C     0.61748   0.68355   0.52730   0.00000  Uiso   1.00
C103   C     0.55739   0.62457   0.47846   0.00000  Uiso   1.00
C104   C     0.46727   0.66283   0.43203   0.00000  Uiso   1.00
C105   C     0.31418   0.69081   0.34532   0.00000  Uiso   1.00
C106   C     0.66568   0.82912   0.58730   0.00000  Uiso   1.00
C107   C     0.74918   0.84194   0.59969   0.00000  Uiso   1.00
C108   C     0.79419   0.93457   0.61219   0.00000  Uiso   1.00
C109   C     0.86923   0.93001   0.62223   0.00000  Uiso   1.00
C110   C     0.69576   0.74960   0.62953   0.00000  Uiso   1.00
C111   C     0.69583   0.76459   0.66712   0.00000  Uiso   1.00
C112   C     0.72588   0.68229   0.70229   0.00000  Uiso   1.00
C113   C     0.58857   0.77741   0.52968   0.00000  Uiso   1.00
C114   C     0.49852   0.81576   0.48332   0.00000  Uiso   1.00
C115   C     0.43831   0.75686   0.43442   0.00000  Uiso   1.00
H116   H     0.74140   0.58324   0.58106   0.00000  Uiso   1.00
H117   H     0.87542   0.67073   0.60549   0.00000  Uiso   1.00
H118   H     0.77707   0.50078   0.66041   0.00000  Uiso   1.00
H119   H     0.57979   0.55194   0.47663   0.00000  Uiso   1.00
H120   H     0.01129   0.80911   0.63364   0.00000  Uiso   1.00
H121   H     0.80387   0.45074   0.74943   0.00000  Uiso   1.00
H122   H     0.38786   0.55863   0.36191   0.00000  Uiso   1.00
H123   H     0.64317   0.90219   0.58916   0.00000  Uiso   1.00
H124   H     0.77180   0.00719   0.61403   0.00000  Uiso   1.00
H125   H     0.67345   0.83723   0.66895   0.00000  Uiso   1.00
H126   H     0.47617   0.88839   0.48518   0.00000  Uiso   1.00
H127   H     0.92719   0.08219   0.64058   0.00000  Uiso   1.00
H128   H     0.71977   0.72382   0.75636   0.00000  Uiso   1.00
H129   H     0.30377   0.83171   0.36884   0.00000  Uiso   1.00
O130   O     0.05565   0.00896   0.65335   0.00000  Uiso   1.00
O131   O     0.78351   0.53878   0.80524   0.00000  Uiso   1.00
O132   O     0.23773   0.68033   0.29683   0.00000  Uiso   1.00
N133   N     0.97383   0.85897   0.63185   0.00000  Uiso   1.00
N134   N     0.77992   0.52392   0.74011   0.00000  Uiso   1.00
N135   N     0.39098   0.62477   0.37782   0.00000  Uiso   1.00
N136   N     0.92858   0.00592   0.63558   0.00000  Uiso   1.00
N137   N     0.73467   0.67087   0.74384   0.00000  Uiso   1.00
N138   N     0.34573   0.77172   0.38155   0.00000  Uiso   1.00
C139   C     0.21890   0.15632   0.58291   0.00000  Uiso   1.00
C140   C     0.27809   0.24808   0.59730   0.00000  Uiso   1.00
C141   C     0.35307   0.24338   0.60733   0.00000  Uiso   1.00
C142   C     0.39818   0.33598   0.61985   0.00000  Uiso   1.00
C143   C     0.49452   0.46417   0.64186   0.00000  Uiso   1.00
C144   C     0.22466   0.15574   0.62715   0.00000  Uiso   1.00
C145   C     0.25471   0.07340   0.66226   0.00000  Uiso   1.00
C146   C     0.25484   0.08827   0.69990   0.00000  Uiso   1.00
C147   C     0.26816   0.07308   0.76821   0.00000  Uiso   1.00
C148   C     0.11748   0.18355   0.52730   0.00000  Uiso   1.00
C149   C     0.05739   0.12457   0.47846   0.00000  Uiso   1.00
C150   C     0.96727   0.16283   0.43203   0.00000  Uiso   1.00
C151   C     0.81418   0.19081   0.34532   0.00000  Uiso   1.00
C152   C     0.16568   0.32912   0.58730   0.00000  Uiso   1.00
C153   C     0.24918   0.34194   0.59969   0.00000  Uiso   1.00
C154   C     0.29419   0.43457   0.61219   0.00000  Uiso   1.00
C155   C     0.36923   0.43001   0.62223   0.00000  Uiso   1.00
C156   C     0.19576   0.24960   0.62953   0.00000  Uiso   1.00
C157   C     0.19583   0.26459   0.66712   0.00000  Uiso   1.00
C158   C     0.22588   0.18229   0.70229   0.00000  Uiso   1.00
C159   C     0.08857   0.27741   0.52968   0.00000  Uiso   1.00
C160   C     0.99852   0.31576   0.48332   0.00000  Uiso   1.00
C161   C     0.93831   0.25686   0.43442   0.00000  Uiso   1.00
H162   H     0.24140   0.08324   0.58106   0.00000  Uiso   1.00
H163   H     0.37542   0.17073   0.60549   0.00000  Uiso   1.00
H164   H     0.27707   0.00078   0.66041   0.00000  Uiso   1.00
H165   H     0.07979   0.05194   0.47663   0.00000  Uiso   1.00
H166   H     0.51129   0.30911   0.63364   0.00000  Uiso   1.00
H167   H     0.30387   0.95074   0.74943   0.00000  Uiso   1.00
H168   H     0.88786   0.05863   0.36191   0.00000  Uiso   1.00
H169   H     0.14317   0.40219   0.58916   0.00000  Uiso   1.00
H170   H     0.27180   0.50719   0.61403   0.00000  Uiso   1.00
H171   H     0.17345   0.33723   0.66895   0.00000  Uiso   1.00
H172   H     0.97617   0.38839   0.48518   0.00000  Uiso   1.00
H173   H     0.42719   0.58219   0.64058   0.00000  Uiso   1.00
H174   H     0.21977   0.22382   0.75636   0.00000  Uiso   1.00
H175   H     0.80377   0.33171   0.36884   0.00000  Uiso   1.00
O176   O     0.55565   0.50896   0.65335   0.00000  Uiso   1.00
O177   O     0.28351   0.03878   0.80524   0.00000  Uiso   1.00
O178   O     0.73773   0.18033   0.29683   0.00000  Uiso   1.00
N179   N     0.47383   0.35897   0.63185   0.00000  Uiso   1.00
N180   N     0.27992   0.02392   0.74011   0.00000  Uiso   1.00
N181   N     0.89098   0.12477   0.37782   0.00000  Uiso   1.00
N182   N     0.42858   0.50592   0.63558   0.00000  Uiso   1.00
N183   N     0.23467   0.17087   0.74384   0.00000  Uiso   1.00
N184   N     0.84573   0.27172   0.38155   0.00000  Uiso   1.00
C185   C     0.71890   0.34368   0.08291   0.00000  Uiso   1.00
C186   C     0.77809   0.25192   0.09730   0.00000  Uiso   1.00
C187   C     0.85307   0.25662   0.10733   0.00000  Uiso   1.00
C188   C     0.89818   0.16402   0.11985   0.00000  Uiso   1.00
C189   C     0.99452   0.03583   0.14186   0.00000  Uiso   1.00
C190   C     0.72466   0.34426   0.12715   0.00000  Uiso   1.00
C191   C     0.75471   0.42660   0.16226   0.00000  Uiso   1.00
C192   C     0.75484   0.41173   0.19990   0.00000  Uiso   1.00
C193   C     0.76816   0.42692   0.26821   0.00000  Uiso   1.00
C194   C     0.61748   0.31645   0.02730   0.00000  Uiso   1.00
C195   C     0.55739   0.37543   0.97846   0.00000  Uiso   1.00
C196   C     0.46727   0.33717   0.93203   0.00000  Uiso   1.00
C197   C     0.31418   0.30919   0.84532   0.00000  Uiso   1.00
C198   C     0.66568   0.17088   0.08730   0.00000  Uiso   1.00
C199   C     0.74918   0.15806   0.09969   0.00000  Uiso   1.00
C200   C     0.79419   0.06543   0.11219   0.00000  Uiso   1.00
C201   C     0.86923   0.06999   0.12223   0.00000  Uiso   1.00
C202   C     0.69576   0.25040   0.12953   0.00000  Uiso   1.00
C203   C     0.69583   0.23541   0.16712   0.00000  Uiso   1.00
C204   C     0.72588   0.31771   0.20229   0.00000  Uiso   1.00
C205   C     0.58857   0.22259   0.02968   0.00000  Uiso   1.00
C206   C     0.49852   0.18424   0.98332   0.00000  Uiso   1.00
C207   C     0.43831   0.24314   0.93442   0.00000  Uiso   1.00
H208   H     0.74140   0.41676   0.08106   0.00000  Uiso   1.00
H209   H     0.87542   0.32927   0.10549   0.00000  Uiso   1.00
H210   H     0.77707   0.49922   0.16041   0.00000  Uiso   1.00
H211   H     0.57979   0.44806   0.97663   0.00000  Uiso   1.00
H212   H     0.01129   0.19089   0.13364   0.00000  Uiso   1.00
H213   H     0.80387   0.54926   0.24943   0.00000  Uiso   1.00
H214   H     0.38786   0.44137   0.86191   0.00000  Uiso   1.00
H215   H     0.64317   0.09781   0.08916   0.00000  Uiso   1.00
H216   H     0.77180   0.99281   0.11403   0.00000  Uiso   1.00
H217   H     0.67345   0.16277   0.16895   0.00000  Uiso   1.00
H218   H     0.47617   0.11161   0.98518   0.00000  Uiso   1.00
H219   H     0.92719   0.91781   0.14058   0.00000  Uiso   1.00
H220   H     0.71977   0.27618   0.25636   0.00000  Uiso   1.00
H221   H     0.30377   0.16829   0.86884   0.00000  Uiso   1.00
O222   O     0.05565   0.99104   0.15335   0.00000  Uiso   1.00
O223   O     0.78351   0.46122   0.30524   0.00000  Uiso   1.00
O224   O     0.23773   0.31967   0.79683   0.00000  Uiso   1.00
N225   N     0.97383   0.14103   0.13185   0.00000  Uiso   1.00
N226   N     0.77992   0.47608   0.24011   0.00000  Uiso   1.00
N227   N     0.39098   0.37523   0.87782   0.00000  Uiso   1.00
N228   N     0.92858   0.99408   0.13558   0.00000  Uiso   1.00
N229   N     0.73467   0.32913   0.24384   0.00000  Uiso   1.00
N230   N     0.34573   0.22828   0.88155   0.00000  Uiso   1.00
C231   C     0.21890   0.84368   0.08291   0.00000  Uiso   1.00
C232   C     0.27809   0.75192   0.09730   0.00000  Uiso   1.00
C233   C     0.35307   0.75662   0.10733   0.00000  Uiso   1.00
C234   C     0.39818   0.66402   0.11985   0.00000  Uiso   1.00
C235   C     0.49452   0.53583   0.14186   0.00000  Uiso   1.00
C236   C     0.22466   0.84426   0.12715   0.00000  Uiso   1.00
C237   C     0.25471   0.92660   0.16226   0.00000  Uiso   1.00
C238   C     0.25484   0.91173   0.19990   0.00000  Uiso   1.00
C239   C     0.26816   0.92692   0.26821   0.00000  Uiso   1.00
C240   C     0.11748   0.81645   0.02730   0.00000  Uiso   1.00
C241   C     0.05739   0.87543   0.97846   0.00000  Uiso   1.00
C242   C     0.96727   0.83717   0.93203   0.00000  Uiso   1.00
C243   C     0.81418   0.80919   0.84532   0.00000  Uiso   1.00
C244   C     0.16568   0.67088   0.08730   0.00000  Uiso   1.00
C245   C     0.24918   0.65806   0.09969   0.00000  Uiso   1.00
C246   C     0.29419   0.56543   0.11219   0.00000  Uiso   1.00
C247   C     0.36923   0.56999   0.12223   0.00000  Uiso   1.00
C248   C     0.19576   0.75040   0.12953   0.00000  Uiso   1.00
C249   C     0.19583   0.73541   0.16712   0.00000  Uiso   1.00
C250   C     0.22588   0.81771   0.20229   0.00000  Uiso   1.00
C251   C     0.08857   0.72259   0.02968   0.00000  Uiso   1.00
C252   C     0.99852   0.68424   0.98332   0.00000  Uiso   1.00
C253   C     0.93831   0.74314   0.93442   0.00000  Uiso   1.00
H254   H     0.24140   0.91676   0.08106   0.00000  Uiso   1.00
H255   H     0.37542   0.82927   0.10549   0.00000  Uiso   1.00
H256   H     0.27707   0.99922   0.16041   0.00000  Uiso   1.00
H257   H     0.07979   0.94806   0.97663   0.00000  Uiso   1.00
H258   H     0.51129   0.69089   0.13364   0.00000  Uiso   1.00
H259   H     0.30387   0.04926   0.24943   0.00000  Uiso   1.00
H260   H     0.88786   0.94137   0.86191   0.00000  Uiso   1.00
H261   H     0.14317   0.59781   0.08916   0.00000  Uiso   1.00
H262   H     0.27180   0.49281   0.11403   0.00000  Uiso   1.00
H263   H     0.17345   0.66277   0.16895   0.00000  Uiso   1.00
H264   H     0.97617   0.61161   0.98518   0.00000  Uiso   1.00
H265   H     0.42719   0.41781   0.14058   0.00000  Uiso   1.00
H266   H     0.21977   0.77618   0.25636   0.00000  Uiso   1.00
H267   H     0.80377   0.66829   0.86884   0.00000  Uiso   1.00
O268   O     0.55565   0.49104   0.15335   0.00000  Uiso   1.00
O269   O     0.28351   0.96122   0.30524   0.00000  Uiso   1.00
O270   O     0.73773   0.81967   0.79683   0.00000  Uiso   1.00
N271   N     0.47383   0.64103   0.13185   0.00000  Uiso   1.00
N272   N     0.27992   0.97608   0.24011   0.00000  Uiso   1.00
N273   N     0.89098   0.87523   0.87782   0.00000  Uiso   1.00
N274   N     0.42858   0.49408   0.13558   0.00000  Uiso   1.00
N275   N     0.23467   0.82913   0.24384   0.00000  Uiso   1.00
N276   N     0.84573   0.72828   0.88155   0.00000  Uiso   1.00
C277   C     0.28110   0.34368   0.41709   0.00000  Uiso   1.00
C278   C     0.22191   0.25192   0.40270   0.00000  Uiso   1.00
C279   C     0.14693   0.25662   0.39267   0.00000  Uiso   1.00
C280   C     0.10182   0.16402   0.38015   0.00000  Uiso   1.00
C281   C     0.00548   0.03583   0.35814   0.00000  Uiso   1.00
C282   C     0.27534   0.34426   0.37285   0.00000  Uiso   1.00
C283   C     0.24529   0.42660   0.33774   0.00000  Uiso   1.00
C284   C     0.24516   0.41173   0.30010   0.00000  Uiso   1.00
C285   C     0.23184   0.42692   0.23179   0.00000  Uiso   1.00
C286   C     0.38252   0.31645   0.47270   0.00000  Uiso   1.00
C287   C     0.44261   0.37543   0.52154   0.00000  Uiso   1.00
C288   C     0.53273   0.33717   0.56797   0.00000  Uiso   1.00
C289   C     0.68582   0.30919   0.65468   0.00000  Uiso   1.00
C290   C     0.33432   0.17088   0.41270   0.00000  Uiso   1.00
C291   C     0.25082   0.15806   0.40031   0.00000  Uiso   1.00
C292   C     0.20581   0.06543   0.38781   0.00000  Uiso   1.00
C293   C     0.13077   0.06999   0.37777   0.00000  Uiso   1.00
C294   C     0.30424   0.25040   0.37047   0.00000  Uiso   1.00
C295   C     0.30417   0.23541   0.33288   0.00000  Uiso   1.00
C296   C     0.27412   0.31771   0.29771   0.00000  Uiso   1.00
C297   C     0.41143   0.22259   0.47032   0.00000  Uiso   1.00
C298   C     0.50148   0.18424   0.51668   0.00000  Uiso   1.00
C299   C     0.56169   0.24314   0.56558   0.00000  Uiso   1.00
H300   H     0.25860   0.41676   0.41894   0.00000  Uiso   1.00
H301   H     0.12458   0.32927   0.39451   0.00000  Uiso   1.00
H302   H     0.22293   0.49922   0.33959   0.00000  Uiso   1.00
H303   H     0.42021   0.44806   0.52337   0.00000  Uiso   1.00
H304   H     0.98871   0.19089   0.36636   0.00000  Uiso   1.00
H305   H     0.19613   0.54926   0.25057   0.00000  Uiso   1.00
H306   H     0.61214   0.44137   0.63809   0.00000  Uiso   1.00
H307   H     0.35683   0.09781   0.41084   0.00000  Uiso   1.00
H308   H     0.22820   0.99281   0.38597   0.00000  Uiso   1.00
H309   H     0.32655   0.16277   0.33105   0.00000  Uiso   1.00
H310   H     0.52383   0.11161   0.51482   0.00000  Uiso   1.00
H311   H     0.07281   0.91781   0.35942   0.00000  Uiso   1.00
H312   H     0.28023   0.27618   0.24364   0.00000  Uiso   1.00
H313   H     0.69623   0.16829   0.63116   0.00000  Uiso   1.00
O314   O     0.94435   0.99104   0.34665   0.00000  Uiso   1.00
O315   O     0.21649   0.46122   0.19476   0.00000  Uiso   1.00
O316   O     0.76227   0.31967   0.70317   0.00000  Uiso   1.00
N317   N     0.02617   0.14103   0.36815   0.00000  Uiso   1.00
N318   N     0.22008   0.47608   0.25989   0.00000  Uiso   1.00
N319   N     0.60902   0.37523   0.62218   0.00000  Uiso   1.00
N320   N     0.07142   0.99408   0.36442   0.00000  Uiso   1.00
N321   N     0.26533   0.32913   0.25616   0.00000  Uiso   1.00
N322   N     0.65427   0.22828   0.61845   0.00000  Uiso   1.00
C323   C     0.78110   0.84368   0.41709   0.00000  Uiso   1.00
C324   C     0.72191   0.75192   0.40270   0.00000  Uiso   1.00
C325   C     0.64693   0.75662   0.39267   0.00000  Uiso   1.00
C326   C     0.60182   0.66402   0.38015   0.00000  Uiso   1.00
C327   C     0.50548   0.53583   0.35814   0.00000  Uiso   1.00
C328   C     0.77534   0.84426   0.37285   0.00000  Uiso   1.00
C329   C     0.74529   0.92660   0.33774   0.00000  Uiso   1.00
C330   C     0.74516   0.91173   0.30010   0.00000  Uiso   1.00
C331   C     0.73184   0.92692   0.23179   0.00000  Uiso   1.00
C332   C     0.88252   0.81645   0.47270   0.00000  Uiso   1.00
C333   C     0.94261   0.87543   0.52154   0.00000  Uiso   1.00
C334   C     0.03273   0.83717   0.56797   0.00000  Uiso   1.00
C335   C     0.18582   0.80919   0.65468   0.00000  Uiso   1.00
C336   C     0.83432   0.67088   0.41270   0.00000  Uiso   1.00
C337   C     0.75082   0.65806   0.40031   0.00000  Uiso   1.00
C338   C     0.70581   0.56543   0.38781   0.00000  Uiso   1.00
C339   C     0.63077   0.56999   0.37777   0.00000  Uiso   1.00
C340   C     0.80424   0.75040   0.37047   0.00000  Uiso   1.00
C341   C     0.80417   0.73541   0.33288   0.00000  Uiso   1.00
C342   C     0.77412   0.81771   0.29771   0.00000  Uiso   1.00
C343   C     0.91143   0.72259   0.47032   0.00000  Uiso   1.00
C344   C     0.00148   0.68424   0.51668   0.00000  Uiso   1.00
C345   C     0.06169   0.74314   0.56558   0.00000  Uiso   1.00
H346   H     0.75860   0.91676   0.41894   0.00000  Uiso   1.00
H347   H     0.62458   0.82927   0.39451   0.00000  Uiso   1.00
H348   H     0.72293   0.99922   0.33959   0.00000  Uiso   1.00
H349   H     0.92021   0.94806   0.52337   0.00000  Uiso   1.00
H350   H     0.48871   0.69089   0.36636   0.00000  Uiso   1.00
H351   H     0.69613   0.04926   0.25057   0.00000  Uiso   1.00
H352   H     0.11214   0.94137   0.63809   0.00000  Uiso   1.00
H353   H     0.85683   0.59781   0.41084   0.00000  Uiso   1.00
H354   H     0.72820   0.49281   0.38597   0.00000  Uiso   1.00
H355   H     0.82655   0.66277   0.33105   0.00000  Uiso   1.00
H356   H     0.02383   0.61161   0.51482   0.00000  Uiso   1.00
H357   H     0.57281   0.41781   0.35942   0.00000  Uiso   1.00
H358   H     0.78023   0.77618   0.24364   0.00000  Uiso   1.00
H359   H     0.19623   0.66829   0.63116   0.00000  Uiso   1.00
O360   O     0.44435   0.49104   0.34665   0.00000  Uiso   1.00
O361   O     0.71649   0.96122   0.19476   0.00000  Uiso   1.00
O362   O     0.26227   0.81967   0.70317   0.00000  Uiso   1.00
N363   N     0.52617   0.64103   0.36815   0.00000  Uiso   1.00
N364   N     0.72008   0.97608   0.25989   0.00000  Uiso   1.00
N365   N     0.10902   0.87523   0.62218   0.00000  Uiso   1.00
N366   N     0.57142   0.49408   0.36442   0.00000  Uiso   1.00
N367   N     0.76533   0.82913   0.25616   0.00000  Uiso   1.00
N368   N     0.15427   0.72828   0.61845   0.00000  Uiso   1.00
