data_job_04853
_audit_creation_date              2018-12-19
_audit_creation_method            'Materials Studio'
_symmetry_space_group_name_H-M    'P1'
_symmetry_Int_Tables_number       1
_symmetry_cell_setting            triclinic
loop_
_symmetry_equiv_pos_as_xyz
  x,y,z
_cell_length_a                    13.9789
_cell_length_b                    9.5649
_cell_length_c                    18.0639
_cell_angle_alpha                 90.0000
_cell_angle_beta                  117.0736
_cell_angle_gamma                 90.0000
loop_
_atom_site_label
_atom_site_type_symbol
_atom_site_fract_x
_atom_site_fract_y
_atom_site_fract_z
_atom_site_U_iso_or_equiv
_atom_site_adp_type
_atom_site_occupancy
C1     C     0.34778   0.30552   0.56750   0.00000  Uiso   1.00
C2     C     0.35343   0.14627   0.57056   0.00000  Uiso   1.00
C3     C     0.44684   0.06707   0.60419   0.00000  Uiso   1.00
C4     C     0.43497   0.92275   0.60097   0.00000  Uiso   1.00
C5     C     0.45920   0.68502   0.61118   0.00000  Uiso   1.00
C6     C     0.28054   0.34719   0.61085   0.00000  Uiso   1.00
C7     C     0.31266   0.43692   0.67833   0.00000  Uiso   1.00
C8     C     0.23943   0.46174   0.70901   0.00000  Uiso   1.00
C9     C     0.15047   0.53602   0.78172   0.00000  Uiso   1.00
C10    C     0.28110   0.34398   0.47619   0.00000  Uiso   1.00
C11    C     0.31368   0.43106   0.43045   0.00000  Uiso   1.00
C12    C     0.24091   0.45321   0.34776   0.00000  Uiso   1.00
C13    C     0.15283   0.52250   0.21140   0.00000  Uiso   1.00
C14    C     0.16060   0.19007   0.50197   0.00000  Uiso   1.00
C15    C     0.25176   0.08357   0.53498   0.00000  Uiso   1.00
C16    C     0.23975   0.93933   0.53170   0.00000  Uiso   1.00
C17    C     0.33312   0.85993   0.56531   0.00000  Uiso   1.00
C18    C     0.17888   0.28448   0.57526   0.00000  Uiso   1.00
C19    C     0.10557   0.30918   0.60584   0.00000  Uiso   1.00
C20    C     0.13758   0.39892   0.67335   0.00000  Uiso   1.00
C21    C     0.17944   0.28127   0.44060   0.00000  Uiso   1.00
C22    C     0.10660   0.30331   0.35796   0.00000  Uiso   1.00
C23    C     0.13906   0.39039   0.31211   0.00000  Uiso   1.00
H24    H     0.42693   0.35435   0.59521   0.00000  Uiso   1.00
H25    H     0.52550   0.11564   0.63174   0.00000  Uiso   1.00
H26    H     0.39134   0.48544   0.70585   0.00000  Uiso   1.00
H27    H     0.39236   0.47956   0.45802   0.00000  Uiso   1.00
H28    H     0.58995   0.82333   0.65656   0.00000  Uiso   1.00
H29    H     0.30705   0.60312   0.81283   0.00000  Uiso   1.00
H30    H     0.30921   0.59074   0.29022   0.00000  Uiso   1.00
H31    H     0.08145   0.14124   0.47427   0.00000  Uiso   1.00
H32    H     0.16106   0.89083   0.50415   0.00000  Uiso   1.00
H33    H     0.02690   0.26064   0.57828   0.00000  Uiso   1.00
H34    H     0.02793   0.25476   0.33044   0.00000  Uiso   1.00
H35    H     0.29416   0.64087   0.55302   0.00000  Uiso   1.00
H36    H     0.01126   0.42067   0.70928   0.00000  Uiso   1.00
H37    H     0.01342   0.40827   0.18667   0.00000  Uiso   1.00
O38    O     0.50066   0.57122   0.62666   0.00000  Uiso   1.00
O39    O     0.12950   0.59430   0.83166   0.00000  Uiso   1.00
O40    O     0.13234   0.57803   0.14601   0.00000  Uiso   1.00
N41    N     0.50941   0.81476   0.62808   0.00000  Uiso   1.00
N42    N     0.24492   0.54380   0.77419   0.00000  Uiso   1.00
N43    N     0.24693   0.53224   0.28559   0.00000  Uiso   1.00
N44    N     0.35024   0.71657   0.57236   0.00000  Uiso   1.00
N45    N     0.08576   0.44561   0.71847   0.00000  Uiso   1.00
N46    N     0.08777   0.43406   0.22987   0.00000  Uiso   1.00
C47    C     0.65222   0.80552   0.93250   0.00000  Uiso   1.00
C48    C     0.64657   0.64627   0.92944   0.00000  Uiso   1.00
C49    C     0.55316   0.56707   0.89581   0.00000  Uiso   1.00
C50    C     0.56503   0.42275   0.89903   0.00000  Uiso   1.00
C51    C     0.54080   0.18502   0.88882   0.00000  Uiso   1.00
C52    C     0.71946   0.84719   0.88915   0.00000  Uiso   1.00
C53    C     0.68734   0.93692   0.82167   0.00000  Uiso   1.00
C54    C     0.76057   0.96174   0.79099   0.00000  Uiso   1.00
C55    C     0.84953   0.03602   0.71828   0.00000  Uiso   1.00
C56    C     0.71890   0.84398   0.02381   0.00000  Uiso   1.00
C57    C     0.68632   0.93106   0.06955   0.00000  Uiso   1.00
C58    C     0.75909   0.95321   0.15224   0.00000  Uiso   1.00
C59    C     0.84717   0.02250   0.28860   0.00000  Uiso   1.00
C60    C     0.83940   0.69007   0.99803   0.00000  Uiso   1.00
C61    C     0.74824   0.58357   0.96502   0.00000  Uiso   1.00
C62    C     0.76025   0.43933   0.96830   0.00000  Uiso   1.00
C63    C     0.66688   0.35993   0.93469   0.00000  Uiso   1.00
C64    C     0.82112   0.78448   0.92474   0.00000  Uiso   1.00
C65    C     0.89443   0.80918   0.89416   0.00000  Uiso   1.00
C66    C     0.86242   0.89892   0.82665   0.00000  Uiso   1.00
C67    C     0.82056   0.78127   0.05940   0.00000  Uiso   1.00
C68    C     0.89340   0.80331   0.14204   0.00000  Uiso   1.00
C69    C     0.86094   0.89039   0.18789   0.00000  Uiso   1.00
H70    H     0.57307   0.85435   0.90479   0.00000  Uiso   1.00
H71    H     0.47450   0.61564   0.86826   0.00000  Uiso   1.00
H72    H     0.60866   0.98544   0.79415   0.00000  Uiso   1.00
H73    H     0.60764   0.97956   0.04198   0.00000  Uiso   1.00
H74    H     0.41005   0.32333   0.84344   0.00000  Uiso   1.00
H75    H     0.69295   0.10312   0.68717   0.00000  Uiso   1.00
H76    H     0.69079   0.09074   0.20978   0.00000  Uiso   1.00
H77    H     0.91855   0.64124   0.02573   0.00000  Uiso   1.00
H78    H     0.83894   0.39083   0.99585   0.00000  Uiso   1.00
H79    H     0.97310   0.76064   0.92172   0.00000  Uiso   1.00
H80    H     0.97207   0.75476   0.16956   0.00000  Uiso   1.00
H81    H     0.70584   0.14087   0.94698   0.00000  Uiso   1.00
H82    H     0.98874   0.92067   0.79072   0.00000  Uiso   1.00
H83    H     0.98658   0.90827   0.31333   0.00000  Uiso   1.00
O84    O     0.49934   0.07122   0.87334   0.00000  Uiso   1.00
O85    O     0.87050   0.09430   0.66834   0.00000  Uiso   1.00
O86    O     0.86766   0.07803   0.35399   0.00000  Uiso   1.00
N87    N     0.49059   0.31476   0.87192   0.00000  Uiso   1.00
N88    N     0.75508   0.04380   0.72581   0.00000  Uiso   1.00
N89    N     0.75307   0.03224   0.21441   0.00000  Uiso   1.00
N90    N     0.64976   0.21657   0.92764   0.00000  Uiso   1.00
N91    N     0.91424   0.94561   0.78153   0.00000  Uiso   1.00
N92    N     0.91223   0.93406   0.27013   0.00000  Uiso   1.00
C93    C     0.65222   0.69448   0.43250   0.00000  Uiso   1.00
C94    C     0.64657   0.85373   0.42944   0.00000  Uiso   1.00
C95    C     0.55316   0.93293   0.39581   0.00000  Uiso   1.00
C96    C     0.56503   0.07725   0.39903   0.00000  Uiso   1.00
C97    C     0.54080   0.31498   0.38882   0.00000  Uiso   1.00
C98    C     0.71946   0.65281   0.38915   0.00000  Uiso   1.00
C99    C     0.68734   0.56308   0.32167   0.00000  Uiso   1.00
C100   C     0.76057   0.53826   0.29099   0.00000  Uiso   1.00
C101   C     0.84953   0.46398   0.21828   0.00000  Uiso   1.00
C102   C     0.71890   0.65602   0.52381   0.00000  Uiso   1.00
C103   C     0.68632   0.56894   0.56955   0.00000  Uiso   1.00
C104   C     0.75909   0.54679   0.65224   0.00000  Uiso   1.00
C105   C     0.84717   0.47750   0.78860   0.00000  Uiso   1.00
C106   C     0.83940   0.80993   0.49803   0.00000  Uiso   1.00
C107   C     0.74824   0.91643   0.46502   0.00000  Uiso   1.00
C108   C     0.76025   0.06067   0.46830   0.00000  Uiso   1.00
C109   C     0.66688   0.14007   0.43469   0.00000  Uiso   1.00
C110   C     0.82112   0.71552   0.42474   0.00000  Uiso   1.00
C111   C     0.89443   0.69082   0.39416   0.00000  Uiso   1.00
C112   C     0.86242   0.60108   0.32665   0.00000  Uiso   1.00
C113   C     0.82056   0.71873   0.55940   0.00000  Uiso   1.00
C114   C     0.89340   0.69669   0.64204   0.00000  Uiso   1.00
C115   C     0.86094   0.60961   0.68789   0.00000  Uiso   1.00
H116   H     0.57307   0.64565   0.40479   0.00000  Uiso   1.00
H117   H     0.47450   0.88436   0.36826   0.00000  Uiso   1.00
H118   H     0.60866   0.51456   0.29415   0.00000  Uiso   1.00
H119   H     0.60764   0.52044   0.54198   0.00000  Uiso   1.00
H120   H     0.41005   0.17667   0.34344   0.00000  Uiso   1.00
H121   H     0.69295   0.39688   0.18717   0.00000  Uiso   1.00
H122   H     0.69079   0.40926   0.70978   0.00000  Uiso   1.00
H123   H     0.91855   0.85876   0.52573   0.00000  Uiso   1.00
H124   H     0.83894   0.10917   0.49585   0.00000  Uiso   1.00
H125   H     0.97310   0.73936   0.42172   0.00000  Uiso   1.00
H126   H     0.97207   0.74524   0.66956   0.00000  Uiso   1.00
H127   H     0.70584   0.35913   0.44698   0.00000  Uiso   1.00
H128   H     0.98874   0.57933   0.29072   0.00000  Uiso   1.00
H129   H     0.98658   0.59173   0.81333   0.00000  Uiso   1.00
O130   O     0.49934   0.42878   0.37334   0.00000  Uiso   1.00
O131   O     0.87050   0.40570   0.16834   0.00000  Uiso   1.00
O132   O     0.86766   0.42197   0.85399   0.00000  Uiso   1.00
N133   N     0.49059   0.18524   0.37192   0.00000  Uiso   1.00
N134   N     0.75508   0.45620   0.22581   0.00000  Uiso   1.00
N135   N     0.75307   0.46776   0.71441   0.00000  Uiso   1.00
N136   N     0.64976   0.28343   0.42764   0.00000  Uiso   1.00
N137   N     0.91424   0.55439   0.28153   0.00000  Uiso   1.00
N138   N     0.91223   0.56594   0.77013   0.00000  Uiso   1.00
C139   C     0.34778   0.19448   0.06750   0.00000  Uiso   1.00
C140   C     0.35343   0.35373   0.07056   0.00000  Uiso   1.00
C141   C     0.44684   0.43293   0.10419   0.00000  Uiso   1.00
C142   C     0.43497   0.57725   0.10097   0.00000  Uiso   1.00
C143   C     0.45920   0.81498   0.11118   0.00000  Uiso   1.00
C144   C     0.28054   0.15281   0.11085   0.00000  Uiso   1.00
C145   C     0.31266   0.06308   0.17833   0.00000  Uiso   1.00
C146   C     0.23943   0.03826   0.20901   0.00000  Uiso   1.00
C147   C     0.15047   0.96398   0.28172   0.00000  Uiso   1.00
C148   C     0.28110   0.15602   0.97619   0.00000  Uiso   1.00
C149   C     0.31368   0.06894   0.93045   0.00000  Uiso   1.00
C150   C     0.24091   0.04679   0.84776   0.00000  Uiso   1.00
C151   C     0.15283   0.97750   0.71140   0.00000  Uiso   1.00
C152   C     0.16060   0.30993   0.00197   0.00000  Uiso   1.00
C153   C     0.25176   0.41643   0.03498   0.00000  Uiso   1.00
C154   C     0.23975   0.56067   0.03170   0.00000  Uiso   1.00
C155   C     0.33312   0.64007   0.06531   0.00000  Uiso   1.00
C156   C     0.17888   0.21552   0.07526   0.00000  Uiso   1.00
C157   C     0.10557   0.19082   0.10584   0.00000  Uiso   1.00
C158   C     0.13758   0.10108   0.17335   0.00000  Uiso   1.00
C159   C     0.17944   0.21873   0.94060   0.00000  Uiso   1.00
C160   C     0.10660   0.19669   0.85796   0.00000  Uiso   1.00
C161   C     0.13906   0.10961   0.81211   0.00000  Uiso   1.00
H162   H     0.42693   0.14565   0.09521   0.00000  Uiso   1.00
H163   H     0.52550   0.38436   0.13174   0.00000  Uiso   1.00
H164   H     0.39134   0.01456   0.20585   0.00000  Uiso   1.00
H165   H     0.39236   0.02044   0.95802   0.00000  Uiso   1.00
H166   H     0.58995   0.67667   0.15656   0.00000  Uiso   1.00
H167   H     0.30705   0.89688   0.31283   0.00000  Uiso   1.00
H168   H     0.30921   0.90926   0.79022   0.00000  Uiso   1.00
H169   H     0.08145   0.35876   0.97427   0.00000  Uiso   1.00
H170   H     0.16106   0.60917   0.00415   0.00000  Uiso   1.00
H171   H     0.02690   0.23936   0.07828   0.00000  Uiso   1.00
H172   H     0.02793   0.24524   0.83044   0.00000  Uiso   1.00
H173   H     0.29416   0.85913   0.05302   0.00000  Uiso   1.00
H174   H     0.01126   0.07933   0.20928   0.00000  Uiso   1.00
H175   H     0.01342   0.09173   0.68667   0.00000  Uiso   1.00
O176   O     0.50066   0.92878   0.12666   0.00000  Uiso   1.00
O177   O     0.12950   0.90570   0.33166   0.00000  Uiso   1.00
O178   O     0.13234   0.92197   0.64601   0.00000  Uiso   1.00
N179   N     0.50941   0.68524   0.12808   0.00000  Uiso   1.00
N180   N     0.24492   0.95620   0.27419   0.00000  Uiso   1.00
N181   N     0.24693   0.96776   0.78559   0.00000  Uiso   1.00
N182   N     0.35024   0.78343   0.07236   0.00000  Uiso   1.00
N183   N     0.08576   0.05439   0.21847   0.00000  Uiso   1.00
N184   N     0.08777   0.06594   0.72987   0.00000  Uiso   1.00
