data_job_03136
_audit_creation_date              2018-12-19
_audit_creation_method            'Materials Studio'
_symmetry_space_group_name_H-M    'P1'
_symmetry_Int_Tables_number       1
_symmetry_cell_setting            triclinic
loop_
_symmetry_equiv_pos_as_xyz
  x,y,z
_cell_length_a                    12.1515
_cell_length_b                    14.4309
_cell_length_c                    25.4387
_cell_angle_alpha                 90.0000
_cell_angle_beta                  126.9270
_cell_angle_gamma                 90.0000
loop_
_atom_site_label
_atom_site_type_symbol
_atom_site_fract_x
_atom_site_fract_y
_atom_site_fract_z
_atom_site_U_iso_or_equiv
_atom_site_adp_type
_atom_site_occupancy
C1     C     0.94947   0.82427   0.66897   0.00000  Uiso   1.00
C2     C     0.00378   0.84103   0.62913   0.00000  Uiso   1.00
C3     C     0.01832   0.77428   0.59443   0.00000  Uiso   1.00
C4     C     0.06990   0.80354   0.56112   0.00000  Uiso   1.00
C5     C     0.14887   0.81545   0.49906   0.00000  Uiso   1.00
C6     C     0.06148   0.85851   0.73836   0.00000  Uiso   1.00
C7     C     0.12451   0.80645   0.79550   0.00000  Uiso   1.00
C8     C     0.22465   0.85043   0.85414   0.00000  Uiso   1.00
C9     C     0.39312   0.88950   0.96167   0.00000  Uiso   1.00
C10    C     0.82822   0.89024   0.64119   0.00000  Uiso   1.00
C11    C     0.69513   0.86487   0.61664   0.00000  Uiso   1.00
C12    C     0.59890   0.93557   0.59348   0.00000  Uiso   1.00
C13    C     0.40520   0.02391   0.55014   0.00000  Uiso   1.00
C14    C     0.01523   0.99496   0.67152   0.00000  Uiso   1.00
C15    C     0.03950   0.93374   0.63051   0.00000  Uiso   1.00
C16    C     0.09108   0.96312   0.59724   0.00000  Uiso   1.00
C17    C     0.10568   0.89641   0.56250   0.00000  Uiso   1.00
C18    C     0.09720   0.95122   0.73974   0.00000  Uiso   1.00
C19    C     0.19727   0.99529   0.79831   0.00000  Uiso   1.00
C20    C     0.26044   0.94331   0.85552   0.00000  Uiso   1.00
C21    C     0.86394   0.98295   0.64257   0.00000  Uiso   1.00
C22    C     0.76790   0.05371   0.61945   0.00000  Uiso   1.00
C23    C     0.63468   0.02845   0.59487   0.00000  Uiso   1.00
H24    H     0.92166   0.75210   0.66790   0.00000  Uiso   1.00
H25    H     0.99067   0.70253   0.59337   0.00000  Uiso   1.00
H26    H     0.09683   0.73471   0.79441   0.00000  Uiso   1.00
H27    H     0.66753   0.79312   0.61558   0.00000  Uiso   1.00
H28    H     0.08298   0.68846   0.51137   0.00000  Uiso   1.00
H29    H     0.30680   0.75631   0.93528   0.00000  Uiso   1.00
H30    H     0.40152   0.87948   0.55817   0.00000  Uiso   1.00
H31    H     0.04304   0.06714   0.67260   0.00000  Uiso   1.00
H32    H     0.11871   0.03486   0.59832   0.00000  Uiso   1.00
H33    H     0.22488   0.06704   0.79936   0.00000  Uiso   1.00
H34    H     0.79557   0.12545   0.62053   0.00000  Uiso   1.00
H35    H     0.18691   0.95819   0.51539   0.00000  Uiso   1.00
H36    H     0.41072   0.02604   0.93930   0.00000  Uiso   1.00
H37    H     0.50545   0.14921   0.56219   0.00000  Uiso   1.00
O38    O     0.18258   0.79640   0.46446   0.00000  Uiso   1.00
O39    O     0.47619   0.88543   0.02060   0.00000  Uiso   1.00
O40    O     0.28850   0.04702   0.52584   0.00000  Uiso   1.00
N41    N     0.09703   0.75638   0.52250   0.00000  Uiso   1.00
N42    N     0.30630   0.81981   0.91883   0.00000  Uiso   1.00
N43    N     0.45995   0.93496   0.56628   0.00000  Uiso   1.00
N44    N     0.15295   0.90151   0.52466   0.00000  Uiso   1.00
N45    N     0.36222   0.96495   0.92099   0.00000  Uiso   1.00
N46    N     0.51587   0.08010   0.56844   0.00000  Uiso   1.00
C47    C     0.05053   0.32427   0.83103   0.00000  Uiso   1.00
C48    C     0.99622   0.34103   0.87087   0.00000  Uiso   1.00
C49    C     0.98168   0.27428   0.90557   0.00000  Uiso   1.00
C50    C     0.93010   0.30354   0.93888   0.00000  Uiso   1.00
C51    C     0.85113   0.31545   0.00094   0.00000  Uiso   1.00
C52    C     0.93852   0.35851   0.76164   0.00000  Uiso   1.00
C53    C     0.87549   0.30645   0.70450   0.00000  Uiso   1.00
C54    C     0.77535   0.35043   0.64586   0.00000  Uiso   1.00
C55    C     0.60688   0.38950   0.53833   0.00000  Uiso   1.00
C56    C     0.17178   0.39024   0.85881   0.00000  Uiso   1.00
C57    C     0.30487   0.36487   0.88336   0.00000  Uiso   1.00
C58    C     0.40110   0.43557   0.90652   0.00000  Uiso   1.00
C59    C     0.59480   0.52391   0.94986   0.00000  Uiso   1.00
C60    C     0.98477   0.49496   0.82848   0.00000  Uiso   1.00
C61    C     0.96050   0.43374   0.86949   0.00000  Uiso   1.00
C62    C     0.90892   0.46312   0.90276   0.00000  Uiso   1.00
C63    C     0.89432   0.39641   0.93750   0.00000  Uiso   1.00
C64    C     0.90280   0.45122   0.76026   0.00000  Uiso   1.00
C65    C     0.80273   0.49529   0.70169   0.00000  Uiso   1.00
C66    C     0.73956   0.44331   0.64448   0.00000  Uiso   1.00
C67    C     0.13606   0.48295   0.85743   0.00000  Uiso   1.00
C68    C     0.23210   0.55371   0.88055   0.00000  Uiso   1.00
C69    C     0.36532   0.52845   0.90513   0.00000  Uiso   1.00
H70    H     0.07834   0.25210   0.83210   0.00000  Uiso   1.00
H71    H     0.00933   0.20253   0.90663   0.00000  Uiso   1.00
H72    H     0.90317   0.23471   0.70559   0.00000  Uiso   1.00
H73    H     0.33247   0.29312   0.88442   0.00000  Uiso   1.00
H74    H     0.91702   0.18846   0.98863   0.00000  Uiso   1.00
H75    H     0.69320   0.25631   0.56472   0.00000  Uiso   1.00
H76    H     0.59848   0.37948   0.94183   0.00000  Uiso   1.00
H77    H     0.95696   0.56714   0.82740   0.00000  Uiso   1.00
H78    H     0.88129   0.53486   0.90168   0.00000  Uiso   1.00
H79    H     0.77512   0.56704   0.70064   0.00000  Uiso   1.00
H80    H     0.20443   0.62545   0.87947   0.00000  Uiso   1.00
H81    H     0.81309   0.45819   0.98461   0.00000  Uiso   1.00
H82    H     0.58928   0.52604   0.56070   0.00000  Uiso   1.00
H83    H     0.49455   0.64921   0.93781   0.00000  Uiso   1.00
O84    O     0.81742   0.29640   0.03554   0.00000  Uiso   1.00
O85    O     0.52381   0.38543   0.47940   0.00000  Uiso   1.00
O86    O     0.71150   0.54702   0.97416   0.00000  Uiso   1.00
N87    N     0.90297   0.25638   0.97750   0.00000  Uiso   1.00
N88    N     0.69370   0.31981   0.58117   0.00000  Uiso   1.00
N89    N     0.54005   0.43496   0.93372   0.00000  Uiso   1.00
N90    N     0.84705   0.40151   0.97534   0.00000  Uiso   1.00
N91    N     0.63778   0.46495   0.57901   0.00000  Uiso   1.00
N92    N     0.48413   0.58010   0.93156   0.00000  Uiso   1.00
C93    C     0.05053   0.17573   0.33103   0.00000  Uiso   1.00
C94    C     0.99622   0.15897   0.37087   0.00000  Uiso   1.00
C95    C     0.98168   0.22572   0.40557   0.00000  Uiso   1.00
C96    C     0.93010   0.19646   0.43888   0.00000  Uiso   1.00
C97    C     0.85113   0.18455   0.50094   0.00000  Uiso   1.00
C98    C     0.93852   0.14149   0.26164   0.00000  Uiso   1.00
C99    C     0.87549   0.19355   0.20450   0.00000  Uiso   1.00
C100   C     0.77535   0.14957   0.14586   0.00000  Uiso   1.00
C101   C     0.60688   0.11050   0.03833   0.00000  Uiso   1.00
C102   C     0.17178   0.10976   0.35881   0.00000  Uiso   1.00
C103   C     0.30487   0.13513   0.38336   0.00000  Uiso   1.00
C104   C     0.40110   0.06443   0.40652   0.00000  Uiso   1.00
C105   C     0.59480   0.97609   0.44986   0.00000  Uiso   1.00
C106   C     0.98477   0.00504   0.32848   0.00000  Uiso   1.00
C107   C     0.96050   0.06626   0.36949   0.00000  Uiso   1.00
C108   C     0.90892   0.03688   0.40276   0.00000  Uiso   1.00
C109   C     0.89432   0.10359   0.43750   0.00000  Uiso   1.00
C110   C     0.90280   0.04878   0.26026   0.00000  Uiso   1.00
C111   C     0.80273   0.00471   0.20169   0.00000  Uiso   1.00
C112   C     0.73956   0.05669   0.14448   0.00000  Uiso   1.00
C113   C     0.13606   0.01705   0.35743   0.00000  Uiso   1.00
C114   C     0.23210   0.94629   0.38055   0.00000  Uiso   1.00
C115   C     0.36532   0.97155   0.40513   0.00000  Uiso   1.00
H116   H     0.07834   0.24790   0.33210   0.00000  Uiso   1.00
H117   H     0.00933   0.29747   0.40663   0.00000  Uiso   1.00
H118   H     0.90317   0.26529   0.20559   0.00000  Uiso   1.00
H119   H     0.33247   0.20688   0.38442   0.00000  Uiso   1.00
H120   H     0.91702   0.31154   0.48863   0.00000  Uiso   1.00
H121   H     0.69320   0.24369   0.06472   0.00000  Uiso   1.00
H122   H     0.59848   0.12052   0.44183   0.00000  Uiso   1.00
H123   H     0.95696   0.93286   0.32740   0.00000  Uiso   1.00
H124   H     0.88129   0.96514   0.40168   0.00000  Uiso   1.00
H125   H     0.77512   0.93296   0.20064   0.00000  Uiso   1.00
H126   H     0.20443   0.87455   0.37947   0.00000  Uiso   1.00
H127   H     0.81309   0.04181   0.48461   0.00000  Uiso   1.00
H128   H     0.58928   0.97396   0.06070   0.00000  Uiso   1.00
H129   H     0.49455   0.85079   0.43781   0.00000  Uiso   1.00
O130   O     0.81742   0.20360   0.53554   0.00000  Uiso   1.00
O131   O     0.52381   0.11457   0.97940   0.00000  Uiso   1.00
O132   O     0.71150   0.95298   0.47416   0.00000  Uiso   1.00
N133   N     0.90297   0.24362   0.47750   0.00000  Uiso   1.00
N134   N     0.69370   0.18019   0.08117   0.00000  Uiso   1.00
N135   N     0.54005   0.06504   0.43372   0.00000  Uiso   1.00
N136   N     0.84705   0.09849   0.47534   0.00000  Uiso   1.00
N137   N     0.63778   0.03505   0.07901   0.00000  Uiso   1.00
N138   N     0.48413   0.91990   0.43156   0.00000  Uiso   1.00
C139   C     0.94947   0.67573   0.16897   0.00000  Uiso   1.00
C140   C     0.00378   0.65897   0.12913   0.00000  Uiso   1.00
C141   C     0.01832   0.72572   0.09443   0.00000  Uiso   1.00
C142   C     0.06990   0.69646   0.06112   0.00000  Uiso   1.00
C143   C     0.14887   0.68455   0.99906   0.00000  Uiso   1.00
C144   C     0.06148   0.64149   0.23836   0.00000  Uiso   1.00
C145   C     0.12451   0.69355   0.29550   0.00000  Uiso   1.00
C146   C     0.22465   0.64957   0.35414   0.00000  Uiso   1.00
C147   C     0.39312   0.61050   0.46167   0.00000  Uiso   1.00
C148   C     0.82822   0.60976   0.14119   0.00000  Uiso   1.00
C149   C     0.69513   0.63513   0.11664   0.00000  Uiso   1.00
C150   C     0.59890   0.56443   0.09348   0.00000  Uiso   1.00
C151   C     0.40520   0.47609   0.05014   0.00000  Uiso   1.00
C152   C     0.01523   0.50504   0.17152   0.00000  Uiso   1.00
C153   C     0.03950   0.56626   0.13051   0.00000  Uiso   1.00
C154   C     0.09108   0.53688   0.09724   0.00000  Uiso   1.00
C155   C     0.10568   0.60359   0.06250   0.00000  Uiso   1.00
C156   C     0.09720   0.54878   0.23974   0.00000  Uiso   1.00
C157   C     0.19727   0.50471   0.29831   0.00000  Uiso   1.00
C158   C     0.26044   0.55669   0.35552   0.00000  Uiso   1.00
C159   C     0.86394   0.51705   0.14257   0.00000  Uiso   1.00
C160   C     0.76790   0.44629   0.11945   0.00000  Uiso   1.00
C161   C     0.63468   0.47155   0.09487   0.00000  Uiso   1.00
H162   H     0.92166   0.74790   0.16790   0.00000  Uiso   1.00
H163   H     0.99067   0.79747   0.09337   0.00000  Uiso   1.00
H164   H     0.09683   0.76529   0.29441   0.00000  Uiso   1.00
H165   H     0.66753   0.70688   0.11558   0.00000  Uiso   1.00
H166   H     0.08298   0.81154   0.01137   0.00000  Uiso   1.00
H167   H     0.30680   0.74369   0.43528   0.00000  Uiso   1.00
H168   H     0.40152   0.62052   0.05817   0.00000  Uiso   1.00
H169   H     0.04304   0.43286   0.17260   0.00000  Uiso   1.00
H170   H     0.11871   0.46514   0.09832   0.00000  Uiso   1.00
H171   H     0.22488   0.43296   0.29936   0.00000  Uiso   1.00
H172   H     0.79557   0.37455   0.12053   0.00000  Uiso   1.00
H173   H     0.18691   0.54181   0.01539   0.00000  Uiso   1.00
H174   H     0.41072   0.47396   0.43930   0.00000  Uiso   1.00
H175   H     0.50545   0.35079   0.06219   0.00000  Uiso   1.00
O176   O     0.18258   0.70360   0.96446   0.00000  Uiso   1.00
O177   O     0.47619   0.61457   0.52060   0.00000  Uiso   1.00
O178   O     0.28850   0.45298   0.02584   0.00000  Uiso   1.00
N179   N     0.09703   0.74362   0.02250   0.00000  Uiso   1.00
N180   N     0.30630   0.68019   0.41883   0.00000  Uiso   1.00
N181   N     0.45995   0.56504   0.06628   0.00000  Uiso   1.00
N182   N     0.15295   0.59849   0.02466   0.00000  Uiso   1.00
N183   N     0.36222   0.53505   0.42099   0.00000  Uiso   1.00
N184   N     0.51587   0.41990   0.06844   0.00000  Uiso   1.00
