data_job_01762
_audit_creation_date              2018-12-19
_audit_creation_method            'Materials Studio'
_symmetry_space_group_name_H-M    'P1'
_symmetry_Int_Tables_number       1
_symmetry_cell_setting            triclinic
loop_
_symmetry_equiv_pos_as_xyz
  x,y,z
_cell_length_a                    62.5218
_cell_length_b                    62.5218
_cell_length_c                    6.9793
_cell_angle_alpha                 90.0000
_cell_angle_beta                  90.0000
_cell_angle_gamma                 120.0000
loop_
_atom_site_label
_atom_site_type_symbol
_atom_site_fract_x
_atom_site_fract_y
_atom_site_fract_z
_atom_site_U_iso_or_equiv
_atom_site_adp_type
_atom_site_occupancy
C1     C     0.54370   0.66296   0.21145   0.00000  Uiso   1.00
C2     C     0.56490   0.65960   0.14059   0.00000  Uiso   1.00
C3     C     0.57873   0.65258   0.25208   0.00000  Uiso   1.00
C4     C     0.59734   0.65054   0.16036   0.00000  Uiso   1.00
C5     C     0.62958   0.64460   0.08017   0.00000  Uiso   1.00
C6     C     0.55053   0.68928   0.15840   0.00000  Uiso   1.00
C7     C     0.55227   0.70722   0.28487   0.00000  Uiso   1.00
C8     C     0.55878   0.73017   0.20813   0.00000  Uiso   1.00
C9     C     0.56869   0.77031   0.15558   0.00000  Uiso   1.00
C10    C     0.52144   0.64607   0.08788   0.00000  Uiso   1.00
C11    C     0.49873   0.62768   0.15505   0.00000  Uiso   1.00
C12    C     0.48074   0.61425   0.01893   0.00000  Uiso   1.00
C13    C     0.44549   0.58731   0.85689   0.00000  Uiso   1.00
C14    C     0.55214   0.67183   0.85028   0.00000  Uiso   1.00
C15    C     0.56949   0.66442   0.94441   0.00000  Uiso   1.00
C16    C     0.58808   0.66239   0.85248   0.00000  Uiso   1.00
C17    C     0.60194   0.65536   0.96382   0.00000  Uiso   1.00
C18    C     0.55512   0.69410   0.96223   0.00000  Uiso   1.00
C19    C     0.56162   0.71703   0.88528   0.00000  Uiso   1.00
C20    C     0.56338   0.73500   0.01160   0.00000  Uiso   1.00
C21    C     0.52603   0.65089   0.89170   0.00000  Uiso   1.00
C22    C     0.50807   0.63749   0.75545   0.00000  Uiso   1.00
C23    C     0.48534   0.61908   0.82240   0.00000  Uiso   1.00
H24    H     0.54012   0.65921   0.36419   0.00000  Uiso   1.00
H25    H     0.57518   0.64885   0.40390   0.00000  Uiso   1.00
H26    H     0.54872   0.70348   0.43667   0.00000  Uiso   1.00
H27    H     0.49518   0.62396   0.30687   0.00000  Uiso   1.00
H28    H     0.61608   0.63950   0.36143   0.00000  Uiso   1.00
H29    H     0.56028   0.75470   0.43053   0.00000  Uiso   1.00
H30    H     0.44738   0.58700   0.15681   0.00000  Uiso   1.00
H31    H     0.55571   0.67558   0.69754   0.00000  Uiso   1.00
H32    H     0.59163   0.66612   0.70067   0.00000  Uiso   1.00
H33    H     0.56517   0.72075   0.73345   0.00000  Uiso   1.00
H34    H     0.51163   0.64122   0.60365   0.00000  Uiso   1.00
H35    H     0.62943   0.65352   0.79067   0.00000  Uiso   1.00
H36    H     0.57363   0.76871   0.85977   0.00000  Uiso   1.00
H37    H     0.46073   0.60101   0.58605   0.00000  Uiso   1.00
O38    O     0.64610   0.64000   0.09015   0.00000  Uiso   1.00
O39    O     0.57289   0.79113   0.18080   0.00000  Uiso   1.00
O40    O     0.42477   0.57111   0.82169   0.00000  Uiso   1.00
N41    N     0.61429   0.64409   0.22666   0.00000  Uiso   1.00
N42    N     0.56212   0.75179   0.29127   0.00000  Uiso   1.00
N43    N     0.45657   0.59501   0.03537   0.00000  Uiso   1.00
N44    N     0.62147   0.65163   0.91954   0.00000  Uiso   1.00
N45    N     0.56931   0.75933   0.98415   0.00000  Uiso   1.00
N46    N     0.46376   0.60255   0.72825   0.00000  Uiso   1.00
C47    C     0.33704   0.88074   0.87812   0.00000  Uiso   1.00
C48    C     0.34040   0.90531   0.80725   0.00000  Uiso   1.00
C49    C     0.34742   0.92616   0.91875   0.00000  Uiso   1.00
C50    C     0.34946   0.94680   0.82702   0.00000  Uiso   1.00
C51    C     0.35540   0.98498   0.74684   0.00000  Uiso   1.00
C52    C     0.31072   0.86125   0.82506   0.00000  Uiso   1.00
C53    C     0.29278   0.84506   0.95154   0.00000  Uiso   1.00
C54    C     0.26983   0.82861   0.87479   0.00000  Uiso   1.00
C55    C     0.22969   0.79837   0.82225   0.00000  Uiso   1.00
C56    C     0.35393   0.87537   0.75454   0.00000  Uiso   1.00
C57    C     0.37232   0.87105   0.82172   0.00000  Uiso   1.00
C58    C     0.38575   0.86649   0.68559   0.00000  Uiso   1.00
C59    C     0.41269   0.85818   0.52355   0.00000  Uiso   1.00
C60    C     0.32817   0.88032   0.51695   0.00000  Uiso   1.00
C61    C     0.33558   0.90507   0.61108   0.00000  Uiso   1.00
C62    C     0.33761   0.92569   0.51915   0.00000  Uiso   1.00
C63    C     0.34464   0.94658   0.63049   0.00000  Uiso   1.00
C64    C     0.30590   0.86102   0.62890   0.00000  Uiso   1.00
C65    C     0.28297   0.84459   0.55194   0.00000  Uiso   1.00
C66    C     0.26500   0.82838   0.67826   0.00000  Uiso   1.00
C67    C     0.34911   0.87514   0.55836   0.00000  Uiso   1.00
C68    C     0.36251   0.87058   0.42211   0.00000  Uiso   1.00
C69    C     0.38092   0.86626   0.48906   0.00000  Uiso   1.00
H70    H     0.34079   0.88091   0.03085   0.00000  Uiso   1.00
H71    H     0.35115   0.92633   0.07057   0.00000  Uiso   1.00
H72    H     0.29652   0.84524   0.10334   0.00000  Uiso   1.00
H73    H     0.37604   0.87123   0.97353   0.00000  Uiso   1.00
H74    H     0.36050   0.97657   0.02810   0.00000  Uiso   1.00
H75    H     0.24530   0.80558   0.09720   0.00000  Uiso   1.00
H76    H     0.41300   0.86039   0.82348   0.00000  Uiso   1.00
H77    H     0.32442   0.88014   0.36421   0.00000  Uiso   1.00
H78    H     0.33388   0.92551   0.36734   0.00000  Uiso   1.00
H79    H     0.27925   0.84442   0.40012   0.00000  Uiso   1.00
H80    H     0.35878   0.87041   0.27032   0.00000  Uiso   1.00
H81    H     0.34648   0.97591   0.45733   0.00000  Uiso   1.00
H82    H     0.23129   0.80492   0.52644   0.00000  Uiso   1.00
H83    H     0.39899   0.85972   0.25272   0.00000  Uiso   1.00
O84    O     0.36000   0.00610   0.75681   0.00000  Uiso   1.00
O85    O     0.20887   0.78176   0.84747   0.00000  Uiso   1.00
O86    O     0.42889   0.85367   0.48836   0.00000  Uiso   1.00
N87    N     0.35591   0.97019   0.89333   0.00000  Uiso   1.00
N88    N     0.24821   0.81033   0.95794   0.00000  Uiso   1.00
N89    N     0.40499   0.86156   0.70204   0.00000  Uiso   1.00
N90    N     0.34837   0.96984   0.58621   0.00000  Uiso   1.00
N91    N     0.24067   0.80997   0.65082   0.00000  Uiso   1.00
N92    N     0.39745   0.86120   0.39492   0.00000  Uiso   1.00
C93    C     0.11926   0.45630   0.54479   0.00000  Uiso   1.00
C94    C     0.09469   0.43510   0.47392   0.00000  Uiso   1.00
C95    C     0.07384   0.42127   0.58541   0.00000  Uiso   1.00
C96    C     0.05320   0.40266   0.49369   0.00000  Uiso   1.00
C97    C     0.01502   0.37042   0.41351   0.00000  Uiso   1.00
C98    C     0.13875   0.44947   0.49173   0.00000  Uiso   1.00
C99    C     0.15494   0.44773   0.61821   0.00000  Uiso   1.00
C100   C     0.17139   0.44122   0.54146   0.00000  Uiso   1.00
C101   C     0.20163   0.43131   0.48891   0.00000  Uiso   1.00
C102   C     0.12463   0.47856   0.42121   0.00000  Uiso   1.00
C103   C     0.12895   0.50127   0.48838   0.00000  Uiso   1.00
C104   C     0.13351   0.51926   0.35226   0.00000  Uiso   1.00
C105   C     0.14182   0.55451   0.19022   0.00000  Uiso   1.00
C106   C     0.11968   0.44786   0.18361   0.00000  Uiso   1.00
C107   C     0.09493   0.43051   0.27774   0.00000  Uiso   1.00
C108   C     0.07431   0.41192   0.18582   0.00000  Uiso   1.00
C109   C     0.05342   0.39806   0.29716   0.00000  Uiso   1.00
C110   C     0.13898   0.44488   0.29556   0.00000  Uiso   1.00
C111   C     0.15541   0.43838   0.21861   0.00000  Uiso   1.00
C112   C     0.17162   0.43662   0.34493   0.00000  Uiso   1.00
C113   C     0.12486   0.47397   0.22503   0.00000  Uiso   1.00
C114   C     0.12942   0.49193   0.08878   0.00000  Uiso   1.00
C115   C     0.13374   0.51466   0.15573   0.00000  Uiso   1.00
H116   H     0.11909   0.45988   0.69752   0.00000  Uiso   1.00
H117   H     0.07367   0.42482   0.73723   0.00000  Uiso   1.00
H118   H     0.15476   0.45128   0.77001   0.00000  Uiso   1.00
H119   H     0.12877   0.50482   0.64020   0.00000  Uiso   1.00
H120   H     0.02343   0.38392   0.69476   0.00000  Uiso   1.00
H121   H     0.19442   0.43972   0.76386   0.00000  Uiso   1.00
H122   H     0.13961   0.55262   0.49015   0.00000  Uiso   1.00
H123   H     0.11986   0.44429   0.03088   0.00000  Uiso   1.00
H124   H     0.07449   0.40837   0.03400   0.00000  Uiso   1.00
H125   H     0.15558   0.43483   0.06679   0.00000  Uiso   1.00
H126   H     0.12959   0.48837   0.93698   0.00000  Uiso   1.00
H127   H     0.02409   0.37057   0.12400   0.00000  Uiso   1.00
H128   H     0.19508   0.42637   0.19310   0.00000  Uiso   1.00
H129   H     0.14028   0.53927   0.91938   0.00000  Uiso   1.00
O130   O     0.99390   0.35390   0.42348   0.00000  Uiso   1.00
O131   O     0.21824   0.42711   0.51414   0.00000  Uiso   1.00
O132   O     0.14633   0.57523   0.15503   0.00000  Uiso   1.00
N133   N     0.02981   0.38571   0.56000   0.00000  Uiso   1.00
N134   N     0.18967   0.43788   0.62461   0.00000  Uiso   1.00
N135   N     0.13844   0.54343   0.36871   0.00000  Uiso   1.00
N136   N     0.03016   0.37853   0.25287   0.00000  Uiso   1.00
N137   N     0.19003   0.43069   0.31748   0.00000  Uiso   1.00
N138   N     0.13880   0.53624   0.06158   0.00000  Uiso   1.00
C139   C     0.45630   0.33704   0.71145   0.00000  Uiso   1.00
C140   C     0.43510   0.34040   0.64059   0.00000  Uiso   1.00
C141   C     0.42127   0.34742   0.75208   0.00000  Uiso   1.00
C142   C     0.40266   0.34946   0.66036   0.00000  Uiso   1.00
C143   C     0.37042   0.35540   0.58017   0.00000  Uiso   1.00
C144   C     0.44947   0.31072   0.65840   0.00000  Uiso   1.00
C145   C     0.44773   0.29278   0.78487   0.00000  Uiso   1.00
C146   C     0.44122   0.26983   0.70813   0.00000  Uiso   1.00
C147   C     0.43131   0.22969   0.65558   0.00000  Uiso   1.00
C148   C     0.47856   0.35393   0.58788   0.00000  Uiso   1.00
C149   C     0.50127   0.37232   0.65505   0.00000  Uiso   1.00
C150   C     0.51926   0.38575   0.51893   0.00000  Uiso   1.00
C151   C     0.55451   0.41269   0.35689   0.00000  Uiso   1.00
C152   C     0.44786   0.32817   0.35028   0.00000  Uiso   1.00
C153   C     0.43051   0.33558   0.44441   0.00000  Uiso   1.00
C154   C     0.41192   0.33761   0.35248   0.00000  Uiso   1.00
C155   C     0.39806   0.34464   0.46382   0.00000  Uiso   1.00
C156   C     0.44488   0.30590   0.46223   0.00000  Uiso   1.00
C157   C     0.43838   0.28297   0.38528   0.00000  Uiso   1.00
C158   C     0.43662   0.26500   0.51160   0.00000  Uiso   1.00
C159   C     0.47397   0.34911   0.39170   0.00000  Uiso   1.00
C160   C     0.49193   0.36251   0.25545   0.00000  Uiso   1.00
C161   C     0.51466   0.38092   0.32240   0.00000  Uiso   1.00
H162   H     0.45988   0.34079   0.86419   0.00000  Uiso   1.00
H163   H     0.42482   0.35115   0.90390   0.00000  Uiso   1.00
H164   H     0.45128   0.29652   0.93667   0.00000  Uiso   1.00
H165   H     0.50482   0.37604   0.80687   0.00000  Uiso   1.00
H166   H     0.38392   0.36050   0.86143   0.00000  Uiso   1.00
H167   H     0.43972   0.24530   0.93053   0.00000  Uiso   1.00
H168   H     0.55262   0.41300   0.65681   0.00000  Uiso   1.00
H169   H     0.44429   0.32442   0.19754   0.00000  Uiso   1.00
H170   H     0.40837   0.33388   0.20067   0.00000  Uiso   1.00
H171   H     0.43483   0.27925   0.23345   0.00000  Uiso   1.00
H172   H     0.48837   0.35878   0.10365   0.00000  Uiso   1.00
H173   H     0.37057   0.34648   0.29067   0.00000  Uiso   1.00
H174   H     0.42637   0.23129   0.35977   0.00000  Uiso   1.00
H175   H     0.53927   0.39899   0.08605   0.00000  Uiso   1.00
O176   O     0.35390   0.36000   0.59015   0.00000  Uiso   1.00
O177   O     0.42711   0.20887   0.68080   0.00000  Uiso   1.00
O178   O     0.57523   0.42889   0.32169   0.00000  Uiso   1.00
N179   N     0.38571   0.35591   0.72666   0.00000  Uiso   1.00
N180   N     0.43788   0.24821   0.79127   0.00000  Uiso   1.00
N181   N     0.54343   0.40499   0.53537   0.00000  Uiso   1.00
N182   N     0.37853   0.34837   0.41954   0.00000  Uiso   1.00
N183   N     0.43069   0.24067   0.48415   0.00000  Uiso   1.00
N184   N     0.53624   0.39745   0.22825   0.00000  Uiso   1.00
C185   C     0.66296   0.11926   0.37812   0.00000  Uiso   1.00
C186   C     0.65960   0.09469   0.30725   0.00000  Uiso   1.00
C187   C     0.65258   0.07384   0.41875   0.00000  Uiso   1.00
C188   C     0.65054   0.05320   0.32702   0.00000  Uiso   1.00
C189   C     0.64460   0.01502   0.24684   0.00000  Uiso   1.00
C190   C     0.68928   0.13875   0.32506   0.00000  Uiso   1.00
C191   C     0.70722   0.15494   0.45154   0.00000  Uiso   1.00
C192   C     0.73017   0.17139   0.37479   0.00000  Uiso   1.00
C193   C     0.77031   0.20163   0.32225   0.00000  Uiso   1.00
C194   C     0.64607   0.12463   0.25454   0.00000  Uiso   1.00
C195   C     0.62768   0.12895   0.32172   0.00000  Uiso   1.00
C196   C     0.61425   0.13351   0.18559   0.00000  Uiso   1.00
C197   C     0.58731   0.14182   0.02355   0.00000  Uiso   1.00
C198   C     0.67183   0.11968   0.01695   0.00000  Uiso   1.00
C199   C     0.66442   0.09493   0.11108   0.00000  Uiso   1.00
C200   C     0.66239   0.07431   0.01915   0.00000  Uiso   1.00
C201   C     0.65536   0.05342   0.13049   0.00000  Uiso   1.00
C202   C     0.69410   0.13898   0.12890   0.00000  Uiso   1.00
C203   C     0.71703   0.15541   0.05194   0.00000  Uiso   1.00
C204   C     0.73500   0.17162   0.17826   0.00000  Uiso   1.00
C205   C     0.65089   0.12486   0.05836   0.00000  Uiso   1.00
C206   C     0.63749   0.12942   0.92211   0.00000  Uiso   1.00
C207   C     0.61908   0.13374   0.98906   0.00000  Uiso   1.00
H208   H     0.65921   0.11909   0.53085   0.00000  Uiso   1.00
H209   H     0.64885   0.07367   0.57057   0.00000  Uiso   1.00
H210   H     0.70348   0.15476   0.60334   0.00000  Uiso   1.00
H211   H     0.62396   0.12877   0.47353   0.00000  Uiso   1.00
H212   H     0.63950   0.02343   0.52810   0.00000  Uiso   1.00
H213   H     0.75470   0.19442   0.59720   0.00000  Uiso   1.00
H214   H     0.58700   0.13961   0.32348   0.00000  Uiso   1.00
H215   H     0.67558   0.11986   0.86421   0.00000  Uiso   1.00
H216   H     0.66612   0.07449   0.86734   0.00000  Uiso   1.00
H217   H     0.72075   0.15558   0.90012   0.00000  Uiso   1.00
H218   H     0.64122   0.12959   0.77032   0.00000  Uiso   1.00
H219   H     0.65352   0.02409   0.95733   0.00000  Uiso   1.00
H220   H     0.76871   0.19508   0.02644   0.00000  Uiso   1.00
H221   H     0.60101   0.14028   0.75272   0.00000  Uiso   1.00
O222   O     0.64000   0.99390   0.25681   0.00000  Uiso   1.00
O223   O     0.79113   0.21824   0.34747   0.00000  Uiso   1.00
O224   O     0.57111   0.14633   0.98836   0.00000  Uiso   1.00
N225   N     0.64409   0.02981   0.39333   0.00000  Uiso   1.00
N226   N     0.75179   0.18967   0.45794   0.00000  Uiso   1.00
N227   N     0.59501   0.13844   0.20204   0.00000  Uiso   1.00
N228   N     0.65163   0.03016   0.08621   0.00000  Uiso   1.00
N229   N     0.75933   0.19003   0.15082   0.00000  Uiso   1.00
N230   N     0.60255   0.13880   0.89492   0.00000  Uiso   1.00
C231   C     0.88074   0.54370   0.04479   0.00000  Uiso   1.00
C232   C     0.90531   0.56490   0.97392   0.00000  Uiso   1.00
C233   C     0.92616   0.57873   0.08541   0.00000  Uiso   1.00
C234   C     0.94680   0.59734   0.99369   0.00000  Uiso   1.00
C235   C     0.98498   0.62958   0.91351   0.00000  Uiso   1.00
C236   C     0.86125   0.55053   0.99173   0.00000  Uiso   1.00
C237   C     0.84506   0.55227   0.11821   0.00000  Uiso   1.00
C238   C     0.82861   0.55878   0.04146   0.00000  Uiso   1.00
C239   C     0.79837   0.56869   0.98891   0.00000  Uiso   1.00
C240   C     0.87537   0.52144   0.92121   0.00000  Uiso   1.00
C241   C     0.87105   0.49873   0.98838   0.00000  Uiso   1.00
C242   C     0.86649   0.48074   0.85226   0.00000  Uiso   1.00
C243   C     0.85818   0.44549   0.69022   0.00000  Uiso   1.00
C244   C     0.88032   0.55214   0.68361   0.00000  Uiso   1.00
C245   C     0.90507   0.56949   0.77774   0.00000  Uiso   1.00
C246   C     0.92569   0.58808   0.68582   0.00000  Uiso   1.00
C247   C     0.94658   0.60194   0.79716   0.00000  Uiso   1.00
C248   C     0.86102   0.55512   0.79556   0.00000  Uiso   1.00
C249   C     0.84459   0.56162   0.71861   0.00000  Uiso   1.00
C250   C     0.82838   0.56338   0.84493   0.00000  Uiso   1.00
C251   C     0.87514   0.52603   0.72503   0.00000  Uiso   1.00
C252   C     0.87058   0.50807   0.58878   0.00000  Uiso   1.00
C253   C     0.86626   0.48534   0.65573   0.00000  Uiso   1.00
H254   H     0.88091   0.54012   0.19752   0.00000  Uiso   1.00
H255   H     0.92633   0.57518   0.23723   0.00000  Uiso   1.00
H256   H     0.84524   0.54872   0.27001   0.00000  Uiso   1.00
H257   H     0.87123   0.49518   0.14020   0.00000  Uiso   1.00
H258   H     0.97657   0.61608   0.19476   0.00000  Uiso   1.00
H259   H     0.80558   0.56028   0.26386   0.00000  Uiso   1.00
H260   H     0.86039   0.44738   0.99015   0.00000  Uiso   1.00
H261   H     0.88014   0.55571   0.53088   0.00000  Uiso   1.00
H262   H     0.92551   0.59163   0.53400   0.00000  Uiso   1.00
H263   H     0.84442   0.56517   0.56679   0.00000  Uiso   1.00
H264   H     0.87041   0.51163   0.43698   0.00000  Uiso   1.00
H265   H     0.97591   0.62943   0.62400   0.00000  Uiso   1.00
H266   H     0.80492   0.57363   0.69310   0.00000  Uiso   1.00
H267   H     0.85972   0.46073   0.41938   0.00000  Uiso   1.00
O268   O     0.00610   0.64610   0.92348   0.00000  Uiso   1.00
O269   O     0.78176   0.57289   0.01414   0.00000  Uiso   1.00
O270   O     0.85367   0.42477   0.65503   0.00000  Uiso   1.00
N271   N     0.97019   0.61429   0.06000   0.00000  Uiso   1.00
N272   N     0.81033   0.56212   0.12461   0.00000  Uiso   1.00
N273   N     0.86156   0.45657   0.86871   0.00000  Uiso   1.00
N274   N     0.96984   0.62147   0.75287   0.00000  Uiso   1.00
N275   N     0.80997   0.56931   0.81748   0.00000  Uiso   1.00
N276   N     0.86120   0.46376   0.56158   0.00000  Uiso   1.00
C277   C     0.66296   0.54370   0.45521   0.00000  Uiso   1.00
C278   C     0.65960   0.56490   0.52608   0.00000  Uiso   1.00
C279   C     0.65258   0.57873   0.41459   0.00000  Uiso   1.00
C280   C     0.65054   0.59734   0.50631   0.00000  Uiso   1.00
C281   C     0.64460   0.62958   0.58649   0.00000  Uiso   1.00
C282   C     0.68928   0.55053   0.50827   0.00000  Uiso   1.00
C283   C     0.70722   0.55227   0.38179   0.00000  Uiso   1.00
C284   C     0.73017   0.55878   0.45854   0.00000  Uiso   1.00
C285   C     0.77031   0.56869   0.51109   0.00000  Uiso   1.00
C286   C     0.64607   0.52144   0.57879   0.00000  Uiso   1.00
C287   C     0.62768   0.49873   0.51162   0.00000  Uiso   1.00
C288   C     0.61425   0.48074   0.64774   0.00000  Uiso   1.00
C289   C     0.58731   0.44549   0.80978   0.00000  Uiso   1.00
C290   C     0.67183   0.55214   0.81639   0.00000  Uiso   1.00
C291   C     0.66442   0.56949   0.72226   0.00000  Uiso   1.00
C292   C     0.66239   0.58808   0.81418   0.00000  Uiso   1.00
C293   C     0.65536   0.60194   0.70284   0.00000  Uiso   1.00
C294   C     0.69410   0.55512   0.70444   0.00000  Uiso   1.00
C295   C     0.71703   0.56162   0.78139   0.00000  Uiso   1.00
C296   C     0.73500   0.56338   0.65507   0.00000  Uiso   1.00
C297   C     0.65089   0.52603   0.77497   0.00000  Uiso   1.00
C298   C     0.63749   0.50807   0.91122   0.00000  Uiso   1.00
C299   C     0.61908   0.48534   0.84427   0.00000  Uiso   1.00
H300   H     0.65921   0.54012   0.30248   0.00000  Uiso   1.00
H301   H     0.64885   0.57518   0.26277   0.00000  Uiso   1.00
H302   H     0.70348   0.54872   0.22999   0.00000  Uiso   1.00
H303   H     0.62396   0.49518   0.35980   0.00000  Uiso   1.00
H304   H     0.63950   0.61608   0.30524   0.00000  Uiso   1.00
H305   H     0.75470   0.56028   0.23614   0.00000  Uiso   1.00
H306   H     0.58700   0.44738   0.50985   0.00000  Uiso   1.00
H307   H     0.67558   0.55571   0.96912   0.00000  Uiso   1.00
H308   H     0.66612   0.59163   0.96600   0.00000  Uiso   1.00
H309   H     0.72075   0.56517   0.93321   0.00000  Uiso   1.00
H310   H     0.64122   0.51163   0.06302   0.00000  Uiso   1.00
H311   H     0.65352   0.62943   0.87600   0.00000  Uiso   1.00
H312   H     0.76871   0.57363   0.80690   0.00000  Uiso   1.00
H313   H     0.60101   0.46073   0.08062   0.00000  Uiso   1.00
O314   O     0.64000   0.64610   0.57652   0.00000  Uiso   1.00
O315   O     0.79113   0.57289   0.48586   0.00000  Uiso   1.00
O316   O     0.57111   0.42477   0.84497   0.00000  Uiso   1.00
N317   N     0.64409   0.61429   0.44000   0.00000  Uiso   1.00
N318   N     0.75179   0.56212   0.37539   0.00000  Uiso   1.00
N319   N     0.59501   0.45657   0.63129   0.00000  Uiso   1.00
N320   N     0.65163   0.62147   0.74713   0.00000  Uiso   1.00
N321   N     0.75933   0.56931   0.68252   0.00000  Uiso   1.00
N322   N     0.60255   0.46376   0.93842   0.00000  Uiso   1.00
C323   C     0.88074   0.33704   0.78855   0.00000  Uiso   1.00
C324   C     0.90531   0.34040   0.85941   0.00000  Uiso   1.00
C325   C     0.92616   0.34742   0.74792   0.00000  Uiso   1.00
C326   C     0.94680   0.34946   0.83964   0.00000  Uiso   1.00
C327   C     0.98498   0.35540   0.91983   0.00000  Uiso   1.00
C328   C     0.86125   0.31072   0.84160   0.00000  Uiso   1.00
C329   C     0.84506   0.29278   0.71513   0.00000  Uiso   1.00
C330   C     0.82861   0.26983   0.79187   0.00000  Uiso   1.00
C331   C     0.79837   0.22969   0.84442   0.00000  Uiso   1.00
C332   C     0.87537   0.35393   0.91212   0.00000  Uiso   1.00
C333   C     0.87105   0.37232   0.84495   0.00000  Uiso   1.00
C334   C     0.86649   0.38575   0.98107   0.00000  Uiso   1.00
C335   C     0.85818   0.41269   0.14311   0.00000  Uiso   1.00
C336   C     0.88032   0.32817   0.14972   0.00000  Uiso   1.00
C337   C     0.90507   0.33558   0.05559   0.00000  Uiso   1.00
C338   C     0.92569   0.33761   0.14752   0.00000  Uiso   1.00
C339   C     0.94658   0.34464   0.03618   0.00000  Uiso   1.00
C340   C     0.86102   0.30590   0.03777   0.00000  Uiso   1.00
C341   C     0.84459   0.28297   0.11472   0.00000  Uiso   1.00
C342   C     0.82838   0.26500   0.98840   0.00000  Uiso   1.00
C343   C     0.87514   0.34911   0.10830   0.00000  Uiso   1.00
C344   C     0.87058   0.36251   0.24455   0.00000  Uiso   1.00
C345   C     0.86626   0.38092   0.17760   0.00000  Uiso   1.00
H346   H     0.88091   0.34079   0.63581   0.00000  Uiso   1.00
H347   H     0.92633   0.35115   0.59610   0.00000  Uiso   1.00
H348   H     0.84524   0.29652   0.56333   0.00000  Uiso   1.00
H349   H     0.87123   0.37604   0.69313   0.00000  Uiso   1.00
H350   H     0.97657   0.36050   0.63857   0.00000  Uiso   1.00
H351   H     0.80558   0.24530   0.56947   0.00000  Uiso   1.00
H352   H     0.86039   0.41300   0.84319   0.00000  Uiso   1.00
H353   H     0.88014   0.32442   0.30246   0.00000  Uiso   1.00
H354   H     0.92551   0.33388   0.29933   0.00000  Uiso   1.00
H355   H     0.84442   0.27925   0.26655   0.00000  Uiso   1.00
H356   H     0.87041   0.35878   0.39635   0.00000  Uiso   1.00
H357   H     0.97591   0.34648   0.20933   0.00000  Uiso   1.00
H358   H     0.80492   0.23129   0.14023   0.00000  Uiso   1.00
H359   H     0.85972   0.39899   0.41395   0.00000  Uiso   1.00
O360   O     0.00610   0.36000   0.90985   0.00000  Uiso   1.00
O361   O     0.78176   0.20887   0.81920   0.00000  Uiso   1.00
O362   O     0.85367   0.42889   0.17831   0.00000  Uiso   1.00
N363   N     0.97019   0.35591   0.77334   0.00000  Uiso   1.00
N364   N     0.81033   0.24821   0.70873   0.00000  Uiso   1.00
N365   N     0.86156   0.40499   0.96463   0.00000  Uiso   1.00
N366   N     0.96984   0.34837   0.08046   0.00000  Uiso   1.00
N367   N     0.80997   0.24067   0.01585   0.00000  Uiso   1.00
N368   N     0.86120   0.39745   0.27175   0.00000  Uiso   1.00
C369   C     0.45630   0.11926   0.12188   0.00000  Uiso   1.00
C370   C     0.43510   0.09469   0.19275   0.00000  Uiso   1.00
C371   C     0.42127   0.07384   0.08125   0.00000  Uiso   1.00
C372   C     0.40266   0.05320   0.17298   0.00000  Uiso   1.00
C373   C     0.37042   0.01502   0.25316   0.00000  Uiso   1.00
C374   C     0.44947   0.13875   0.17494   0.00000  Uiso   1.00
C375   C     0.44773   0.15494   0.04846   0.00000  Uiso   1.00
C376   C     0.44122   0.17139   0.12521   0.00000  Uiso   1.00
C377   C     0.43131   0.20163   0.17775   0.00000  Uiso   1.00
C378   C     0.47856   0.12463   0.24546   0.00000  Uiso   1.00
C379   C     0.50127   0.12895   0.17828   0.00000  Uiso   1.00
C380   C     0.51926   0.13351   0.31441   0.00000  Uiso   1.00
C381   C     0.55451   0.14182   0.47645   0.00000  Uiso   1.00
C382   C     0.44786   0.11968   0.48305   0.00000  Uiso   1.00
C383   C     0.43051   0.09493   0.38892   0.00000  Uiso   1.00
C384   C     0.41192   0.07431   0.48085   0.00000  Uiso   1.00
C385   C     0.39806   0.05342   0.36951   0.00000  Uiso   1.00
C386   C     0.44488   0.13898   0.37110   0.00000  Uiso   1.00
C387   C     0.43838   0.15541   0.44806   0.00000  Uiso   1.00
C388   C     0.43662   0.17162   0.32174   0.00000  Uiso   1.00
C389   C     0.47397   0.12486   0.44164   0.00000  Uiso   1.00
C390   C     0.49193   0.12942   0.57789   0.00000  Uiso   1.00
C391   C     0.51466   0.13374   0.51094   0.00000  Uiso   1.00
H392   H     0.45988   0.11909   0.96915   0.00000  Uiso   1.00
H393   H     0.42482   0.07367   0.92943   0.00000  Uiso   1.00
H394   H     0.45128   0.15476   0.89666   0.00000  Uiso   1.00
H395   H     0.50482   0.12877   0.02647   0.00000  Uiso   1.00
H396   H     0.38392   0.02343   0.97190   0.00000  Uiso   1.00
H397   H     0.43972   0.19442   0.90280   0.00000  Uiso   1.00
H398   H     0.55262   0.13961   0.17652   0.00000  Uiso   1.00
H399   H     0.44429   0.11986   0.63579   0.00000  Uiso   1.00
H400   H     0.40837   0.07449   0.63266   0.00000  Uiso   1.00
H401   H     0.43483   0.15558   0.59988   0.00000  Uiso   1.00
H402   H     0.48837   0.12959   0.72968   0.00000  Uiso   1.00
H403   H     0.37057   0.02409   0.54267   0.00000  Uiso   1.00
H404   H     0.42637   0.19508   0.47356   0.00000  Uiso   1.00
H405   H     0.53927   0.14028   0.74728   0.00000  Uiso   1.00
O406   O     0.35390   0.99390   0.24319   0.00000  Uiso   1.00
O407   O     0.42711   0.21824   0.15253   0.00000  Uiso   1.00
O408   O     0.57523   0.14633   0.51164   0.00000  Uiso   1.00
N409   N     0.38571   0.02981   0.10667   0.00000  Uiso   1.00
N410   N     0.43788   0.18967   0.04206   0.00000  Uiso   1.00
N411   N     0.54343   0.13844   0.29796   0.00000  Uiso   1.00
N412   N     0.37853   0.03016   0.41379   0.00000  Uiso   1.00
N413   N     0.43069   0.19003   0.34918   0.00000  Uiso   1.00
N414   N     0.53624   0.13880   0.60508   0.00000  Uiso   1.00
C415   C     0.33704   0.45630   0.95521   0.00000  Uiso   1.00
C416   C     0.34040   0.43510   0.02608   0.00000  Uiso   1.00
C417   C     0.34742   0.42127   0.91459   0.00000  Uiso   1.00
C418   C     0.34946   0.40266   0.00631   0.00000  Uiso   1.00
C419   C     0.35540   0.37042   0.08649   0.00000  Uiso   1.00
C420   C     0.31072   0.44947   0.00827   0.00000  Uiso   1.00
C421   C     0.29278   0.44773   0.88179   0.00000  Uiso   1.00
C422   C     0.26983   0.44122   0.95854   0.00000  Uiso   1.00
C423   C     0.22969   0.43131   0.01109   0.00000  Uiso   1.00
C424   C     0.35393   0.47856   0.07879   0.00000  Uiso   1.00
C425   C     0.37232   0.50127   0.01162   0.00000  Uiso   1.00
C426   C     0.38575   0.51926   0.14774   0.00000  Uiso   1.00
C427   C     0.41269   0.55451   0.30978   0.00000  Uiso   1.00
C428   C     0.32817   0.44786   0.31639   0.00000  Uiso   1.00
C429   C     0.33558   0.43051   0.22226   0.00000  Uiso   1.00
C430   C     0.33761   0.41192   0.31418   0.00000  Uiso   1.00
C431   C     0.34464   0.39806   0.20284   0.00000  Uiso   1.00
C432   C     0.30590   0.44488   0.20444   0.00000  Uiso   1.00
C433   C     0.28297   0.43838   0.28139   0.00000  Uiso   1.00
C434   C     0.26500   0.43662   0.15507   0.00000  Uiso   1.00
C435   C     0.34911   0.47397   0.27497   0.00000  Uiso   1.00
C436   C     0.36251   0.49193   0.41122   0.00000  Uiso   1.00
C437   C     0.38092   0.51466   0.34427   0.00000  Uiso   1.00
H438   H     0.34079   0.45988   0.80248   0.00000  Uiso   1.00
H439   H     0.35115   0.42482   0.76277   0.00000  Uiso   1.00
H440   H     0.29652   0.45128   0.72999   0.00000  Uiso   1.00
H441   H     0.37604   0.50482   0.85980   0.00000  Uiso   1.00
H442   H     0.36050   0.38392   0.80524   0.00000  Uiso   1.00
H443   H     0.24530   0.43972   0.73614   0.00000  Uiso   1.00
H444   H     0.41300   0.55262   0.00985   0.00000  Uiso   1.00
H445   H     0.32442   0.44429   0.46912   0.00000  Uiso   1.00
H446   H     0.33388   0.40837   0.46600   0.00000  Uiso   1.00
H447   H     0.27925   0.43483   0.43321   0.00000  Uiso   1.00
H448   H     0.35878   0.48837   0.56302   0.00000  Uiso   1.00
H449   H     0.34648   0.37057   0.37600   0.00000  Uiso   1.00
H450   H     0.23129   0.42637   0.30690   0.00000  Uiso   1.00
H451   H     0.39899   0.53927   0.58062   0.00000  Uiso   1.00
O452   O     0.36000   0.35390   0.07652   0.00000  Uiso   1.00
O453   O     0.20887   0.42711   0.98586   0.00000  Uiso   1.00
O454   O     0.42889   0.57523   0.34497   0.00000  Uiso   1.00
N455   N     0.35591   0.38571   0.94000   0.00000  Uiso   1.00
N456   N     0.24821   0.43788   0.87539   0.00000  Uiso   1.00
N457   N     0.40499   0.54343   0.13129   0.00000  Uiso   1.00
N458   N     0.34837   0.37853   0.24713   0.00000  Uiso   1.00
N459   N     0.24067   0.43069   0.18252   0.00000  Uiso   1.00
N460   N     0.39745   0.53624   0.43842   0.00000  Uiso   1.00
C461   C     0.11926   0.66296   0.28855   0.00000  Uiso   1.00
C462   C     0.09469   0.65960   0.35941   0.00000  Uiso   1.00
C463   C     0.07384   0.65258   0.24792   0.00000  Uiso   1.00
C464   C     0.05320   0.65054   0.33964   0.00000  Uiso   1.00
C465   C     0.01502   0.64460   0.41983   0.00000  Uiso   1.00
C466   C     0.13875   0.68928   0.34160   0.00000  Uiso   1.00
C467   C     0.15494   0.70722   0.21513   0.00000  Uiso   1.00
C468   C     0.17139   0.73017   0.29187   0.00000  Uiso   1.00
C469   C     0.20163   0.77031   0.34442   0.00000  Uiso   1.00
C470   C     0.12463   0.64607   0.41212   0.00000  Uiso   1.00
C471   C     0.12895   0.62768   0.34495   0.00000  Uiso   1.00
C472   C     0.13351   0.61425   0.48107   0.00000  Uiso   1.00
C473   C     0.14182   0.58731   0.64311   0.00000  Uiso   1.00
C474   C     0.11968   0.67183   0.64972   0.00000  Uiso   1.00
C475   C     0.09493   0.66442   0.55559   0.00000  Uiso   1.00
C476   C     0.07431   0.66239   0.64752   0.00000  Uiso   1.00
C477   C     0.05342   0.65536   0.53618   0.00000  Uiso   1.00
C478   C     0.13898   0.69410   0.53777   0.00000  Uiso   1.00
C479   C     0.15541   0.71703   0.61472   0.00000  Uiso   1.00
C480   C     0.17162   0.73500   0.48840   0.00000  Uiso   1.00
C481   C     0.12486   0.65089   0.60830   0.00000  Uiso   1.00
C482   C     0.12942   0.63749   0.74455   0.00000  Uiso   1.00
C483   C     0.13374   0.61908   0.67760   0.00000  Uiso   1.00
H484   H     0.11909   0.65921   0.13581   0.00000  Uiso   1.00
H485   H     0.07367   0.64885   0.09610   0.00000  Uiso   1.00
H486   H     0.15476   0.70348   0.06333   0.00000  Uiso   1.00
H487   H     0.12877   0.62396   0.19313   0.00000  Uiso   1.00
H488   H     0.02343   0.63950   0.13857   0.00000  Uiso   1.00
H489   H     0.19442   0.75470   0.06947   0.00000  Uiso   1.00
H490   H     0.13961   0.58700   0.34319   0.00000  Uiso   1.00
H491   H     0.11986   0.67558   0.80246   0.00000  Uiso   1.00
H492   H     0.07449   0.66612   0.79933   0.00000  Uiso   1.00
H493   H     0.15558   0.72075   0.76655   0.00000  Uiso   1.00
H494   H     0.12959   0.64122   0.89635   0.00000  Uiso   1.00
H495   H     0.02409   0.65352   0.70933   0.00000  Uiso   1.00
H496   H     0.19508   0.76871   0.64023   0.00000  Uiso   1.00
H497   H     0.14028   0.60101   0.91395   0.00000  Uiso   1.00
O498   O     0.99390   0.64000   0.40985   0.00000  Uiso   1.00
O499   O     0.21824   0.79113   0.31920   0.00000  Uiso   1.00
O500   O     0.14633   0.57111   0.67831   0.00000  Uiso   1.00
N501   N     0.02981   0.64409   0.27334   0.00000  Uiso   1.00
N502   N     0.18967   0.75179   0.20873   0.00000  Uiso   1.00
N503   N     0.13844   0.59501   0.46463   0.00000  Uiso   1.00
N504   N     0.03016   0.65163   0.58046   0.00000  Uiso   1.00
N505   N     0.19003   0.75933   0.51585   0.00000  Uiso   1.00
N506   N     0.13880   0.60255   0.77175   0.00000  Uiso   1.00
C507   C     0.54370   0.88074   0.62188   0.00000  Uiso   1.00
C508   C     0.56490   0.90531   0.69275   0.00000  Uiso   1.00
C509   C     0.57873   0.92616   0.58125   0.00000  Uiso   1.00
C510   C     0.59734   0.94680   0.67298   0.00000  Uiso   1.00
C511   C     0.62958   0.98498   0.75316   0.00000  Uiso   1.00
C512   C     0.55053   0.86125   0.67494   0.00000  Uiso   1.00
C513   C     0.55227   0.84506   0.54846   0.00000  Uiso   1.00
C514   C     0.55878   0.82861   0.62521   0.00000  Uiso   1.00
C515   C     0.56869   0.79837   0.67775   0.00000  Uiso   1.00
C516   C     0.52144   0.87537   0.74546   0.00000  Uiso   1.00
C517   C     0.49873   0.87105   0.67828   0.00000  Uiso   1.00
C518   C     0.48074   0.86649   0.81441   0.00000  Uiso   1.00
C519   C     0.44549   0.85818   0.97645   0.00000  Uiso   1.00
C520   C     0.55214   0.88032   0.98305   0.00000  Uiso   1.00
C521   C     0.56949   0.90507   0.88892   0.00000  Uiso   1.00
C522   C     0.58808   0.92569   0.98085   0.00000  Uiso   1.00
C523   C     0.60194   0.94658   0.86951   0.00000  Uiso   1.00
C524   C     0.55512   0.86102   0.87110   0.00000  Uiso   1.00
C525   C     0.56162   0.84459   0.94806   0.00000  Uiso   1.00
C526   C     0.56338   0.82838   0.82174   0.00000  Uiso   1.00
C527   C     0.52603   0.87514   0.94164   0.00000  Uiso   1.00
C528   C     0.50807   0.87058   0.07789   0.00000  Uiso   1.00
C529   C     0.48534   0.86626   0.01094   0.00000  Uiso   1.00
H530   H     0.54012   0.88091   0.46915   0.00000  Uiso   1.00
H531   H     0.57518   0.92633   0.42943   0.00000  Uiso   1.00
H532   H     0.54872   0.84524   0.39666   0.00000  Uiso   1.00
H533   H     0.49518   0.87123   0.52647   0.00000  Uiso   1.00
H534   H     0.61608   0.97657   0.47190   0.00000  Uiso   1.00
H535   H     0.56028   0.80558   0.40280   0.00000  Uiso   1.00
H536   H     0.44738   0.86039   0.67652   0.00000  Uiso   1.00
H537   H     0.55571   0.88014   0.13579   0.00000  Uiso   1.00
H538   H     0.59163   0.92551   0.13266   0.00000  Uiso   1.00
H539   H     0.56517   0.84442   0.09988   0.00000  Uiso   1.00
H540   H     0.51163   0.87041   0.22968   0.00000  Uiso   1.00
H541   H     0.62943   0.97591   0.04267   0.00000  Uiso   1.00
H542   H     0.57363   0.80492   0.97356   0.00000  Uiso   1.00
H543   H     0.46073   0.85972   0.24728   0.00000  Uiso   1.00
O544   O     0.64610   0.00610   0.74319   0.00000  Uiso   1.00
O545   O     0.57289   0.78176   0.65253   0.00000  Uiso   1.00
O546   O     0.42477   0.85367   0.01164   0.00000  Uiso   1.00
N547   N     0.61429   0.97019   0.60667   0.00000  Uiso   1.00
N548   N     0.56212   0.81033   0.54206   0.00000  Uiso   1.00
N549   N     0.45657   0.86156   0.79796   0.00000  Uiso   1.00
N550   N     0.62147   0.96984   0.91379   0.00000  Uiso   1.00
N551   N     0.56931   0.80997   0.84918   0.00000  Uiso   1.00
N552   N     0.46376   0.86120   0.10508   0.00000  Uiso   1.00
