data_job_06732
_audit_creation_date              2018-12-19
_audit_creation_method            'Materials Studio'
_symmetry_space_group_name_H-M    'P1'
_symmetry_Int_Tables_number       1
_symmetry_cell_setting            triclinic
loop_
_symmetry_equiv_pos_as_xyz
  x,y,z
_cell_length_a                    22.6872
_cell_length_b                    19.4534
_cell_length_c                    22.5926
_cell_angle_alpha                 67.4492
_cell_angle_beta                  71.4225
_cell_angle_gamma                 71.1629
loop_
_atom_site_label
_atom_site_type_symbol
_atom_site_fract_x
_atom_site_fract_y
_atom_site_fract_z
_atom_site_U_iso_or_equiv
_atom_site_adp_type
_atom_site_occupancy
C1     C     0.75761   0.58075   0.11850   0.00000  Uiso   1.00
C2     C     0.82171   0.56873   0.13373   0.00000  Uiso   1.00
C3     C     0.88101   0.55802   0.09119   0.00000  Uiso   1.00
C4     C     0.93396   0.54801   0.11438   0.00000  Uiso   1.00
C5     C     0.03444   0.52921   0.12838   0.00000  Uiso   1.00
C6     C     0.72617   0.51835   0.17191   0.00000  Uiso   1.00
C7     C     0.70513   0.46528   0.16146   0.00000  Uiso   1.00
C8     C     0.67764   0.41286   0.21679   0.00000  Uiso   1.00
C9     C     0.62975   0.31588   0.29006   0.00000  Uiso   1.00
C10    C     0.71713   0.65602   0.12996   0.00000  Uiso   1.00
C11    C     0.68848   0.71870   0.08424   0.00000  Uiso   1.00
C12    C     0.65338   0.78218   0.10427   0.00000  Uiso   1.00
C13    C     0.59146   0.89895   0.11240   0.00000  Uiso   1.00
C14    C     0.74620   0.58201   0.23536   0.00000  Uiso   1.00
C15    C     0.81551   0.56942   0.19720   0.00000  Uiso   1.00
C16    C     0.86839   0.55942   0.22047   0.00000  Uiso   1.00
C17    C     0.92776   0.54870   0.17797   0.00000  Uiso   1.00
C18    C     0.71997   0.51903   0.23537   0.00000  Uiso   1.00
C19    C     0.69251   0.46668   0.29074   0.00000  Uiso   1.00
C20    C     0.67144   0.41355   0.28038   0.00000  Uiso   1.00
C21    C     0.71094   0.65671   0.19343   0.00000  Uiso   1.00
C22    C     0.67586   0.72010   0.21353   0.00000  Uiso   1.00
C23    C     0.64717   0.78287   0.16785   0.00000  Uiso   1.00
H24    H     0.76243   0.58021   0.06909   0.00000  Uiso   1.00
H25    H     0.88579   0.55748   0.04207   0.00000  Uiso   1.00
H26    H     0.70993   0.46477   0.11233   0.00000  Uiso   1.00
H27    H     0.69329   0.71815   0.03513   0.00000  Uiso   1.00
H28    H     0.01982   0.53257   0.04011   0.00000  Uiso   1.00
H29    H     0.64899   0.33709   0.18826   0.00000  Uiso   1.00
H30    H     0.61390   0.87139   0.02547   0.00000  Uiso   1.00
H31    H     0.74137   0.58255   0.28477   0.00000  Uiso   1.00
H32    H     0.86358   0.55996   0.26959   0.00000  Uiso   1.00
H33    H     0.68772   0.46724   0.33985   0.00000  Uiso   1.00
H34    H     0.67108   0.72061   0.26265   0.00000  Uiso   1.00
H35    H     0.00179   0.53457   0.22478   0.00000  Uiso   1.00
H36    H     0.63096   0.33909   0.37292   0.00000  Uiso   1.00
H37    H     0.59587   0.87339   0.21013   0.00000  Uiso   1.00
O38    O     0.09157   0.51864   0.11857   0.00000  Uiso   1.00
O39    O     0.60505   0.26219   0.31293   0.00000  Uiso   1.00
O40    O     0.55902   0.96317   0.09935   0.00000  Uiso   1.00
N41    N     0.99880   0.53616   0.08565   0.00000  Uiso   1.00
N42    N     0.65211   0.35338   0.22416   0.00000  Uiso   1.00
N43    N     0.61929   0.85290   0.07197   0.00000  Uiso   1.00
N44    N     0.98910   0.53723   0.18502   0.00000  Uiso   1.00
N45    N     0.64241   0.35446   0.32353   0.00000  Uiso   1.00
N46    N     0.60959   0.85398   0.17134   0.00000  Uiso   1.00
C47    C     0.15065   0.61822   0.76169   0.00000  Uiso   1.00
C48    C     0.14676   0.69462   0.76859   0.00000  Uiso   1.00
C49    C     0.10500   0.76329   0.74493   0.00000  Uiso   1.00
C50    C     0.10895   0.82678   0.75625   0.00000  Uiso   1.00
C51    C     0.09621   0.94619   0.76181   0.00000  Uiso   1.00
C52    C     0.21961   0.59120   0.72775   0.00000  Uiso   1.00
C53    C     0.23909   0.57290   0.66975   0.00000  Uiso   1.00
C54    C     0.30436   0.54933   0.64670   0.00000  Uiso   1.00
C55    C     0.40472   0.50812   0.58888   0.00000  Uiso   1.00
C56    C     0.14130   0.56243   0.83134   0.00000  Uiso   1.00
C57    C     0.09494   0.51992   0.86043   0.00000  Uiso   1.00
C58    C     0.09429   0.47210   0.92460   0.00000  Uiso   1.00
C59    C     0.07305   0.38623   0.02760   0.00000  Uiso   1.00
C60    C     0.23194   0.60886   0.82389   0.00000  Uiso   1.00
C61    C     0.19092   0.68953   0.80238   0.00000  Uiso   1.00
C62    C     0.19493   0.75294   0.81375   0.00000  Uiso   1.00
C63    C     0.15317   0.82169   0.79010   0.00000  Uiso   1.00
C64    C     0.26376   0.58612   0.76153   0.00000  Uiso   1.00
C65    C     0.32902   0.56255   0.73857   0.00000  Uiso   1.00
C66    C     0.34859   0.54424   0.68055   0.00000  Uiso   1.00
C67    C     0.18545   0.55734   0.86513   0.00000  Uiso   1.00
C68    C     0.18487   0.50958   0.92926   0.00000  Uiso   1.00
C69    C     0.13852   0.46701   0.95844   0.00000  Uiso   1.00
H70    H     0.11628   0.62217   0.73538   0.00000  Uiso   1.00
H71    H     0.07084   0.76720   0.71878   0.00000  Uiso   1.00
H72    H     0.20491   0.57684   0.64362   0.00000  Uiso   1.00
H73    H     0.06078   0.52387   0.83427   0.00000  Uiso   1.00
H74    H     0.03994   0.92575   0.71525   0.00000  Uiso   1.00
H75    H     0.32263   0.52434   0.55678   0.00000  Uiso   1.00
H76    H     0.01871   0.41264   0.95881   0.00000  Uiso   1.00
H77    H     0.26632   0.60490   0.85020   0.00000  Uiso   1.00
H78    H     0.22910   0.74899   0.83990   0.00000  Uiso   1.00
H79    H     0.36318   0.55862   0.76473   0.00000  Uiso   1.00
H80    H     0.21905   0.50566   0.95539   0.00000  Uiso   1.00
H81    H     0.16840   0.91097   0.81355   0.00000  Uiso   1.00
H82    H     0.45109   0.50956   0.65508   0.00000  Uiso   1.00
H83    H     0.14717   0.39786   0.05711   0.00000  Uiso   1.00
O84    O     0.07700   0.01346   0.75553   0.00000  Uiso   1.00
O85    O     0.44788   0.48681   0.54764   0.00000  Uiso   1.00
O86    O     0.04914   0.34027   0.07509   0.00000  Uiso   1.00
N87    N     0.07527   0.90250   0.73981   0.00000  Uiso   1.00
N88    N     0.33957   0.52721   0.59165   0.00000  Uiso   1.00
N89    N     0.05544   0.42277   0.96751   0.00000  Uiso   1.00
N90    N     0.14439   0.89454   0.79270   0.00000  Uiso   1.00
N91    N     0.40870   0.51926   0.64454   0.00000  Uiso   1.00
N92    N     0.12457   0.41482   0.02040   0.00000  Uiso   1.00
C93    C     0.84193   0.07744   0.67796   0.00000  Uiso   1.00
C94    C     0.81273   0.08027   0.74807   0.00000  Uiso   1.00
C95    C     0.79026   0.02198   0.80120   0.00000  Uiso   1.00
C96    C     0.76528   0.03574   0.86131   0.00000  Uiso   1.00
C97    C     0.72027   0.02957   0.96915   0.00000  Uiso   1.00
C98    C     0.80223   0.14573   0.63464   0.00000  Uiso   1.00
C99    C     0.77094   0.14246   0.59240   0.00000  Uiso   1.00
C100   C     0.73712   0.21133   0.55702   0.00000  Uiso   1.00
C101   C     0.67585   0.30677   0.48873   0.00000  Uiso   1.00
C102   C     0.90780   0.09412   0.65959   0.00000  Uiso   1.00
C103   C     0.96527   0.04748   0.63829   0.00000  Uiso   1.00
C104   C     0.02034   0.07290   0.62390   0.00000  Uiso   1.00
C105   C     0.12298   0.08821   0.59433   0.00000  Uiso   1.00
C106   C     0.83752   0.20554   0.69024   0.00000  Uiso   1.00
C107   C     0.81033   0.14985   0.75474   0.00000  Uiso   1.00
C108   C     0.78538   0.16370   0.81478   0.00000  Uiso   1.00
C109   C     0.76288   0.10544   0.86799   0.00000  Uiso   1.00
C110   C     0.79983   0.21530   0.64131   0.00000  Uiso   1.00
C111   C     0.76606   0.28418   0.60598   0.00000  Uiso   1.00
C112   C     0.73472   0.28103   0.56370   0.00000  Uiso   1.00
C113   C     0.90540   0.16369   0.66625   0.00000  Uiso   1.00
C114   C     0.96039   0.18920   0.65188   0.00000  Uiso   1.00
C115   C     0.01794   0.14260   0.63057   0.00000  Uiso   1.00
H116   H     0.84379   0.02328   0.67277   0.00000  Uiso   1.00
H117   H     0.79211   0.96815   0.79602   0.00000  Uiso   1.00
H118   H     0.77280   0.08861   0.58725   0.00000  Uiso   1.00
H119   H     0.96710   0.99364   0.63314   0.00000  Uiso   1.00
H120   H     0.73375   0.93772   0.93560   0.00000  Uiso   1.00
H121   H     0.69304   0.19173   0.49537   0.00000  Uiso   1.00
H122   H     0.10277   0.99146   0.59214   0.00000  Uiso   1.00
H123   H     0.83565   0.25971   0.69543   0.00000  Uiso   1.00
H124   H     0.78353   0.21755   0.81993   0.00000  Uiso   1.00
H125   H     0.76422   0.33801   0.61115   0.00000  Uiso   1.00
H126   H     0.95852   0.24304   0.65705   0.00000  Uiso   1.00
H127   H     0.72678   0.14015   0.95501   0.00000  Uiso   1.00
H128   H     0.68608   0.39415   0.51477   0.00000  Uiso   1.00
H129   H     0.09580   0.19388   0.61155   0.00000  Uiso   1.00
O130   O     0.69610   0.00695   0.02679   0.00000  Uiso   1.00
O131   O     0.64271   0.34019   0.44922   0.00000  Uiso   1.00
O132   O     0.18026   0.07744   0.57618   0.00000  Uiso   1.00
N133   N     0.73927   0.99114   0.92308   0.00000  Uiso   1.00
N134   N     0.70121   0.22862   0.51151   0.00000  Uiso   1.00
N135   N     0.08427   0.04139   0.60196   0.00000  Uiso   1.00
N136   N     0.73552   0.10007   0.93353   0.00000  Uiso   1.00
N137   N     0.69746   0.33754   0.52195   0.00000  Uiso   1.00
N138   N     0.08052   0.15032   0.61240   0.00000  Uiso   1.00
C139   C     0.31245   0.53117   0.15719   0.00000  Uiso   1.00
C140   C     0.37836   0.54921   0.12959   0.00000  Uiso   1.00
C141   C     0.43436   0.50068   0.10804   0.00000  Uiso   1.00
C142   C     0.48974   0.52782   0.08449   0.00000  Uiso   1.00
C143   C     0.59219   0.54474   0.04190   0.00000  Uiso   1.00
C144   C     0.26906   0.59458   0.11459   0.00000  Uiso   1.00
C145   C     0.23315   0.58420   0.08045   0.00000  Uiso   1.00
C146   C     0.19652   0.64953   0.04427   0.00000  Uiso   1.00
C147   C     0.12924   0.73688   0.97844   0.00000  Uiso   1.00
C148   C     0.28908   0.54188   0.22496   0.00000  Uiso   1.00
C149   C     0.26999   0.48719   0.28362   0.00000  Uiso   1.00
C150   C     0.25020   0.50815   0.34037   0.00000  Uiso   1.00
C151   C     0.21400   0.51367   0.44590   0.00000  Uiso   1.00
C152   C     0.31124   0.66565   0.15367   0.00000  Uiso   1.00
C153   C     0.37771   0.62226   0.12768   0.00000  Uiso   1.00
C154   C     0.43302   0.64948   0.10416   0.00000  Uiso   1.00
C155   C     0.48909   0.60100   0.08258   0.00000  Uiso   1.00
C156   C     0.26841   0.66763   0.11268   0.00000  Uiso   1.00
C157   C     0.23182   0.73299   0.07656   0.00000  Uiso   1.00
C158   C     0.19587   0.72271   0.04236   0.00000  Uiso   1.00
C159   C     0.28843   0.61492   0.22306   0.00000  Uiso   1.00
C160   C     0.26866   0.63598   0.27973   0.00000  Uiso   1.00
C161   C     0.24954   0.58133   0.33845   0.00000  Uiso   1.00
H162   H     0.31295   0.47430   0.15867   0.00000  Uiso   1.00
H163   H     0.43484   0.44416   0.10952   0.00000  Uiso   1.00
H164   H     0.23366   0.52766   0.08194   0.00000  Uiso   1.00
H165   H     0.27050   0.43067   0.28507   0.00000  Uiso   1.00
H166   H     0.56968   0.44297   0.05417   0.00000  Uiso   1.00
H167   H     0.14548   0.61903   0.99602   0.00000  Uiso   1.00
H168   H     0.22314   0.41450   0.42437   0.00000  Uiso   1.00
H169   H     0.31073   0.72253   0.15219   0.00000  Uiso   1.00
H170   H     0.43250   0.70601   0.10269   0.00000  Uiso   1.00
H171   H     0.23132   0.78951   0.07510   0.00000  Uiso   1.00
H172   H     0.26816   0.69251   0.27823   0.00000  Uiso   1.00
H173   H     0.56779   0.65549   0.04862   0.00000  Uiso   1.00
H174   H     0.14357   0.83156   0.99047   0.00000  Uiso   1.00
H175   H     0.22125   0.62703   0.41882   0.00000  Uiso   1.00
O176   O     0.64888   0.53389   0.01892   0.00000  Uiso   1.00
O177   O     0.09232   0.76488   0.94265   0.00000  Uiso   1.00
O178   O     0.19423   0.49654   0.50463   0.00000  Uiso   1.00
N179   N     0.55253   0.49525   0.05967   0.00000  Uiso   1.00
N180   N     0.15593   0.65986   0.00529   0.00000  Uiso   1.00
N181   N     0.22852   0.46864   0.40576   0.00000  Uiso   1.00
N182   N     0.55151   0.60960   0.05668   0.00000  Uiso   1.00
N183   N     0.15490   0.77422   0.00231   0.00000  Uiso   1.00
N184   N     0.22750   0.58300   0.40278   0.00000  Uiso   1.00
C185   C     0.83455   0.04094   0.17063   0.00000  Uiso   1.00
C186   C     0.84337   0.04324   0.23394   0.00000  Uiso   1.00
C187   C     0.82597   0.99370   0.29646   0.00000  Uiso   1.00
C188   C     0.83807   0.00528   0.34802   0.00000  Uiso   1.00
C189   C     0.84746   0.99985   0.44794   0.00000  Uiso   1.00
C190   C     0.90070   0.03417   0.12490   0.00000  Uiso   1.00
C191   C     0.93148   0.97700   0.09573   0.00000  Uiso   1.00
C192   C     0.99182   0.98095   0.05549   0.00000  Uiso   1.00
C193   C     0.09019   0.96145   0.98608   0.00000  Uiso   1.00
C194   C     0.79551   0.11987   0.13961   0.00000  Uiso   1.00
C195   C     0.73787   0.13478   0.12279   0.00000  Uiso   1.00
C196   C     0.70966   0.21088   0.09492   0.00000  Uiso   1.00
C197   C     0.64472   0.32447   0.04835   0.00000  Uiso   1.00
C198   C     0.88697   0.14960   0.15102   0.00000  Uiso   1.00
C199   C     0.87185   0.10226   0.22329   0.00000  Uiso   1.00
C200   C     0.88397   0.11392   0.27477   0.00000  Uiso   1.00
C201   C     0.86658   0.06440   0.33735   0.00000  Uiso   1.00
C202   C     0.92917   0.09318   0.11425   0.00000  Uiso   1.00
C203   C     0.98947   0.09721   0.07404   0.00000  Uiso   1.00
C204   C     0.02034   0.04007   0.04482   0.00000  Uiso   1.00
C205   C     0.82398   0.17889   0.12896   0.00000  Uiso   1.00
C206   C     0.79586   0.25499   0.10111   0.00000  Uiso   1.00
C207   C     0.73819   0.27001   0.08425   0.00000  Uiso   1.00
H208   H     0.81239   0.99499   0.17891   0.00000  Uiso   1.00
H209   H     0.80395   0.94803   0.30467   0.00000  Uiso   1.00
H210   H     0.90943   0.93134   0.10397   0.00000  Uiso   1.00
H211   H     0.71585   0.08909   0.13103   0.00000  Uiso   1.00
H212   H     0.80716   0.92197   0.43941   0.00000  Uiso   1.00
H213   H     0.02958   0.88679   0.01619   0.00000  Uiso   1.00
H214   H     0.62138   0.21944   0.07326   0.00000  Uiso   1.00
H215   H     0.90913   0.19555   0.14273   0.00000  Uiso   1.00
H216   H     0.90600   0.15959   0.26652   0.00000  Uiso   1.00
H217   H     0.01149   0.14290   0.06581   0.00000  Uiso   1.00
H218   H     0.81791   0.30065   0.09287   0.00000  Uiso   1.00
H219   H     0.88999   0.09368   0.40844   0.00000  Uiso   1.00
H220   H     0.11241   0.05850   0.98522   0.00000  Uiso   1.00
H221   H     0.70421   0.39115   0.04229   0.00000  Uiso   1.00
O222   O     0.84479   0.98054   0.50600   0.00000  Uiso   1.00
O223   O     0.13658   0.93439   0.95075   0.00000  Uiso   1.00
O224   O     0.60103   0.37082   0.02562   0.00000  Uiso   1.00
N225   N     0.82708   0.96733   0.41513   0.00000  Uiso   1.00
N226   N     0.03503   0.93443   0.01946   0.00000  Uiso   1.00
N227   N     0.65340   0.24543   0.07280   0.00000  Uiso   1.00
N228   N     0.87165   0.05972   0.39847   0.00000  Uiso   1.00
N229   N     0.07960   0.02682   0.00280   0.00000  Uiso   1.00
N230   N     0.69797   0.33782   0.05613   0.00000  Uiso   1.00
C231   C     0.42241   0.11043   0.51917   0.00000  Uiso   1.00
C232   C     0.42076   0.19393   0.50600   0.00000  Uiso   1.00
C233   C     0.39656   0.25572   0.45664   0.00000  Uiso   1.00
C234   C     0.39942   0.32759   0.45274   0.00000  Uiso   1.00
C235   C     0.39284   0.45578   0.42563   0.00000  Uiso   1.00
C236   C     0.38729   0.08176   0.59056   0.00000  Uiso   1.00
C237   C     0.33497   0.04923   0.61229   0.00000  Uiso   1.00
C238   C     0.30968   0.02668   0.67957   0.00000  Uiso   1.00
C239   C     0.25117   0.98067   0.78374   0.00000  Uiso   1.00
C240   C     0.49217   0.06777   0.51637   0.00000  Uiso   1.00
C241   C     0.52802   0.02347   0.47572   0.00000  Uiso   1.00
C242   C     0.59101   0.98912   0.48055   0.00000  Uiso   1.00
C243   C     0.69534   0.92140   0.46953   0.00000  Uiso   1.00
C244   C     0.47054   0.12820   0.60003   0.00000  Uiso   1.00
C245   C     0.44689   0.20358   0.54993   0.00000  Uiso   1.00
C246   C     0.44980   0.27538   0.54610   0.00000  Uiso   1.00
C247   C     0.42561   0.33726   0.49674   0.00000  Uiso   1.00
C248   C     0.41343   0.09141   0.63448   0.00000  Uiso   1.00
C249   C     0.38821   0.06889   0.70175   0.00000  Uiso   1.00
C250   C     0.33586   0.03634   0.72357   0.00000  Uiso   1.00
C251   C     0.51831   0.07742   0.56029   0.00000  Uiso   1.00
C252   C     0.58126   0.04313   0.56519   0.00000  Uiso   1.00
C253   C     0.61720   0.99878   0.52456   0.00000  Uiso   1.00
H254   H     0.40206   0.10291   0.48498   0.00000  Uiso   1.00
H255   H     0.37633   0.24823   0.42266   0.00000  Uiso   1.00
H256   H     0.31476   0.04177   0.57829   0.00000  Uiso   1.00
H257   H     0.50777   0.01601   0.44174   0.00000  Uiso   1.00
H258   H     0.35930   0.41359   0.37295   0.00000  Uiso   1.00
H259   H     0.22949   0.97824   0.70110   0.00000  Uiso   1.00
H260   H     0.63650   0.92392   0.41317   0.00000  Uiso   1.00
H261   H     0.49089   0.13571   0.63423   0.00000  Uiso   1.00
H262   H     0.47003   0.28283   0.58010   0.00000  Uiso   1.00
H263   H     0.40845   0.07636   0.73572   0.00000  Uiso   1.00
H264   H     0.60147   0.05061   0.59918   0.00000  Uiso   1.00
H265   H     0.43535   0.44168   0.50073   0.00000  Uiso   1.00
H266   H     0.30553   0.00631   0.82888   0.00000  Uiso   1.00
H267   H     0.71255   0.95200   0.54095   0.00000  Uiso   1.00
O268   O     0.38198   0.52383   0.39855   0.00000  Uiso   1.00
O269   O     0.21168   0.95264   0.82907   0.00000  Uiso   1.00
O270   O     0.74567   0.88139   0.45131   0.00000  Uiso   1.00
N271   N     0.38008   0.40001   0.41045   0.00000  Uiso   1.00
N272   N     0.25870   0.99299   0.71724   0.00000  Uiso   1.00
N273   N     0.63922   0.94219   0.44807   0.00000  Uiso   1.00
N274   N     0.42100   0.41512   0.47920   0.00000  Uiso   1.00
N275   N     0.29962   0.00810   0.78600   0.00000  Uiso   1.00
N276   N     0.68014   0.95730   0.51683   0.00000  Uiso   1.00
C277   C     0.47825   0.31690   0.83024   0.00000  Uiso   1.00
C278   C     0.42061   0.33356   0.80191   0.00000  Uiso   1.00
C279   C     0.35769   0.36270   0.82932   0.00000  Uiso   1.00
C280   C     0.31187   0.37390   0.79586   0.00000  Uiso   1.00
C281   C     0.21985   0.40244   0.76080   0.00000  Uiso   1.00
C282   C     0.52445   0.36240   0.77628   0.00000  Uiso   1.00
C283   C     0.54885   0.41578   0.78215   0.00000  Uiso   1.00
C284   C     0.59045   0.45125   0.72711   0.00000  Uiso   1.00
C285   C     0.65969   0.52451   0.65227   0.00000  Uiso   1.00
C286   C     0.51060   0.23287   0.83839   0.00000  Uiso   1.00
C287   C     0.52337   0.17735   0.89648   0.00000  Uiso   1.00
C288   C     0.55333   0.10377   0.89373   0.00000  Uiso   1.00
C289   C     0.60106   0.97593   0.91533   0.00000  Uiso   1.00
C290   C     0.50876   0.28496   0.72206   0.00000  Uiso   1.00
C291   C     0.43718   0.31621   0.74315   0.00000  Uiso   1.00
C292   C     0.39145   0.32736   0.70964   0.00000  Uiso   1.00
C293   C     0.32847   0.35652   0.73700   0.00000  Uiso   1.00
C294   C     0.54102   0.34505   0.71752   0.00000  Uiso   1.00
C295   C     0.58260   0.38044   0.66246   0.00000  Uiso   1.00
C296   C     0.60706   0.43387   0.66825   0.00000  Uiso   1.00
C297   C     0.52717   0.21552   0.77963   0.00000  Uiso   1.00
C298   C     0.55712   0.14201   0.77679   0.00000  Uiso   1.00
C299   C     0.56993   0.08639   0.83487   0.00000  Uiso   1.00
H300   H     0.46535   0.33041   0.87598   0.00000  Uiso   1.00
H301   H     0.34489   0.37613   0.87480   0.00000  Uiso   1.00
H302   H     0.53602   0.42919   0.82763   0.00000  Uiso   1.00
H303   H     0.51054   0.19080   0.94194   0.00000  Uiso   1.00
H304   H     0.21864   0.41919   0.84755   0.00000  Uiso   1.00
H305   H     0.62167   0.53105   0.74811   0.00000  Uiso   1.00
H306   H     0.56795   0.02835   0.98916   0.00000  Uiso   1.00
H307   H     0.52166   0.27146   0.67631   0.00000  Uiso   1.00
H308   H     0.40428   0.31393   0.66417   0.00000  Uiso   1.00
H309   H     0.59542   0.36700   0.61700   0.00000  Uiso   1.00
H310   H     0.56994   0.12861   0.73131   0.00000  Uiso   1.00
H311   H     0.26685   0.36871   0.67660   0.00000  Uiso   1.00
H312   H     0.66989   0.48057   0.57716   0.00000  Uiso   1.00
H313   H     0.61616   0.97788   0.81821   0.00000  Uiso   1.00
O314   O     0.16452   0.42298   0.75768   0.00000  Uiso   1.00
O315   O     0.69329   0.56973   0.62722   0.00000  Uiso   1.00
O316   O     0.62280   0.91021   0.94347   0.00000  Uiso   1.00
N317   N     0.24610   0.40146   0.80899   0.00000  Uiso   1.00
N318   N     0.62290   0.50606   0.71602   0.00000  Uiso   1.00
N319   N     0.57268   0.03608   0.94137   0.00000  Uiso   1.00
N320   N     0.27204   0.37430   0.71701   0.00000  Uiso   1.00
N321   N     0.64884   0.47890   0.62403   0.00000  Uiso   1.00
N322   N     0.59862   0.00892   0.84939   0.00000  Uiso   1.00
C323   C     0.03797   0.20876   0.37203   0.00000  Uiso   1.00
C324   C     0.02371   0.13141   0.41646   0.00000  Uiso   1.00
C325   C     0.06637   0.06095   0.42077   0.00000  Uiso   1.00
C326   C     0.04413   0.99684   0.46437   0.00000  Uiso   1.00
C327   C     0.03154   0.87578   0.52761   0.00000  Uiso   1.00
C328   C     0.02307   0.25654   0.41722   0.00000  Uiso   1.00
C329   C     0.06519   0.29130   0.42216   0.00000  Uiso   1.00
C330   C     0.04241   0.33254   0.46640   0.00000  Uiso   1.00
C331   C     0.02882   0.40580   0.53078   0.00000  Uiso   1.00
C332   C     0.98806   0.24618   0.33023   0.00000  Uiso   1.00
C333   C     0.00074   0.27225   0.26204   0.00000  Uiso   1.00
C334   C     0.94848   0.30479   0.23305   0.00000  Uiso   1.00
C335   C     0.88052   0.36197   0.16238   0.00000  Uiso   1.00
C336   C     0.92261   0.22021   0.44179   0.00000  Uiso   1.00
C337   C     0.96105   0.13762   0.45435   0.00000  Uiso   1.00
C338   C     0.93874   0.07361   0.49796   0.00000  Uiso   1.00
C339   C     0.98136   0.00306   0.50233   0.00000  Uiso   1.00
C340   C     0.96042   0.26276   0.45511   0.00000  Uiso   1.00
C341   C     0.93757   0.30396   0.49935   0.00000  Uiso   1.00
C342   C     0.97964   0.33877   0.50436   0.00000  Uiso   1.00
C343   C     0.92540   0.25240   0.36813   0.00000  Uiso   1.00
C344   C     0.87311   0.28491   0.33923   0.00000  Uiso   1.00
C345   C     0.88571   0.31102   0.27101   0.00000  Uiso   1.00
H346   H     0.08675   0.20393   0.34253   0.00000  Uiso   1.00
H347   H     0.11486   0.05616   0.39144   0.00000  Uiso   1.00
H348   H     0.11368   0.28649   0.39283   0.00000  Uiso   1.00
H349   H     0.04923   0.26743   0.23273   0.00000  Uiso   1.00
H350   H     0.11840   0.89508   0.46239   0.00000  Uiso   1.00
H351   H     0.11590   0.38075   0.46530   0.00000  Uiso   1.00
H352   H     0.98001   0.34058   0.12771   0.00000  Uiso   1.00
H353   H     0.87383   0.22505   0.47130   0.00000  Uiso   1.00
H354   H     0.89025   0.07843   0.52727   0.00000  Uiso   1.00
H355   H     0.88908   0.30876   0.52866   0.00000  Uiso   1.00
H356   H     0.82463   0.28971   0.36857   0.00000  Uiso   1.00
H357   H     0.93610   0.91316   0.57264   0.00000  Uiso   1.00
H358   H     0.93361   0.39884   0.57555   0.00000  Uiso   1.00
H359   H     0.79771   0.35866   0.23796   0.00000  Uiso   1.00
O360   O     0.04191   0.80730   0.55203   0.00000  Uiso   1.00
O361   O     0.03863   0.44449   0.55583   0.00000  Uiso   1.00
O362   O     0.86034   0.39178   0.11293   0.00000  Uiso   1.00
N363   N     0.07324   0.91945   0.48065   0.00000  Uiso   1.00
N364   N     0.07091   0.37352   0.48337   0.00000  Uiso   1.00
N365   N     0.94386   0.33598   0.16776   0.00000  Uiso   1.00
N366   N     0.97515   0.92918   0.53997   0.00000  Uiso   1.00
N367   N     0.97282   0.38325   0.54270   0.00000  Uiso   1.00
N368   N     0.84577   0.34571   0.22708   0.00000  Uiso   1.00
C369   C     0.43404   0.82636   0.36600   0.00000  Uiso   1.00
C370   C     0.42573   0.83189   0.29982   0.00000  Uiso   1.00
C371   C     0.44164   0.88731   0.24044   0.00000  Uiso   1.00
C372   C     0.43036   0.88244   0.18543   0.00000  Uiso   1.00
C373   C     0.42149   0.89985   0.08202   0.00000  Uiso   1.00
C374   C     0.47512   0.74672   0.39147   0.00000  Uiso   1.00
C375   C     0.53255   0.73054   0.40914   0.00000  Uiso   1.00
C376   C     0.56284   0.65397   0.43128   0.00000  Uiso   1.00
C377   C     0.63062   0.53917   0.47019   0.00000  Uiso   1.00
C378   C     0.36816   0.82700   0.41212   0.00000  Uiso   1.00
C379   C     0.33566   0.87830   0.44719   0.00000  Uiso   1.00
C380   C     0.27592   0.86931   0.48673   0.00000  Uiso   1.00
C381   C     0.17763   0.87915   0.55772   0.00000  Uiso   1.00
C382   C     0.38573   0.71916   0.37391   0.00000  Uiso   1.00
C383   C     0.39949   0.77366   0.30412   0.00000  Uiso   1.00
C384   C     0.38819   0.76870   0.24918   0.00000  Uiso   1.00
C385   C     0.40408   0.82411   0.18973   0.00000  Uiso   1.00
C386   C     0.44888   0.68850   0.39576   0.00000  Uiso   1.00
C387   C     0.47910   0.61193   0.41789   0.00000  Uiso   1.00
C388   C     0.53656   0.59564   0.43558   0.00000  Uiso   1.00
C389   C     0.34192   0.76877   0.41642   0.00000  Uiso   1.00
C390   C     0.28222   0.75969   0.45593   0.00000  Uiso   1.00
C391   C     0.24963   0.81097   0.49104   0.00000  Uiso   1.00
H392   H     0.45447   0.87169   0.36266   0.00000  Uiso   1.00
H393   H     0.46195   0.93236   0.23714   0.00000  Uiso   1.00
H394   H     0.55284   0.77561   0.40582   0.00000  Uiso   1.00
H395   H     0.35598   0.92335   0.44385   0.00000  Uiso   1.00
H396   H     0.45869   0.97392   0.09986   0.00000  Uiso   1.00
H397   H     0.65032   0.64342   0.45555   0.00000  Uiso   1.00
H398   H     0.23522   0.95496   0.53576   0.00000  Uiso   1.00
H399   H     0.36530   0.67382   0.37725   0.00000  Uiso   1.00
H400   H     0.36789   0.72363   0.25252   0.00000  Uiso   1.00
H401   H     0.45878   0.56689   0.42120   0.00000  Uiso   1.00
H402   H     0.26193   0.71463   0.45924   0.00000  Uiso   1.00
H403   H     0.38235   0.80451   0.11235   0.00000  Uiso   1.00
H404   H     0.57399   0.47401   0.46805   0.00000  Uiso   1.00
H405   H     0.15888   0.78554   0.54825   0.00000  Uiso   1.00
O406   O     0.42385   0.92554   0.02379   0.00000  Uiso   1.00
O407   O     0.67526   0.49194   0.49046   0.00000  Uiso   1.00
O408   O     0.13066   0.90066   0.59568   0.00000  Uiso   1.00
N409   N     0.44036   0.92723   0.11992   0.00000  Uiso   1.00
N410   N     0.61953   0.61823   0.45246   0.00000  Uiso   1.00
N411   N     0.23145   0.90947   0.52746   0.00000  Uiso   1.00
N412   N     0.39928   0.83607   0.12664   0.00000  Uiso   1.00
N413   N     0.57845   0.52707   0.45918   0.00000  Uiso   1.00
N414   N     0.19037   0.81831   0.53418   0.00000  Uiso   1.00
C415   C     0.08278   0.29674   0.81719   0.00000  Uiso   1.00
C416   C     0.02502   0.26093   0.84545   0.00000  Uiso   1.00
C417   C     0.96232   0.29847   0.86480   0.00000  Uiso   1.00
C418   C     0.91634   0.25564   0.88943   0.00000  Uiso   1.00
C419   C     0.82418   0.21183   0.93258   0.00000  Uiso   1.00
C420   C     0.12961   0.24861   0.86153   0.00000  Uiso   1.00
C421   C     0.15486   0.27578   0.89440   0.00000  Uiso   1.00
C422   C     0.19693   0.22258   0.93256   0.00000  Uiso   1.00
C423   C     0.26720   0.15965   0.00062   0.00000  Uiso   1.00
C424   C     0.11418   0.28281   0.75099   0.00000  Uiso   1.00
C425   C     0.12645   0.33874   0.69090   0.00000  Uiso   1.00
C426   C     0.15555   0.31433   0.63599   0.00000  Uiso   1.00
C427   C     0.20184   0.30451   0.53243   0.00000  Uiso   1.00
C428   C     0.11264   0.15393   0.82652   0.00000  Uiso   1.00
C429   C     0.04124   0.18337   0.85052   0.00000  Uiso   1.00
C430   C     0.99534   0.14047   0.87512   0.00000  Uiso   1.00
C431   C     0.93258   0.17794   0.89451   0.00000  Uiso   1.00
C432   C     0.14583   0.17104   0.86660   0.00000  Uiso   1.00
C433   C     0.18788   0.11779   0.90472   0.00000  Uiso   1.00
C434   C     0.21318   0.14487   0.93763   0.00000  Uiso   1.00
C435   C     0.13039   0.20524   0.75605   0.00000  Uiso   1.00
C436   C     0.15948   0.18074   0.70123   0.00000  Uiso   1.00
C437   C     0.17179   0.23663   0.64107   0.00000  Uiso   1.00
H438   H     0.07016   0.35713   0.81325   0.00000  Uiso   1.00
H439   H     0.94979   0.35850   0.86088   0.00000  Uiso   1.00
H440   H     0.14230   0.33581   0.89046   0.00000  Uiso   1.00
H441   H     0.11390   0.39876   0.68700   0.00000  Uiso   1.00
H442   H     0.82348   0.32580   0.91595   0.00000  Uiso   1.00
H443   H     0.22943   0.27798   0.97830   0.00000  Uiso   1.00
H444   H     0.16954   0.41072   0.54927   0.00000  Uiso   1.00
H445   H     0.12526   0.09354   0.83046   0.00000  Uiso   1.00
H446   H     0.00791   0.08045   0.87904   0.00000  Uiso   1.00
H447   H     0.20042   0.05777   0.90862   0.00000  Uiso   1.00
H448   H     0.17202   0.12071   0.70517   0.00000  Uiso   1.00
H449   H     0.87065   0.10012   0.93069   0.00000  Uiso   1.00
H450   H     0.27660   0.05230   0.99304   0.00000  Uiso   1.00
H451   H     0.21671   0.18504   0.56401   0.00000  Uiso   1.00
O452   O     0.76888   0.20909   0.95498   0.00000  Uiso   1.00
O453   O     0.30147   0.14636   0.03678   0.00000  Uiso   1.00
O454   O     0.22289   0.32051   0.47390   0.00000  Uiso   1.00
N455   N     0.85069   0.27449   0.91274   0.00000  Uiso   1.00
N456   N     0.23021   0.22978   0.97104   0.00000  Uiso   1.00
N457   N     0.17424   0.35387   0.56994   0.00000  Uiso   1.00
N458   N     0.87607   0.15305   0.92067   0.00000  Uiso   1.00
N459   N     0.25560   0.10834   0.97898   0.00000  Uiso   1.00
N460   N     0.19962   0.23244   0.57787   0.00000  Uiso   1.00
C461   C     0.49973   0.66494   0.85380   0.00000  Uiso   1.00
C462   C     0.50693   0.68613   0.77991   0.00000  Uiso   1.00
C463   C     0.56181   0.69999   0.73210   0.00000  Uiso   1.00
C464   C     0.55872   0.71859   0.66721   0.00000  Uiso   1.00
C465   C     0.57841   0.75084   0.55497   0.00000  Uiso   1.00
C466   C     0.44331   0.72473   0.87624   0.00000  Uiso   1.00
C467   C     0.44470   0.77104   0.90943   0.00000  Uiso   1.00
C468   C     0.38805   0.82212   0.92563   0.00000  Uiso   1.00
C469   C     0.30897   0.91426   0.96299   0.00000  Uiso   1.00
C470   C     0.47830   0.58971   0.88454   0.00000  Uiso   1.00
C471   C     0.50909   0.52249   0.92473   0.00000  Uiso   1.00
C472   C     0.48189   0.45989   0.94794   0.00000  Uiso   1.00
C473   C     0.45713   0.34239   0.99818   0.00000  Uiso   1.00
C474   C     0.39665   0.67332   0.82357   0.00000  Uiso   1.00
C475   C     0.45094   0.69068   0.76349   0.00000  Uiso   1.00
C476   C     0.44777   0.70926   0.69865   0.00000  Uiso   1.00
C477   C     0.50263   0.72314   0.65076   0.00000  Uiso   1.00
C478   C     0.38733   0.72928   0.85982   0.00000  Uiso   1.00
C479   C     0.33066   0.78031   0.87598   0.00000  Uiso   1.00
C480   C     0.33197   0.82668   0.90918   0.00000  Uiso   1.00
C481   C     0.42232   0.59426   0.86812   0.00000  Uiso   1.00
C482   C     0.39506   0.53176   0.89128   0.00000  Uiso   1.00
C483   C     0.42580   0.46445   0.93149   0.00000  Uiso   1.00
H484   H     0.54331   0.66140   0.86659   0.00000  Uiso   1.00
H485   H     0.60512   0.69647   0.74483   0.00000  Uiso   1.00
H486   H     0.48803   0.76750   0.92214   0.00000  Uiso   1.00
H487   H     0.55242   0.51899   0.93743   0.00000  Uiso   1.00
H488   H     0.64896   0.73738   0.60260   0.00000  Uiso   1.00
H489   H     0.40206   0.88713   0.97647   0.00000  Uiso   1.00
H490   H     0.53782   0.36310   0.00872   0.00000  Uiso   1.00
H491   H     0.35307   0.67686   0.81079   0.00000  Uiso   1.00
H492   H     0.40444   0.71278   0.68596   0.00000  Uiso   1.00
H493   H     0.28735   0.78381   0.86327   0.00000  Uiso   1.00
H494   H     0.35173   0.53530   0.87856   0.00000  Uiso   1.00
H495   H     0.48607   0.75063   0.55481   0.00000  Uiso   1.00
H496   H     0.23918   0.90037   0.92869   0.00000  Uiso   1.00
H497   H     0.37494   0.37634   0.96094   0.00000  Uiso   1.00
O498   O     0.60474   0.76738   0.49760   0.00000  Uiso   1.00
O499   O     0.28082   0.96383   0.98812   0.00000  Uiso   1.00
O500   O     0.45894   0.27631   0.03043   0.00000  Uiso   1.00
N501   N     0.60358   0.73556   0.60848   0.00000  Uiso   1.00
N502   N     0.37274   0.87557   0.95803   0.00000  Uiso   1.00
N503   N     0.49966   0.38565   0.98819   0.00000  Uiso   1.00
N504   N     0.51593   0.74268   0.58277   0.00000  Uiso   1.00
N505   N     0.28510   0.88269   0.93231   0.00000  Uiso   1.00
N506   N     0.41202   0.39278   0.96248   0.00000  Uiso   1.00
C507   C     0.94032   0.75572   0.35304   0.00000  Uiso   1.00
C508   C     0.98531   0.69236   0.32532   0.00000  Uiso   1.00
C509   C     0.01125   0.61914   0.36200   0.00000  Uiso   1.00
C510   C     0.05135   0.56954   0.32742   0.00000  Uiso   1.00
C511   C     0.11915   0.46770   0.29484   0.00000  Uiso   1.00
C512   C     0.97216   0.82332   0.32125   0.00000  Uiso   1.00
C513   C     0.98704   0.86023   0.35452   0.00000  Uiso   1.00
C514   C     0.01607   0.92088   0.31651   0.00000  Uiso   1.00
C515   C     0.06341   0.02239   0.27762   0.00000  Uiso   1.00
C516   C     0.88071   0.78033   0.32575   0.00000  Uiso   1.00
C517   C     0.81869   0.78111   0.36280   0.00000  Uiso   1.00
C518   C     0.77072   0.80559   0.32858   0.00000  Uiso   1.00
C519   C     0.67608   0.84036   0.29668   0.00000  Uiso   1.00
C520   C     0.96542   0.79783   0.22639   0.00000  Uiso   1.00
C521   C     0.99893   0.71523   0.25653   0.00000  Uiso   1.00
C522   C     0.03901   0.66573   0.22188   0.00000  Uiso   1.00
C523   C     0.06500   0.59245   0.25850   0.00000  Uiso   1.00
C524   C     0.98579   0.84619   0.25246   0.00000  Uiso   1.00
C525   C     0.01480   0.90681   0.21440   0.00000  Uiso   1.00
C526   C     0.02972   0.94379   0.24759   0.00000  Uiso   1.00
C527   C     0.89434   0.80321   0.25696   0.00000  Uiso   1.00
C528   C     0.84645   0.82770   0.22268   0.00000  Uiso   1.00
C529   C     0.78438   0.82851   0.25966   0.00000  Uiso   1.00
H530   H     0.92972   0.73792   0.40659   0.00000  Uiso   1.00
H531   H     0.00069   0.60147   0.41524   0.00000  Uiso   1.00
H532   H     0.97648   0.84252   0.40775   0.00000  Uiso   1.00
H533   H     0.80816   0.76341   0.41603   0.00000  Uiso   1.00
H534   H     0.08542   0.46028   0.39448   0.00000  Uiso   1.00
H535   H     0.03434   0.96857   0.37870   0.00000  Uiso   1.00
H536   H     0.67941   0.80176   0.39616   0.00000  Uiso   1.00
H537   H     0.97603   0.81564   0.17283   0.00000  Uiso   1.00
H538   H     0.04955   0.68345   0.16865   0.00000  Uiso   1.00
H539   H     0.02534   0.92450   0.16116   0.00000  Uiso   1.00
H540   H     0.85702   0.84539   0.16944   0.00000  Uiso   1.00
H541   H     0.12507   0.52682   0.19434   0.00000  Uiso   1.00
H542   H     0.07399   0.03511   0.17856   0.00000  Uiso   1.00
H543   H     0.71906   0.86830   0.19602   0.00000  Uiso   1.00
O544   O     0.15279   0.40520   0.29587   0.00000  Uiso   1.00
O545   O     0.08577   0.07206   0.27517   0.00000  Uiso   1.00
O546   O     0.62011   0.85321   0.29808   0.00000  Uiso   1.00
N547   N     0.08465   0.49408   0.34795   0.00000  Uiso   1.00
N548   N     0.03691   0.96929   0.33320   0.00000  Uiso   1.00
N549   N     0.70507   0.81336   0.34952   0.00000  Uiso   1.00
N550   N     0.10598   0.52988   0.24026   0.00000  Uiso   1.00
N551   N     0.05824   0.00509   0.22550   0.00000  Uiso   1.00
N552   N     0.72641   0.84916   0.24183   0.00000  Uiso   1.00
