data_job_00115
_audit_creation_date              2018-12-19
_audit_creation_method            'Materials Studio'
_symmetry_space_group_name_H-M    'P1'
_symmetry_Int_Tables_number       1
_symmetry_cell_setting            triclinic
loop_
_symmetry_equiv_pos_as_xyz
  x,y,z
_cell_length_a                    33.2493
_cell_length_b                    10.8277
_cell_length_c                    31.2878
_cell_angle_alpha                 90.0000
_cell_angle_beta                  157.7335
_cell_angle_gamma                 90.0000
loop_
_atom_site_label
_atom_site_type_symbol
_atom_site_fract_x
_atom_site_fract_y
_atom_site_fract_z
_atom_site_U_iso_or_equiv
_atom_site_adp_type
_atom_site_occupancy
C1     C     0.58647   0.19897   0.43783   0.00000  Uiso   1.00
C2     C     0.68842   0.27433   0.53496   0.00000  Uiso   1.00
C3     C     0.75071   0.28753   0.55992   0.00000  Uiso   1.00
C4     C     0.84095   0.36036   0.65234   0.00000  Uiso   1.00
C5     C     0.99520   0.46858   0.79331   0.00000  Uiso   1.00
C6     C     0.60383   0.10707   0.49116   0.00000  Uiso   1.00
C7     C     0.59497   0.97964   0.47928   0.00000  Uiso   1.00
C8     C     0.61398   0.91167   0.53482   0.00000  Uiso   1.00
C9     C     0.63682   0.76021   0.60772   0.00000  Uiso   1.00
C10    C     0.50108   0.28806   0.36942   0.00000  Uiso   1.00
C11    C     0.40581   0.31278   0.25517   0.00000  Uiso   1.00
C12    C     0.33830   0.39717   0.20821   0.00000  Uiso   1.00
C13    C     0.20161   0.52673   0.09210   0.00000  Uiso   1.00
C14    C     0.63597   0.30485   0.55758   0.00000  Uiso   1.00
C15    C     0.71531   0.33184   0.60000   0.00000  Uiso   1.00
C16    C     0.80547   0.40467   0.69241   0.00000  Uiso   1.00
C17    C     0.86788   0.41798   0.71750   0.00000  Uiso   1.00
C18    C     0.63071   0.16457   0.55620   0.00000  Uiso   1.00
C19    C     0.64973   0.09678   0.61177   0.00000  Uiso   1.00
C20    C     0.64092   0.96928   0.59998   0.00000  Uiso   1.00
C21    C     0.52796   0.34557   0.43447   0.00000  Uiso   1.00
C22    C     0.46058   0.42993   0.38767   0.00000  Uiso   1.00
C23    C     0.36524   0.45478   0.27337   0.00000  Uiso   1.00
H24    H     0.56553   0.15420   0.38719   0.00000  Uiso   1.00
H25    H     0.72988   0.24300   0.50957   0.00000  Uiso   1.00
H26    H     0.57415   0.93516   0.42893   0.00000  Uiso   1.00
H27    H     0.38503   0.26826   0.20487   0.00000  Uiso   1.00
H28    H     0.92397   0.36679   0.67396   0.00000  Uiso   1.00
H29    H     0.59557   0.71769   0.50390   0.00000  Uiso   1.00
H30    H     0.19677   0.42009   0.03141   0.00000  Uiso   1.00
H31    H     0.65690   0.34962   0.60822   0.00000  Uiso   1.00
H32    H     0.82626   0.44916   0.74273   0.00000  Uiso   1.00
H33    H     0.67053   0.14131   0.66209   0.00000  Uiso   1.00
H34    H     0.48141   0.47441   0.43803   0.00000  Uiso   1.00
H35    H     0.00220   0.53411   0.86320   0.00000  Uiso   1.00
H36    H     0.67379   0.88500   0.69314   0.00000  Uiso   1.00
H37    H     0.27500   0.58741   0.22066   0.00000  Uiso   1.00
O38    O     0.07286   0.51237   0.85310   0.00000  Uiso   1.00
O39    O     0.64200   0.66078   0.62997   0.00000  Uiso   1.00
O40    O     0.11879   0.58232   0.01009   0.00000  Uiso   1.00
N41    N     0.91912   0.39253   0.70002   0.00000  Uiso   1.00
N42    N     0.61211   0.78566   0.54104   0.00000  Uiso   1.00
N43    N     0.23925   0.44232   0.09930   0.00000  Uiso   1.00
N44    N     0.96122   0.48256   0.80185   0.00000  Uiso   1.00
N45    N     0.65420   0.87569   0.64287   0.00000  Uiso   1.00
N46    N     0.28134   0.53235   0.20113   0.00000  Uiso   1.00
C47    C     0.05437   0.41855   0.39397   0.00000  Uiso   1.00
C48    C     0.16104   0.47794   0.48849   0.00000  Uiso   1.00
C49    C     0.22862   0.44309   0.52207   0.00000  Uiso   1.00
C50    C     0.32258   0.50897   0.61027   0.00000  Uiso   1.00
C51    C     0.48439   0.58637   0.74907   0.00000  Uiso   1.00
C52    C     0.06118   0.37773   0.44724   0.00000  Uiso   1.00
C53    C     0.04479   0.25862   0.44612   0.00000  Uiso   1.00
C54    C     0.05467   0.24016   0.49957   0.00000  Uiso   1.00
C55    C     0.06137   0.16199   0.57425   0.00000  Uiso   1.00
C56    C     0.97288   0.52261   0.31260   0.00000  Uiso   1.00
C57    C     0.88222   0.52532   0.19826   0.00000  Uiso   1.00
C58    C     0.81774   0.62882   0.13835   0.00000  Uiso   1.00
C59    C     0.68733   0.77561   0.00399   0.00000  Uiso   1.00
C60    C     0.10105   0.59753   0.49088   0.00000  Uiso   1.00
C61    C     0.18640   0.57516   0.54113   0.00000  Uiso   1.00
C62    C     0.28028   0.64112   0.62930   0.00000  Uiso   1.00
C63    C     0.34799   0.60637   0.66300   0.00000  Uiso   1.00
C64    C     0.08654   0.47494   0.49988   0.00000  Uiso   1.00
C65    C     0.09644   0.45665   0.55334   0.00000  Uiso   1.00
C66    C     0.08008   0.33755   0.55231   0.00000  Uiso   1.00
C67    C     0.99824   0.61984   0.36524   0.00000  Uiso   1.00
C68    C     0.93388   0.72335   0.30549   0.00000  Uiso   1.00
C69    C     0.84315   0.72622   0.19109   0.00000  Uiso   1.00
H70    H     0.03462   0.34285   0.35299   0.00000  Uiso   1.00
H71    H     0.20897   0.36784   0.48132   0.00000  Uiso   1.00
H72    H     0.02515   0.18341   0.40537   0.00000  Uiso   1.00
H73    H     0.86262   0.45007   0.15756   0.00000  Uiso   1.00
H74    H     0.41347   0.43839   0.64684   0.00000  Uiso   1.00
H75    H     0.02585   0.04951   0.48666   0.00000  Uiso   1.00
H76    H     0.68311   0.61181   0.96409   0.00000  Uiso   1.00
H77    H     0.12080   0.67322   0.53186   0.00000  Uiso   1.00
H78    H     0.29988   0.71635   0.67001   0.00000  Uiso   1.00
H79    H     0.11606   0.53191   0.59406   0.00000  Uiso   1.00
H80    H     0.95353   0.79857   0.34625   0.00000  Uiso   1.00
H81    H     0.48726   0.72125   0.80000   0.00000  Uiso   1.00
H82    H     0.09963   0.33237   0.63980   0.00000  Uiso   1.00
H83    H     0.75689   0.89467   0.11725   0.00000  Uiso   1.00
O84    O     0.56664   0.60220   0.81110   0.00000  Uiso   1.00
O85    O     0.05806   0.09201   0.60091   0.00000  Uiso   1.00
O86    O     0.60840   0.82973   0.91533   0.00000  Uiso   1.00
N87    N     0.40625   0.49906   0.66391   0.00000  Uiso   1.00
N88    N     0.04386   0.13548   0.51416   0.00000  Uiso   1.00
N89    N     0.72341   0.66116   0.02561   0.00000  Uiso   1.00
N90    N     0.44596   0.65126   0.74632   0.00000  Uiso   1.00
N91    N     0.08357   0.28768   0.59657   0.00000  Uiso   1.00
N92    N     0.76312   0.81337   0.10802   0.00000  Uiso   1.00
C93    C     0.41353   0.69897   0.06217   0.00000  Uiso   1.00
C94    C     0.31158   0.77433   0.96504   0.00000  Uiso   1.00
C95    C     0.24929   0.78753   0.94008   0.00000  Uiso   1.00
C96    C     0.15905   0.86036   0.84766   0.00000  Uiso   1.00
C97    C     0.00480   0.96858   0.70669   0.00000  Uiso   1.00
C98    C     0.39617   0.60707   0.00884   0.00000  Uiso   1.00
C99    C     0.40503   0.47964   0.02072   0.00000  Uiso   1.00
C100   C     0.38602   0.41167   0.96518   0.00000  Uiso   1.00
C101   C     0.36318   0.26021   0.89228   0.00000  Uiso   1.00
C102   C     0.49892   0.78806   0.13058   0.00000  Uiso   1.00
C103   C     0.59419   0.81278   0.24483   0.00000  Uiso   1.00
C104   C     0.66170   0.89717   0.29179   0.00000  Uiso   1.00
C105   C     0.79839   0.02673   0.40790   0.00000  Uiso   1.00
C106   C     0.36403   0.80485   0.94242   0.00000  Uiso   1.00
C107   C     0.28469   0.83184   0.90000   0.00000  Uiso   1.00
C108   C     0.19453   0.90467   0.80759   0.00000  Uiso   1.00
C109   C     0.13212   0.91798   0.78250   0.00000  Uiso   1.00
C110   C     0.36929   0.66457   0.94380   0.00000  Uiso   1.00
C111   C     0.35027   0.59678   0.88823   0.00000  Uiso   1.00
C112   C     0.35908   0.46928   0.90002   0.00000  Uiso   1.00
C113   C     0.47204   0.84557   0.06553   0.00000  Uiso   1.00
C114   C     0.53942   0.92993   0.11233   0.00000  Uiso   1.00
C115   C     0.63476   0.95478   0.22663   0.00000  Uiso   1.00
H116   H     0.43447   0.65420   0.11281   0.00000  Uiso   1.00
H117   H     0.27012   0.74300   0.99043   0.00000  Uiso   1.00
H118   H     0.42585   0.43516   0.07107   0.00000  Uiso   1.00
H119   H     0.61497   0.76826   0.29513   0.00000  Uiso   1.00
H120   H     0.07603   0.86679   0.82604   0.00000  Uiso   1.00
H121   H     0.40443   0.21769   0.99610   0.00000  Uiso   1.00
H122   H     0.80323   0.92009   0.46859   0.00000  Uiso   1.00
H123   H     0.34310   0.84962   0.89178   0.00000  Uiso   1.00
H124   H     0.17374   0.94916   0.75727   0.00000  Uiso   1.00
H125   H     0.32947   0.64131   0.83791   0.00000  Uiso   1.00
H126   H     0.51859   0.97441   0.06197   0.00000  Uiso   1.00
H127   H     0.99780   0.03411   0.63680   0.00000  Uiso   1.00
H128   H     0.32621   0.38500   0.80686   0.00000  Uiso   1.00
H129   H     0.72500   0.08741   0.27934   0.00000  Uiso   1.00
O130   O     0.92714   0.01237   0.64690   0.00000  Uiso   1.00
O131   O     0.35800   0.16078   0.87003   0.00000  Uiso   1.00
O132   O     0.88121   0.08232   0.48991   0.00000  Uiso   1.00
N133   N     0.08088   0.89253   0.79998   0.00000  Uiso   1.00
N134   N     0.38789   0.28566   0.95896   0.00000  Uiso   1.00
N135   N     0.76075   0.94232   0.40070   0.00000  Uiso   1.00
N136   N     0.03878   0.98256   0.69815   0.00000  Uiso   1.00
N137   N     0.34580   0.37569   0.85713   0.00000  Uiso   1.00
N138   N     0.71866   0.03235   0.29887   0.00000  Uiso   1.00
C139   C     0.94563   0.91855   0.10603   0.00000  Uiso   1.00
C140   C     0.83896   0.97794   0.01151   0.00000  Uiso   1.00
C141   C     0.77138   0.94309   0.97793   0.00000  Uiso   1.00
C142   C     0.67742   0.00897   0.88973   0.00000  Uiso   1.00
C143   C     0.51561   0.08637   0.75093   0.00000  Uiso   1.00
C144   C     0.93882   0.87773   0.05276   0.00000  Uiso   1.00
C145   C     0.95521   0.75862   0.05388   0.00000  Uiso   1.00
C146   C     0.94533   0.74016   0.00043   0.00000  Uiso   1.00
C147   C     0.93863   0.66199   0.92575   0.00000  Uiso   1.00
C148   C     0.02712   0.02261   0.18740   0.00000  Uiso   1.00
C149   C     0.11778   0.02532   0.30174   0.00000  Uiso   1.00
C150   C     0.18226   0.12882   0.36165   0.00000  Uiso   1.00
C151   C     0.31267   0.27561   0.49601   0.00000  Uiso   1.00
C152   C     0.89895   0.09753   0.00912   0.00000  Uiso   1.00
C153   C     0.81360   0.07516   0.95887   0.00000  Uiso   1.00
C154   C     0.71972   0.14112   0.87070   0.00000  Uiso   1.00
C155   C     0.65201   0.10637   0.83700   0.00000  Uiso   1.00
C156   C     0.91346   0.97494   0.00012   0.00000  Uiso   1.00
C157   C     0.90356   0.95665   0.94666   0.00000  Uiso   1.00
C158   C     0.91992   0.83755   0.94769   0.00000  Uiso   1.00
C159   C     0.00176   0.11984   0.13476   0.00000  Uiso   1.00
C160   C     0.06612   0.22335   0.19451   0.00000  Uiso   1.00
C161   C     0.15685   0.22622   0.30891   0.00000  Uiso   1.00
H162   H     0.96538   0.84285   0.14701   0.00000  Uiso   1.00
H163   H     0.79103   0.86784   0.01868   0.00000  Uiso   1.00
H164   H     0.97485   0.68341   0.09463   0.00000  Uiso   1.00
H165   H     0.13738   0.95007   0.34244   0.00000  Uiso   1.00
H166   H     0.58653   0.93839   0.85316   0.00000  Uiso   1.00
H167   H     0.97415   0.54951   0.01334   0.00000  Uiso   1.00
H168   H     0.31689   0.11181   0.53591   0.00000  Uiso   1.00
H169   H     0.87920   0.17322   0.96814   0.00000  Uiso   1.00
H170   H     0.70012   0.21635   0.82999   0.00000  Uiso   1.00
H171   H     0.88394   0.03191   0.90594   0.00000  Uiso   1.00
H172   H     0.04647   0.29857   0.15375   0.00000  Uiso   1.00
H173   H     0.51274   0.22125   0.70000   0.00000  Uiso   1.00
H174   H     0.90037   0.83237   0.86020   0.00000  Uiso   1.00
H175   H     0.24311   0.39467   0.38275   0.00000  Uiso   1.00
O176   O     0.43336   0.10220   0.68890   0.00000  Uiso   1.00
O177   O     0.94194   0.59201   0.89909   0.00000  Uiso   1.00
O178   O     0.39160   0.32973   0.58467   0.00000  Uiso   1.00
N179   N     0.59375   0.99906   0.83609   0.00000  Uiso   1.00
N180   N     0.95614   0.63548   0.98584   0.00000  Uiso   1.00
N181   N     0.27659   0.16116   0.47439   0.00000  Uiso   1.00
N182   N     0.55404   0.15126   0.75368   0.00000  Uiso   1.00
N183   N     0.91643   0.78768   0.90343   0.00000  Uiso   1.00
N184   N     0.23688   0.31337   0.39198   0.00000  Uiso   1.00
C185   C     0.41353   0.80103   0.56217   0.00000  Uiso   1.00
C186   C     0.31158   0.72567   0.46504   0.00000  Uiso   1.00
C187   C     0.24929   0.71247   0.44008   0.00000  Uiso   1.00
C188   C     0.15905   0.63964   0.34766   0.00000  Uiso   1.00
C189   C     0.00480   0.53142   0.20669   0.00000  Uiso   1.00
C190   C     0.39617   0.89293   0.50884   0.00000  Uiso   1.00
C191   C     0.40503   0.02036   0.52072   0.00000  Uiso   1.00
C192   C     0.38602   0.08833   0.46518   0.00000  Uiso   1.00
C193   C     0.36318   0.23979   0.39228   0.00000  Uiso   1.00
C194   C     0.49892   0.71194   0.63058   0.00000  Uiso   1.00
C195   C     0.59419   0.68722   0.74483   0.00000  Uiso   1.00
C196   C     0.66170   0.60283   0.79179   0.00000  Uiso   1.00
C197   C     0.79839   0.47327   0.90790   0.00000  Uiso   1.00
C198   C     0.36403   0.69515   0.44242   0.00000  Uiso   1.00
C199   C     0.28469   0.66816   0.40000   0.00000  Uiso   1.00
C200   C     0.19453   0.59533   0.30759   0.00000  Uiso   1.00
C201   C     0.13212   0.58202   0.28250   0.00000  Uiso   1.00
C202   C     0.36929   0.83543   0.44380   0.00000  Uiso   1.00
C203   C     0.35027   0.90322   0.38823   0.00000  Uiso   1.00
C204   C     0.35908   0.03072   0.40002   0.00000  Uiso   1.00
C205   C     0.47204   0.65443   0.56553   0.00000  Uiso   1.00
C206   C     0.53942   0.57007   0.61233   0.00000  Uiso   1.00
C207   C     0.63476   0.54522   0.72663   0.00000  Uiso   1.00
H208   H     0.43447   0.84580   0.61281   0.00000  Uiso   1.00
H209   H     0.27012   0.75700   0.49043   0.00000  Uiso   1.00
H210   H     0.42585   0.06484   0.57107   0.00000  Uiso   1.00
H211   H     0.61497   0.73174   0.79513   0.00000  Uiso   1.00
H212   H     0.07603   0.63321   0.32604   0.00000  Uiso   1.00
H213   H     0.40443   0.28231   0.49610   0.00000  Uiso   1.00
H214   H     0.80323   0.57991   0.96859   0.00000  Uiso   1.00
H215   H     0.34310   0.65038   0.39178   0.00000  Uiso   1.00
H216   H     0.17374   0.55084   0.25727   0.00000  Uiso   1.00
H217   H     0.32947   0.85869   0.33791   0.00000  Uiso   1.00
H218   H     0.51859   0.52559   0.56197   0.00000  Uiso   1.00
H219   H     0.99780   0.46589   0.13680   0.00000  Uiso   1.00
H220   H     0.32621   0.11500   0.30686   0.00000  Uiso   1.00
H221   H     0.72500   0.41259   0.77934   0.00000  Uiso   1.00
O222   O     0.92714   0.48763   0.14690   0.00000  Uiso   1.00
O223   O     0.35800   0.33922   0.37003   0.00000  Uiso   1.00
O224   O     0.88121   0.41768   0.98991   0.00000  Uiso   1.00
N225   N     0.08088   0.60747   0.29998   0.00000  Uiso   1.00
N226   N     0.38789   0.21434   0.45896   0.00000  Uiso   1.00
N227   N     0.76075   0.55768   0.90070   0.00000  Uiso   1.00
N228   N     0.03878   0.51744   0.19815   0.00000  Uiso   1.00
N229   N     0.34580   0.12431   0.35713   0.00000  Uiso   1.00
N230   N     0.71866   0.46765   0.79887   0.00000  Uiso   1.00
C231   C     0.94563   0.58145   0.60603   0.00000  Uiso   1.00
C232   C     0.83896   0.52206   0.51151   0.00000  Uiso   1.00
C233   C     0.77138   0.55691   0.47793   0.00000  Uiso   1.00
C234   C     0.67742   0.49103   0.38973   0.00000  Uiso   1.00
C235   C     0.51561   0.41363   0.25093   0.00000  Uiso   1.00
C236   C     0.93882   0.62227   0.55276   0.00000  Uiso   1.00
C237   C     0.95521   0.74138   0.55388   0.00000  Uiso   1.00
C238   C     0.94533   0.75984   0.50043   0.00000  Uiso   1.00
C239   C     0.93863   0.83801   0.42575   0.00000  Uiso   1.00
C240   C     0.02712   0.47739   0.68740   0.00000  Uiso   1.00
C241   C     0.11778   0.47468   0.80174   0.00000  Uiso   1.00
C242   C     0.18226   0.37118   0.86165   0.00000  Uiso   1.00
C243   C     0.31267   0.22439   0.99601   0.00000  Uiso   1.00
C244   C     0.89895   0.40247   0.50912   0.00000  Uiso   1.00
C245   C     0.81360   0.42484   0.45887   0.00000  Uiso   1.00
C246   C     0.71972   0.35888   0.37070   0.00000  Uiso   1.00
C247   C     0.65201   0.39363   0.33700   0.00000  Uiso   1.00
C248   C     0.91346   0.52506   0.50012   0.00000  Uiso   1.00
C249   C     0.90356   0.54335   0.44666   0.00000  Uiso   1.00
C250   C     0.91992   0.66245   0.44769   0.00000  Uiso   1.00
C251   C     0.00176   0.38016   0.63476   0.00000  Uiso   1.00
C252   C     0.06612   0.27665   0.69451   0.00000  Uiso   1.00
C253   C     0.15685   0.27378   0.80891   0.00000  Uiso   1.00
H254   H     0.96538   0.65715   0.64701   0.00000  Uiso   1.00
H255   H     0.79103   0.63216   0.51868   0.00000  Uiso   1.00
H256   H     0.97485   0.81659   0.59463   0.00000  Uiso   1.00
H257   H     0.13738   0.54993   0.84244   0.00000  Uiso   1.00
H258   H     0.58653   0.56161   0.35316   0.00000  Uiso   1.00
H259   H     0.97415   0.95049   0.51334   0.00000  Uiso   1.00
H260   H     0.31689   0.38819   0.03591   0.00000  Uiso   1.00
H261   H     0.87920   0.32678   0.46814   0.00000  Uiso   1.00
H262   H     0.70012   0.28365   0.32999   0.00000  Uiso   1.00
H263   H     0.88394   0.46809   0.40594   0.00000  Uiso   1.00
H264   H     0.04647   0.20143   0.65375   0.00000  Uiso   1.00
H265   H     0.51274   0.27875   0.20000   0.00000  Uiso   1.00
H266   H     0.90037   0.66763   0.36020   0.00000  Uiso   1.00
H267   H     0.24311   0.10533   0.88275   0.00000  Uiso   1.00
O268   O     0.43336   0.39780   0.18890   0.00000  Uiso   1.00
O269   O     0.94194   0.90799   0.39909   0.00000  Uiso   1.00
O270   O     0.39160   0.17027   0.08467   0.00000  Uiso   1.00
N271   N     0.59375   0.50094   0.33609   0.00000  Uiso   1.00
N272   N     0.95614   0.86452   0.48584   0.00000  Uiso   1.00
N273   N     0.27659   0.33884   0.97439   0.00000  Uiso   1.00
N274   N     0.55404   0.34874   0.25368   0.00000  Uiso   1.00
N275   N     0.91643   0.71232   0.40343   0.00000  Uiso   1.00
N276   N     0.23688   0.18663   0.89198   0.00000  Uiso   1.00
C277   C     0.58647   0.30103   0.93783   0.00000  Uiso   1.00
C278   C     0.68842   0.22567   0.03496   0.00000  Uiso   1.00
C279   C     0.75071   0.21247   0.05992   0.00000  Uiso   1.00
C280   C     0.84095   0.13964   0.15234   0.00000  Uiso   1.00
C281   C     0.99520   0.03142   0.29331   0.00000  Uiso   1.00
C282   C     0.60383   0.39293   0.99116   0.00000  Uiso   1.00
C283   C     0.59497   0.52036   0.97928   0.00000  Uiso   1.00
C284   C     0.61398   0.58833   0.03482   0.00000  Uiso   1.00
C285   C     0.63682   0.73979   0.10772   0.00000  Uiso   1.00
C286   C     0.50108   0.21194   0.86942   0.00000  Uiso   1.00
C287   C     0.40581   0.18722   0.75517   0.00000  Uiso   1.00
C288   C     0.33830   0.10283   0.70821   0.00000  Uiso   1.00
C289   C     0.20161   0.97327   0.59210   0.00000  Uiso   1.00
C290   C     0.63597   0.19515   0.05758   0.00000  Uiso   1.00
C291   C     0.71531   0.16816   0.10000   0.00000  Uiso   1.00
C292   C     0.80547   0.09533   0.19241   0.00000  Uiso   1.00
C293   C     0.86788   0.08202   0.21750   0.00000  Uiso   1.00
C294   C     0.63071   0.33543   0.05620   0.00000  Uiso   1.00
C295   C     0.64973   0.40322   0.11177   0.00000  Uiso   1.00
C296   C     0.64092   0.53072   0.09998   0.00000  Uiso   1.00
C297   C     0.52796   0.15443   0.93447   0.00000  Uiso   1.00
C298   C     0.46058   0.07007   0.88767   0.00000  Uiso   1.00
C299   C     0.36524   0.04522   0.77337   0.00000  Uiso   1.00
H300   H     0.56553   0.34580   0.88719   0.00000  Uiso   1.00
H301   H     0.72988   0.25700   0.00957   0.00000  Uiso   1.00
H302   H     0.57415   0.56484   0.92893   0.00000  Uiso   1.00
H303   H     0.38503   0.23174   0.70487   0.00000  Uiso   1.00
H304   H     0.92397   0.13321   0.17396   0.00000  Uiso   1.00
H305   H     0.59557   0.78231   0.00390   0.00000  Uiso   1.00
H306   H     0.19677   0.07991   0.53141   0.00000  Uiso   1.00
H307   H     0.65690   0.15038   0.10822   0.00000  Uiso   1.00
H308   H     0.82626   0.05084   0.24273   0.00000  Uiso   1.00
H309   H     0.67053   0.35869   0.16209   0.00000  Uiso   1.00
H310   H     0.48141   0.02559   0.93803   0.00000  Uiso   1.00
H311   H     0.00220   0.96589   0.36320   0.00000  Uiso   1.00
H312   H     0.67379   0.61500   0.19314   0.00000  Uiso   1.00
H313   H     0.27500   0.91259   0.72066   0.00000  Uiso   1.00
O314   O     0.07286   0.98763   0.35310   0.00000  Uiso   1.00
O315   O     0.64200   0.83922   0.12997   0.00000  Uiso   1.00
O316   O     0.11879   0.91768   0.51009   0.00000  Uiso   1.00
N317   N     0.91912   0.10747   0.20002   0.00000  Uiso   1.00
N318   N     0.61211   0.71434   0.04104   0.00000  Uiso   1.00
N319   N     0.23925   0.05768   0.59930   0.00000  Uiso   1.00
N320   N     0.96122   0.01744   0.30185   0.00000  Uiso   1.00
N321   N     0.65420   0.62431   0.14287   0.00000  Uiso   1.00
N322   N     0.28134   0.96765   0.70113   0.00000  Uiso   1.00
C323   C     0.05437   0.08145   0.89397   0.00000  Uiso   1.00
C324   C     0.16104   0.02206   0.98849   0.00000  Uiso   1.00
C325   C     0.22862   0.05691   0.02207   0.00000  Uiso   1.00
C326   C     0.32258   0.99103   0.11027   0.00000  Uiso   1.00
C327   C     0.48439   0.91363   0.24907   0.00000  Uiso   1.00
C328   C     0.06118   0.12227   0.94724   0.00000  Uiso   1.00
C329   C     0.04479   0.24138   0.94612   0.00000  Uiso   1.00
C330   C     0.05467   0.25984   0.99957   0.00000  Uiso   1.00
C331   C     0.06137   0.33801   0.07425   0.00000  Uiso   1.00
C332   C     0.97288   0.97739   0.81260   0.00000  Uiso   1.00
C333   C     0.88222   0.97468   0.69826   0.00000  Uiso   1.00
C334   C     0.81774   0.87118   0.63835   0.00000  Uiso   1.00
C335   C     0.68733   0.72439   0.50399   0.00000  Uiso   1.00
C336   C     0.10105   0.90247   0.99088   0.00000  Uiso   1.00
C337   C     0.18640   0.92484   0.04113   0.00000  Uiso   1.00
C338   C     0.28028   0.85888   0.12930   0.00000  Uiso   1.00
C339   C     0.34799   0.89363   0.16300   0.00000  Uiso   1.00
C340   C     0.08654   0.02506   0.99988   0.00000  Uiso   1.00
C341   C     0.09644   0.04335   0.05334   0.00000  Uiso   1.00
C342   C     0.08008   0.16245   0.05231   0.00000  Uiso   1.00
C343   C     0.99824   0.88016   0.86524   0.00000  Uiso   1.00
C344   C     0.93388   0.77665   0.80549   0.00000  Uiso   1.00
C345   C     0.84315   0.77378   0.69109   0.00000  Uiso   1.00
H346   H     0.03462   0.15715   0.85299   0.00000  Uiso   1.00
H347   H     0.20897   0.13216   0.98132   0.00000  Uiso   1.00
H348   H     0.02515   0.31659   0.90537   0.00000  Uiso   1.00
H349   H     0.86262   0.04993   0.65756   0.00000  Uiso   1.00
H350   H     0.41347   0.06161   0.14684   0.00000  Uiso   1.00
H351   H     0.02585   0.45049   0.98666   0.00000  Uiso   1.00
H352   H     0.68311   0.88819   0.46409   0.00000  Uiso   1.00
H353   H     0.12080   0.82678   0.03186   0.00000  Uiso   1.00
H354   H     0.29988   0.78365   0.17001   0.00000  Uiso   1.00
H355   H     0.11606   0.96809   0.09406   0.00000  Uiso   1.00
H356   H     0.95353   0.70143   0.84625   0.00000  Uiso   1.00
H357   H     0.48726   0.77875   0.30000   0.00000  Uiso   1.00
H358   H     0.09963   0.16763   0.13980   0.00000  Uiso   1.00
H359   H     0.75689   0.60533   0.61725   0.00000  Uiso   1.00
O360   O     0.56664   0.89780   0.31110   0.00000  Uiso   1.00
O361   O     0.05806   0.40799   0.10091   0.00000  Uiso   1.00
O362   O     0.60840   0.67027   0.41533   0.00000  Uiso   1.00
N363   N     0.40625   0.00094   0.16391   0.00000  Uiso   1.00
N364   N     0.04386   0.36452   0.01416   0.00000  Uiso   1.00
N365   N     0.72341   0.83884   0.52561   0.00000  Uiso   1.00
N366   N     0.44596   0.84874   0.24632   0.00000  Uiso   1.00
N367   N     0.08357   0.21232   0.09657   0.00000  Uiso   1.00
N368   N     0.76312   0.68663   0.60802   0.00000  Uiso   1.00
