data_job_05788
_audit_creation_date              2018-12-19
_audit_creation_method            'Materials Studio'
_symmetry_space_group_name_H-M    'P1'
_symmetry_Int_Tables_number       1
_symmetry_cell_setting            triclinic
loop_
_symmetry_equiv_pos_as_xyz
  x,y,z
_cell_length_a                    14.4396
_cell_length_b                    12.3232
_cell_length_c                    18.0084
_cell_angle_alpha                 90.0000
_cell_angle_beta                  90.0000
_cell_angle_gamma                 90.0000
loop_
_atom_site_label
_atom_site_type_symbol
_atom_site_fract_x
_atom_site_fract_y
_atom_site_fract_z
_atom_site_U_iso_or_equiv
_atom_site_adp_type
_atom_site_occupancy
C1     C     0.39847   0.75943   0.95787   0.00000  Uiso   1.00
C2     C     0.32457   0.84782   0.95894   0.00000  Uiso   1.00
C3     C     0.33400   0.94989   0.99061   0.00000  Uiso   1.00
C4     C     0.25838   0.01910   0.98576   0.00000  Uiso   1.00
C5     C     0.15611   0.16118   0.99282   0.00000  Uiso   1.00
C6     C     0.35434   0.66000   0.99377   0.00000  Uiso   1.00
C7     C     0.38880   0.60415   0.05472   0.00000  Uiso   1.00
C8     C     0.33823   0.51524   0.07919   0.00000  Uiso   1.00
C9     C     0.28221   0.36567   0.14030   0.00000  Uiso   1.00
C10    C     0.41295   0.73030   0.87639   0.00000  Uiso   1.00
C11    C     0.49670   0.73352   0.83865   0.00000  Uiso   1.00
C12    C     0.49548   0.70377   0.76429   0.00000  Uiso   1.00
C13    C     0.53046   0.66335   0.64315   0.00000  Uiso   1.00
C14    C     0.24739   0.70083   0.89294   0.00000  Uiso   1.00
C15    C     0.24251   0.81599   0.92367   0.00000  Uiso   1.00
C16    C     0.16685   0.88507   0.91877   0.00000  Uiso   1.00
C17    C     0.17617   0.98722   0.95043   0.00000  Uiso   1.00
C18    C     0.27228   0.62817   0.95851   0.00000  Uiso   1.00
C19    C     0.22165   0.53932   0.98289   0.00000  Uiso   1.00
C20    C     0.25602   0.48335   0.04386   0.00000  Uiso   1.00
C21    C     0.33089   0.69847   0.84112   0.00000  Uiso   1.00
C22    C     0.32954   0.66870   0.76681   0.00000  Uiso   1.00
C23    C     0.41327   0.67188   0.72896   0.00000  Uiso   1.00
H24    H     0.46235   0.78420   0.98533   0.00000  Uiso   1.00
H25    H     0.39752   0.97449   0.01790   0.00000  Uiso   1.00
H26    H     0.45231   0.62879   0.08200   0.00000  Uiso   1.00
H27    H     0.56019   0.75815   0.86596   0.00000  Uiso   1.00
H28    H     0.28944   0.17141   0.03849   0.00000  Uiso   1.00
H29    H     0.40498   0.44246   0.17363   0.00000  Uiso   1.00
H30    H     0.63247   0.71524   0.71807   0.00000  Uiso   1.00
H31    H     0.18350   0.67605   0.86548   0.00000  Uiso   1.00
H32    H     0.10336   0.86042   0.89148   0.00000  Uiso   1.00
H33    H     0.15815   0.51472   0.95558   0.00000  Uiso   1.00
H34    H     0.26603   0.64408   0.73954   0.00000  Uiso   1.00
H35    H     0.05068   0.07882   0.93588   0.00000  Uiso   1.00
H36    H     0.16624   0.34987   0.07102   0.00000  Uiso   1.00
H37    H     0.39372   0.62266   0.61546   0.00000  Uiso   1.00
O38    O     0.12236   0.24833   0.00647   0.00000  Uiso   1.00
O39    O     0.27397   0.29198   0.18376   0.00000  Uiso   1.00
O40    O     0.57242   0.64986   0.58607   0.00000  Uiso   1.00
N41    N     0.24425   0.12433   0.01076   0.00000  Uiso   1.00
N42    N     0.35227   0.44282   0.13712   0.00000  Uiso   1.00
N43    N     0.56496   0.69781   0.71121   0.00000  Uiso   1.00
N44    N     0.11578   0.07451   0.95555   0.00000  Uiso   1.00
N45    N     0.22380   0.39300   0.08190   0.00000  Uiso   1.00
N46    N     0.43649   0.64799   0.65599   0.00000  Uiso   1.00
C47    C     0.60153   0.24057   0.95787   0.00000  Uiso   1.00
C48    C     0.67543   0.15218   0.95894   0.00000  Uiso   1.00
C49    C     0.66600   0.05011   0.99061   0.00000  Uiso   1.00
C50    C     0.74162   0.98090   0.98576   0.00000  Uiso   1.00
C51    C     0.84389   0.83882   0.99282   0.00000  Uiso   1.00
C52    C     0.64566   0.34000   0.99377   0.00000  Uiso   1.00
C53    C     0.61120   0.39585   0.05472   0.00000  Uiso   1.00
C54    C     0.66177   0.48476   0.07919   0.00000  Uiso   1.00
C55    C     0.71779   0.63433   0.14030   0.00000  Uiso   1.00
C56    C     0.58705   0.26970   0.87639   0.00000  Uiso   1.00
C57    C     0.50330   0.26648   0.83865   0.00000  Uiso   1.00
C58    C     0.50452   0.29623   0.76429   0.00000  Uiso   1.00
C59    C     0.46954   0.33665   0.64315   0.00000  Uiso   1.00
C60    C     0.75261   0.29917   0.89294   0.00000  Uiso   1.00
C61    C     0.75749   0.18401   0.92367   0.00000  Uiso   1.00
C62    C     0.83315   0.11493   0.91877   0.00000  Uiso   1.00
C63    C     0.82383   0.01278   0.95043   0.00000  Uiso   1.00
C64    C     0.72772   0.37183   0.95851   0.00000  Uiso   1.00
C65    C     0.77835   0.46068   0.98289   0.00000  Uiso   1.00
C66    C     0.74398   0.51665   0.04386   0.00000  Uiso   1.00
C67    C     0.66911   0.30153   0.84112   0.00000  Uiso   1.00
C68    C     0.67046   0.33130   0.76681   0.00000  Uiso   1.00
C69    C     0.58673   0.32812   0.72896   0.00000  Uiso   1.00
H70    H     0.53765   0.21580   0.98533   0.00000  Uiso   1.00
H71    H     0.60248   0.02551   0.01790   0.00000  Uiso   1.00
H72    H     0.54769   0.37121   0.08200   0.00000  Uiso   1.00
H73    H     0.43981   0.24185   0.86596   0.00000  Uiso   1.00
H74    H     0.71056   0.82859   0.03849   0.00000  Uiso   1.00
H75    H     0.59502   0.55754   0.17363   0.00000  Uiso   1.00
H76    H     0.36753   0.28476   0.71807   0.00000  Uiso   1.00
H77    H     0.81650   0.32395   0.86548   0.00000  Uiso   1.00
H78    H     0.89664   0.13958   0.89148   0.00000  Uiso   1.00
H79    H     0.84185   0.48528   0.95558   0.00000  Uiso   1.00
H80    H     0.73397   0.35592   0.73954   0.00000  Uiso   1.00
H81    H     0.94932   0.92118   0.93588   0.00000  Uiso   1.00
H82    H     0.83376   0.65013   0.07102   0.00000  Uiso   1.00
H83    H     0.60628   0.37734   0.61546   0.00000  Uiso   1.00
O84    O     0.87764   0.75167   0.00647   0.00000  Uiso   1.00
O85    O     0.72603   0.70802   0.18376   0.00000  Uiso   1.00
O86    O     0.42758   0.35014   0.58607   0.00000  Uiso   1.00
N87    N     0.75575   0.87567   0.01076   0.00000  Uiso   1.00
N88    N     0.64773   0.55718   0.13712   0.00000  Uiso   1.00
N89    N     0.43504   0.30219   0.71121   0.00000  Uiso   1.00
N90    N     0.88422   0.92549   0.95555   0.00000  Uiso   1.00
N91    N     0.77620   0.60700   0.08190   0.00000  Uiso   1.00
N92    N     0.56351   0.35201   0.65599   0.00000  Uiso   1.00
C93    C     0.39847   0.74057   0.45787   0.00000  Uiso   1.00
C94    C     0.32457   0.65218   0.45894   0.00000  Uiso   1.00
C95    C     0.33400   0.55011   0.49061   0.00000  Uiso   1.00
C96    C     0.25838   0.48090   0.48576   0.00000  Uiso   1.00
C97    C     0.15611   0.33882   0.49282   0.00000  Uiso   1.00
C98    C     0.35434   0.84000   0.49377   0.00000  Uiso   1.00
C99    C     0.38880   0.89585   0.55472   0.00000  Uiso   1.00
C100   C     0.33823   0.98476   0.57919   0.00000  Uiso   1.00
C101   C     0.28221   0.13433   0.64030   0.00000  Uiso   1.00
C102   C     0.41295   0.76970   0.37639   0.00000  Uiso   1.00
C103   C     0.49670   0.76648   0.33865   0.00000  Uiso   1.00
C104   C     0.49548   0.79623   0.26429   0.00000  Uiso   1.00
C105   C     0.53046   0.83665   0.14315   0.00000  Uiso   1.00
C106   C     0.24739   0.79917   0.39294   0.00000  Uiso   1.00
C107   C     0.24251   0.68401   0.42367   0.00000  Uiso   1.00
C108   C     0.16685   0.61493   0.41877   0.00000  Uiso   1.00
C109   C     0.17617   0.51278   0.45043   0.00000  Uiso   1.00
C110   C     0.27228   0.87183   0.45851   0.00000  Uiso   1.00
C111   C     0.22165   0.96068   0.48289   0.00000  Uiso   1.00
C112   C     0.25602   0.01665   0.54386   0.00000  Uiso   1.00
C113   C     0.33089   0.80153   0.34112   0.00000  Uiso   1.00
C114   C     0.32954   0.83130   0.26681   0.00000  Uiso   1.00
C115   C     0.41327   0.82812   0.22896   0.00000  Uiso   1.00
H116   H     0.46235   0.71580   0.48533   0.00000  Uiso   1.00
H117   H     0.39752   0.52551   0.51790   0.00000  Uiso   1.00
H118   H     0.45231   0.87121   0.58200   0.00000  Uiso   1.00
H119   H     0.56019   0.74185   0.36596   0.00000  Uiso   1.00
H120   H     0.28944   0.32859   0.53849   0.00000  Uiso   1.00
H121   H     0.40498   0.05754   0.67363   0.00000  Uiso   1.00
H122   H     0.63247   0.78476   0.21807   0.00000  Uiso   1.00
H123   H     0.18350   0.82395   0.36548   0.00000  Uiso   1.00
H124   H     0.10336   0.63958   0.39148   0.00000  Uiso   1.00
H125   H     0.15815   0.98528   0.45558   0.00000  Uiso   1.00
H126   H     0.26603   0.85592   0.23954   0.00000  Uiso   1.00
H127   H     0.05068   0.42118   0.43588   0.00000  Uiso   1.00
H128   H     0.16624   0.15013   0.57102   0.00000  Uiso   1.00
H129   H     0.39372   0.87734   0.11546   0.00000  Uiso   1.00
O130   O     0.12236   0.25167   0.50647   0.00000  Uiso   1.00
O131   O     0.27397   0.20802   0.68376   0.00000  Uiso   1.00
O132   O     0.57242   0.85014   0.08607   0.00000  Uiso   1.00
N133   N     0.24425   0.37567   0.51076   0.00000  Uiso   1.00
N134   N     0.35227   0.05718   0.63712   0.00000  Uiso   1.00
N135   N     0.56496   0.80219   0.21121   0.00000  Uiso   1.00
N136   N     0.11578   0.42549   0.45555   0.00000  Uiso   1.00
N137   N     0.22380   0.10700   0.58190   0.00000  Uiso   1.00
N138   N     0.43649   0.85201   0.15599   0.00000  Uiso   1.00
C139   C     0.60153   0.25943   0.45787   0.00000  Uiso   1.00
C140   C     0.67543   0.34782   0.45894   0.00000  Uiso   1.00
C141   C     0.66600   0.44989   0.49061   0.00000  Uiso   1.00
C142   C     0.74162   0.51910   0.48576   0.00000  Uiso   1.00
C143   C     0.84389   0.66118   0.49282   0.00000  Uiso   1.00
C144   C     0.64566   0.16000   0.49377   0.00000  Uiso   1.00
C145   C     0.61120   0.10415   0.55472   0.00000  Uiso   1.00
C146   C     0.66177   0.01524   0.57919   0.00000  Uiso   1.00
C147   C     0.71779   0.86567   0.64030   0.00000  Uiso   1.00
C148   C     0.58705   0.23030   0.37639   0.00000  Uiso   1.00
C149   C     0.50330   0.23352   0.33865   0.00000  Uiso   1.00
C150   C     0.50452   0.20377   0.26429   0.00000  Uiso   1.00
C151   C     0.46954   0.16335   0.14315   0.00000  Uiso   1.00
C152   C     0.75261   0.20083   0.39294   0.00000  Uiso   1.00
C153   C     0.75749   0.31599   0.42367   0.00000  Uiso   1.00
C154   C     0.83315   0.38507   0.41877   0.00000  Uiso   1.00
C155   C     0.82383   0.48722   0.45043   0.00000  Uiso   1.00
C156   C     0.72772   0.12817   0.45851   0.00000  Uiso   1.00
C157   C     0.77835   0.03932   0.48289   0.00000  Uiso   1.00
C158   C     0.74398   0.98335   0.54386   0.00000  Uiso   1.00
C159   C     0.66911   0.19847   0.34112   0.00000  Uiso   1.00
C160   C     0.67046   0.16870   0.26681   0.00000  Uiso   1.00
C161   C     0.58673   0.17188   0.22896   0.00000  Uiso   1.00
H162   H     0.53765   0.28420   0.48533   0.00000  Uiso   1.00
H163   H     0.60248   0.47449   0.51790   0.00000  Uiso   1.00
H164   H     0.54769   0.12879   0.58200   0.00000  Uiso   1.00
H165   H     0.43981   0.25815   0.36596   0.00000  Uiso   1.00
H166   H     0.71056   0.67141   0.53849   0.00000  Uiso   1.00
H167   H     0.59502   0.94246   0.67363   0.00000  Uiso   1.00
H168   H     0.36753   0.21524   0.21807   0.00000  Uiso   1.00
H169   H     0.81650   0.17605   0.36548   0.00000  Uiso   1.00
H170   H     0.89664   0.36042   0.39148   0.00000  Uiso   1.00
H171   H     0.84185   0.01472   0.45558   0.00000  Uiso   1.00
H172   H     0.73397   0.14408   0.23954   0.00000  Uiso   1.00
H173   H     0.94932   0.57882   0.43588   0.00000  Uiso   1.00
H174   H     0.83376   0.84987   0.57102   0.00000  Uiso   1.00
H175   H     0.60628   0.12266   0.11546   0.00000  Uiso   1.00
O176   O     0.87764   0.74833   0.50647   0.00000  Uiso   1.00
O177   O     0.72603   0.79198   0.68376   0.00000  Uiso   1.00
O178   O     0.42758   0.14986   0.08607   0.00000  Uiso   1.00
N179   N     0.75575   0.62433   0.51076   0.00000  Uiso   1.00
N180   N     0.64773   0.94282   0.63712   0.00000  Uiso   1.00
N181   N     0.43504   0.19781   0.21121   0.00000  Uiso   1.00
N182   N     0.88422   0.57451   0.45555   0.00000  Uiso   1.00
N183   N     0.77620   0.89300   0.58190   0.00000  Uiso   1.00
N184   N     0.56351   0.14799   0.15599   0.00000  Uiso   1.00
