data_job_07069
_audit_creation_date              2018-12-19
_audit_creation_method            'Materials Studio'
_symmetry_space_group_name_H-M    'P1'
_symmetry_Int_Tables_number       1
_symmetry_cell_setting            triclinic
loop_
_symmetry_equiv_pos_as_xyz
  x,y,z
_cell_length_a                    23.3100
_cell_length_b                    17.2151
_cell_length_c                    19.2509
_cell_angle_alpha                 85.3019
_cell_angle_beta                  83.7101
_cell_angle_gamma                 90.5234
loop_
_atom_site_label
_atom_site_type_symbol
_atom_site_fract_x
_atom_site_fract_y
_atom_site_fract_z
_atom_site_U_iso_or_equiv
_atom_site_adp_type
_atom_site_occupancy
C1     C     0.52256   0.84591   0.49953   0.00000  Uiso   1.00
C2     C     0.53419   0.83648   0.42119   0.00000  Uiso   1.00
C3     C     0.54080   0.89673   0.36831   0.00000  Uiso   1.00
C4     C     0.55118   0.87601   0.29993   0.00000  Uiso   1.00
C5     C     0.56866   0.87325   0.18055   0.00000  Uiso   1.00
C6     C     0.46727   0.79927   0.52514   0.00000  Uiso   1.00
C7     C     0.41762   0.82824   0.55966   0.00000  Uiso   1.00
C8     C     0.37168   0.77619   0.57878   0.00000  Uiso   1.00
C9     C     0.28529   0.71565   0.62083   0.00000  Uiso   1.00
C10    C     0.57078   0.80334   0.53347   0.00000  Uiso   1.00
C11    C     0.60814   0.83572   0.57502   0.00000  Uiso   1.00
C12    C     0.64933   0.78708   0.60118   0.00000  Uiso   1.00
C13    C     0.72364   0.73286   0.65617   0.00000  Uiso   1.00
C14    C     0.52924   0.70195   0.47212   0.00000  Uiso   1.00
C15    C     0.53782   0.75828   0.40631   0.00000  Uiso   1.00
C16    C     0.54819   0.73746   0.33799   0.00000  Uiso   1.00
C17    C     0.55482   0.79767   0.28501   0.00000  Uiso   1.00
C18    C     0.47090   0.72108   0.51025   0.00000  Uiso   1.00
C19    C     0.42502   0.66897   0.52934   0.00000  Uiso   1.00
C20    C     0.37531   0.69785   0.56387   0.00000  Uiso   1.00
C21    C     0.57441   0.72514   0.51859   0.00000  Uiso   1.00
C22    C     0.61554   0.67644   0.54470   0.00000  Uiso   1.00
C23    C     0.65296   0.70875   0.58627   0.00000  Uiso   1.00
H24    H     0.51973   0.90679   0.51112   0.00000  Uiso   1.00
H25    H     0.53798   0.95724   0.37985   0.00000  Uiso   1.00
H26    H     0.41483   0.88875   0.57118   0.00000  Uiso   1.00
H27    H     0.60532   0.89623   0.58653   0.00000  Uiso   1.00
H28    H     0.55980   0.97869   0.22775   0.00000  Uiso   1.00
H29    H     0.30014   0.83428   0.63119   0.00000  Uiso   1.00
H30    H     0.70182   0.85004   0.66357   0.00000  Uiso   1.00
H31    H     0.53206   0.64107   0.46054   0.00000  Uiso   1.00
H32    H     0.55100   0.67694   0.32648   0.00000  Uiso   1.00
H33    H     0.42784   0.60846   0.51781   0.00000  Uiso   1.00
H34    H     0.61833   0.61594   0.53317   0.00000  Uiso   1.00
H35    H     0.57036   0.75119   0.18443   0.00000  Uiso   1.00
H36    H     0.31069   0.60678   0.58788   0.00000  Uiso   1.00
H37    H     0.71238   0.62255   0.62026   0.00000  Uiso   1.00
O38    O     0.57730   0.89333   0.11882   0.00000  Uiso   1.00
O39    O     0.23663   0.70387   0.64813   0.00000  Uiso   1.00
O40    O     0.76364   0.72455   0.69061   0.00000  Uiso   1.00
N41    N     0.55970   0.92022   0.23595   0.00000  Uiso   1.00
N42    N     0.31692   0.78522   0.61313   0.00000  Uiso   1.00
N43    N     0.69246   0.79995   0.64342   0.00000  Uiso   1.00
N44    N     0.56539   0.79781   0.21264   0.00000  Uiso   1.00
N45    N     0.32261   0.66280   0.58983   0.00000  Uiso   1.00
N46    N     0.69814   0.67753   0.62012   0.00000  Uiso   1.00
C47    C     0.49369   0.53130   0.85508   0.00000  Uiso   1.00
C48    C     0.43175   0.53231   0.83649   0.00000  Uiso   1.00
C49    C     0.38273   0.51370   0.88278   0.00000  Uiso   1.00
C50    C     0.33001   0.51818   0.85553   0.00000  Uiso   1.00
C51    C     0.23437   0.51632   0.83747   0.00000  Uiso   1.00
C52    C     0.52616   0.47694   0.80647   0.00000  Uiso   1.00
C53    C     0.55652   0.41178   0.82752   0.00000  Uiso   1.00
C54    C     0.58328   0.36966   0.77499   0.00000  Uiso   1.00
C55    C     0.63425   0.28187   0.71032   0.00000  Uiso   1.00
C56    C     0.51874   0.61279   0.83269   0.00000  Uiso   1.00
C57    C     0.54288   0.66184   0.87577   0.00000  Uiso   1.00
C58    C     0.56341   0.73409   0.84531   0.00000  Uiso   1.00
C59    C     0.60285   0.85721   0.82134   0.00000  Uiso   1.00
C60    C     0.48724   0.57236   0.72436   0.00000  Uiso   1.00
C61    C     0.42825   0.55461   0.76549   0.00000  Uiso   1.00
C62    C     0.37559   0.55912   0.73816   0.00000  Uiso   1.00
C63    C     0.32650   0.54053   0.78440   0.00000  Uiso   1.00
C64    C     0.52266   0.49924   0.73548   0.00000  Uiso   1.00
C65    C     0.54938   0.45721   0.68290   0.00000  Uiso   1.00
C66    C     0.57977   0.39200   0.70386   0.00000  Uiso   1.00
C67    C     0.51524   0.63509   0.76169   0.00000  Uiso   1.00
C68    C     0.53574   0.70727   0.73115   0.00000  Uiso   1.00
C69    C     0.55990   0.75643   0.77418   0.00000  Uiso   1.00
H70    H     0.49642   0.51394   0.91035   0.00000  Uiso   1.00
H71    H     0.38546   0.49644   0.93772   0.00000  Uiso   1.00
H72    H     0.55923   0.39455   0.88247   0.00000  Uiso   1.00
H73    H     0.54558   0.64457   0.93071   0.00000  Uiso   1.00
H74    H     0.26089   0.48684   0.93675   0.00000  Uiso   1.00
H75    H     0.62731   0.27201   0.82024   0.00000  Uiso   1.00
H76    H     0.59854   0.79923   0.92197   0.00000  Uiso   1.00
H77    H     0.48451   0.58972   0.66909   0.00000  Uiso   1.00
H78    H     0.37289   0.57638   0.68322   0.00000  Uiso   1.00
H79    H     0.54667   0.47448   0.62796   0.00000  Uiso   1.00
H80    H     0.53302   0.72450   0.67621   0.00000  Uiso   1.00
H81    H     0.25070   0.55172   0.73019   0.00000  Uiso   1.00
H82    H     0.61712   0.33689   0.61368   0.00000  Uiso   1.00
H83    H     0.58835   0.86411   0.71541   0.00000  Uiso   1.00
O84    O     0.18258   0.50912   0.84712   0.00000  Uiso   1.00
O85    O     0.66332   0.22727   0.69426   0.00000  Uiso   1.00
O86    O     0.62557   0.91897   0.82773   0.00000  Uiso   1.00
N87    N     0.27381   0.50396   0.88620   0.00000  Uiso   1.00
N88    N     0.61638   0.30309   0.77727   0.00000  Uiso   1.00
N89    N     0.58950   0.79599   0.87238   0.00000  Uiso   1.00
N90    N     0.26832   0.53887   0.77505   0.00000  Uiso   1.00
N91    N     0.61090   0.33801   0.66612   0.00000  Uiso   1.00
N92    N     0.58401   0.83090   0.76123   0.00000  Uiso   1.00
C93    C     0.83212   0.49546   0.49030   0.00000  Uiso   1.00
C94    C     0.82600   0.40858   0.48179   0.00000  Uiso   1.00
C95    C     0.87051   0.35982   0.46068   0.00000  Uiso   1.00
C96    C     0.85605   0.28213   0.45612   0.00000  Uiso   1.00
C97    C     0.85521   0.15147   0.44044   0.00000  Uiso   1.00
C98    C     0.79071   0.53611   0.44369   0.00000  Uiso   1.00
C99    C     0.80556   0.59457   0.39056   0.00000  Uiso   1.00
C100   C     0.76139   0.62424   0.35394   0.00000  Uiso   1.00
C101   C     0.70575   0.69160   0.27915   0.00000  Uiso   1.00
C102   C     0.80780   0.50657   0.56557   0.00000  Uiso   1.00
C103   C     0.83700   0.54022   0.61492   0.00000  Uiso   1.00
C104   C     0.80720   0.54503   0.68090   0.00000  Uiso   1.00
C105   C     0.77809   0.56654   0.79535   0.00000  Uiso   1.00
C106   C     0.72728   0.44420   0.51972   0.00000  Uiso   1.00
C107   C     0.76905   0.38074   0.49777   0.00000  Uiso   1.00
C108   C     0.75452   0.30311   0.49324   0.00000  Uiso   1.00
C109   C     0.79900   0.25423   0.47214   0.00000  Uiso   1.00
C110   C     0.73377   0.50827   0.45967   0.00000  Uiso   1.00
C111   C     0.68956   0.53786   0.42312   0.00000  Uiso   1.00
C112   C     0.70434   0.59635   0.36995   0.00000  Uiso   1.00
C113   C     0.75085   0.47873   0.58156   0.00000  Uiso   1.00
C114   C     0.72100   0.48350   0.64748   0.00000  Uiso   1.00
C115   C     0.75015   0.51714   0.69692   0.00000  Uiso   1.00
H116   H     0.87645   0.51714   0.47785   0.00000  Uiso   1.00
H117   H     0.91458   0.38139   0.44831   0.00000  Uiso   1.00
H118   H     0.84963   0.61611   0.37821   0.00000  Uiso   1.00
H119   H     0.88107   0.56176   0.60253   0.00000  Uiso   1.00
H120   H     0.93173   0.21861   0.42259   0.00000  Uiso   1.00
H121   H     0.79478   0.71355   0.27479   0.00000  Uiso   1.00
H122   H     0.86107   0.59894   0.74781   0.00000  Uiso   1.00
H123   H     0.68294   0.42253   0.53217   0.00000  Uiso   1.00
H124   H     0.71045   0.28158   0.50562   0.00000  Uiso   1.00
H125   H     0.64550   0.51630   0.43551   0.00000  Uiso   1.00
H126   H     0.67693   0.46195   0.65983   0.00000  Uiso   1.00
H127   H     0.76605   0.13760   0.46909   0.00000  Uiso   1.00
H128   H     0.62910   0.63254   0.32130   0.00000  Uiso   1.00
H129   H     0.69539   0.51793   0.79432   0.00000  Uiso   1.00
O130   O     0.87047   0.08710   0.42737   0.00000  Uiso   1.00
O131   O     0.69080   0.73645   0.23348   0.00000  Uiso   1.00
O132   O     0.77777   0.58608   0.85406   0.00000  Uiso   1.00
N133   N     0.88897   0.21888   0.43719   0.00000  Uiso   1.00
N134   N     0.76093   0.68161   0.29900   0.00000  Uiso   1.00
N135   N     0.82290   0.57449   0.74123   0.00000  Uiso   1.00
N136   N     0.79981   0.17529   0.46222   0.00000  Uiso   1.00
N137   N     0.67177   0.63802   0.32403   0.00000  Uiso   1.00
N138   N     0.73374   0.53090   0.76626   0.00000  Uiso   1.00
C139   C     0.06994   0.92403   0.28868   0.00000  Uiso   1.00
C140   C     0.08154   0.84513   0.25976   0.00000  Uiso   1.00
C141   C     0.09192   0.77641   0.29894   0.00000  Uiso   1.00
C142   C     0.10156   0.71043   0.26270   0.00000  Uiso   1.00
C143   C     0.11965   0.58750   0.22887   0.00000  Uiso   1.00
C144   C     0.01212   0.94998   0.26550   0.00000  Uiso   1.00
C145   C     0.96414   0.96943   0.30950   0.00000  Uiso   1.00
C146   C     0.91534   0.99172   0.27809   0.00000  Uiso   1.00
C147   C     0.82567   0.03162   0.25317   0.00000  Uiso   1.00
C148   C     0.11524   0.98042   0.24893   0.00000  Uiso   1.00
C149   C     0.15395   0.02548   0.27899   0.00000  Uiso   1.00
C150   C     0.19195   0.07342   0.23361   0.00000  Uiso   1.00
C151   C     0.26238   0.16058   0.18296   0.00000  Uiso   1.00
C152   C     0.06859   0.92906   0.15465   0.00000  Uiso   1.00
C153   C     0.08080   0.84786   0.18696   0.00000  Uiso   1.00
C154   C     0.09043   0.78197   0.15065   0.00000  Uiso   1.00
C155   C     0.10082   0.71317   0.18976   0.00000  Uiso   1.00
C156   C     0.01139   0.95271   0.19270   0.00000  Uiso   1.00
C157   C     0.96265   0.97498   0.16121   0.00000  Uiso   1.00
C158   C     0.91461   0.99445   0.20515   0.00000  Uiso   1.00
C159   C     0.11450   0.98315   0.17612   0.00000  Uiso   1.00
C160   C     0.15245   0.03103   0.13069   0.00000  Uiso   1.00
C161   C     0.19122   0.07615   0.16068   0.00000  Uiso   1.00
H162   H     0.07051   0.92191   0.34536   0.00000  Uiso   1.00
H163   H     0.09248   0.77433   0.35528   0.00000  Uiso   1.00
H164   H     0.96473   0.96732   0.36584   0.00000  Uiso   1.00
H165   H     0.15450   0.02336   0.33533   0.00000  Uiso   1.00
H166   H     0.11650   0.61190   0.33418   0.00000  Uiso   1.00
H167   H     0.84712   0.01886   0.35644   0.00000  Uiso   1.00
H168   H     0.24730   0.13703   0.29210   0.00000  Uiso   1.00
H169   H     0.06802   0.93118   0.09797   0.00000  Uiso   1.00
H170   H     0.08986   0.78410   0.09431   0.00000  Uiso   1.00
H171   H     0.96210   0.97709   0.10487   0.00000  Uiso   1.00
H172   H     0.15187   0.03313   0.07436   0.00000  Uiso   1.00
H173   H     0.11436   0.61983   0.12236   0.00000  Uiso   1.00
H174   H     0.84499   0.02679   0.14463   0.00000  Uiso   1.00
H175   H     0.24516   0.14496   0.08029   0.00000  Uiso   1.00
O176   O     0.12982   0.51894   0.23033   0.00000  Uiso   1.00
O177   O     0.77641   0.05287   0.25954   0.00000  Uiso   1.00
O178   O     0.30144   0.20790   0.17513   0.00000  Uiso   1.00
N179   N     0.11301   0.63395   0.28483   0.00000  Uiso   1.00
N180   N     0.86116   0.01442   0.30564   0.00000  Uiso   1.00
N181   N     0.23528   0.12492   0.24549   0.00000  Uiso   1.00
N182   N     0.11186   0.63822   0.17085   0.00000  Uiso   1.00
N183   N     0.86001   0.01869   0.19167   0.00000  Uiso   1.00
N184   N     0.23413   0.12919   0.13152   0.00000  Uiso   1.00
C185   C     0.04582   0.35346   0.00697   0.00000  Uiso   1.00
C186   C     0.98185   0.33576   0.00477   0.00000  Uiso   1.00
C187   C     0.94046   0.38989   0.98898   0.00000  Uiso   1.00
C188   C     0.88429   0.36205   0.98973   0.00000  Uiso   1.00
C189   C     0.78714   0.34659   0.98385   0.00000  Uiso   1.00
C190   C     0.07834   0.30136   0.95626   0.00000  Uiso   1.00
C191   C     0.11807   0.32658   0.89970   0.00000  Uiso   1.00
C192   C     0.14313   0.26978   0.85963   0.00000  Uiso   1.00
C193   C     0.19580   0.20092   0.77847   0.00000  Uiso   1.00
C194   C     0.05934   0.32340   0.08001   0.00000  Uiso   1.00
C195   C     0.08312   0.36714   0.12750   0.00000  Uiso   1.00
C196   C     0.09219   0.32889   0.19160   0.00000  Uiso   1.00
C197   C     0.11537   0.29425   0.30258   0.00000  Uiso   1.00
C198   C     0.01966   0.20775   0.03636   0.00000  Uiso   1.00
C199   C     0.96765   0.25661   0.02073   0.00000  Uiso   1.00
C200   C     0.91152   0.22868   0.02150   0.00000  Uiso   1.00
C201   C     0.87006   0.28276   0.00573   0.00000  Uiso   1.00
C202   C     0.06413   0.22222   0.97223   0.00000  Uiso   1.00
C203   C     0.08914   0.16537   0.93223   0.00000  Uiso   1.00
C204   C     0.12890   0.19049   0.87562   0.00000  Uiso   1.00
C205   C     0.04513   0.24426   0.09598   0.00000  Uiso   1.00
C206   C     0.05418   0.20593   0.16002   0.00000  Uiso   1.00
C207   C     0.07796   0.24960   0.20759   0.00000  Uiso   1.00
H208   H     0.05688   0.41507   0.99453   0.00000  Uiso   1.00
H209   H     0.95147   0.45113   0.97662   0.00000  Uiso   1.00
H210   H     0.12906   0.38783   0.88737   0.00000  Uiso   1.00
H211   H     0.09411   0.42838   0.11512   0.00000  Uiso   1.00
H212   H     0.82835   0.45620   0.96378   0.00000  Uiso   1.00
H213   H     0.20282   0.32272   0.77559   0.00000  Uiso   1.00
H214   H     0.12912   0.40824   0.25586   0.00000  Uiso   1.00
H215   H     0.00860   0.14613   0.04879   0.00000  Uiso   1.00
H216   H     0.90054   0.16743   0.03386   0.00000  Uiso   1.00
H217   H     0.07814   0.10413   0.94460   0.00000  Uiso   1.00
H218   H     0.04318   0.14469   0.17236   0.00000  Uiso   1.00
H219   H     0.78702   0.22594   0.01023   0.00000  Uiso   1.00
H220   H     0.16149   0.09246   0.82204   0.00000  Uiso   1.00
H221   H     0.08778   0.17798   0.30231   0.00000  Uiso   1.00
O222   O     0.73747   0.35993   0.97618   0.00000  Uiso   1.00
O223   O     0.22877   0.18481   0.72929   0.00000  Uiso   1.00
O224   O     0.13207   0.29701   0.35939   0.00000  Uiso   1.00
N225   N     0.83345   0.39909   0.97678   0.00000  Uiso   1.00
N226   N     0.18355   0.27429   0.80082   0.00000  Uiso   1.00
N227   N     0.11466   0.35424   0.24983   0.00000  Uiso   1.00
N228   N     0.81121   0.27519   0.00177   0.00000  Uiso   1.00
N229   N     0.16131   0.15039   0.82582   0.00000  Uiso   1.00
N230   N     0.09242   0.23034   0.27482   0.00000  Uiso   1.00
C231   C     0.39312   0.05452   0.00595   0.00000  Uiso   1.00
C232   C     0.41116   0.03519   0.93086   0.00000  Uiso   1.00
C233   C     0.46734   0.02456   0.90155   0.00000  Uiso   1.00
C234   C     0.47485   0.00722   0.83199   0.00000  Uiso   1.00
C235   C     0.51002   0.97816   0.72131   0.00000  Uiso   1.00
C236   C     0.34997   0.99079   0.03779   0.00000  Uiso   1.00
C237   C     0.35469   0.94284   0.09839   0.00000  Uiso   1.00
C238   C     0.31067   0.88814   0.11885   0.00000  Uiso   1.00
C239   C     0.25081   0.79018   0.17420   0.00000  Uiso   1.00
C240   C     0.35890   0.12941   0.00029   0.00000  Uiso   1.00
C241   C     0.37112   0.19801   0.02936   0.00000  Uiso   1.00
C242   C     0.33461   0.26001   0.01826   0.00000  Uiso   1.00
C243   C     0.28863   0.37728   0.01538   0.00000  Uiso   1.00
C244   C     0.30656   0.04263   0.93457   0.00000  Uiso   1.00
C245   C     0.36415   0.02873   0.89209   0.00000  Uiso   1.00
C246   C     0.37157   0.01141   0.82256   0.00000  Uiso   1.00
C247   C     0.42775   0.00076   0.79315   0.00000  Uiso   1.00
C248   C     0.30295   0.98433   0.99902   0.00000  Uiso   1.00
C249   C     0.25892   0.92969   0.01940   0.00000  Uiso   1.00
C250   C     0.26357   0.88166   0.08001   0.00000  Uiso   1.00
C251   C     0.31189   0.12296   0.96151   0.00000  Uiso   1.00
C252   C     0.27535   0.18486   0.95037   0.00000  Uiso   1.00
C253   C     0.28751   0.25354   0.97942   0.00000  Uiso   1.00
H254   H     0.42972   0.05954   0.03615   0.00000  Uiso   1.00
H255   H     0.50371   0.02956   0.93157   0.00000  Uiso   1.00
H256   H     0.39107   0.94786   0.12838   0.00000  Uiso   1.00
H257   H     0.40750   0.20299   0.05936   0.00000  Uiso   1.00
H258   H     0.56501   0.99344   0.79854   0.00000  Uiso   1.00
H259   H     0.32749   0.82119   0.21354   0.00000  Uiso   1.00
H260   H     0.36214   0.35918   0.06800   0.00000  Uiso   1.00
H261   H     0.26995   0.03760   0.90438   0.00000  Uiso   1.00
H262   H     0.33518   0.00641   0.79257   0.00000  Uiso   1.00
H263   H     0.22254   0.92471   0.98938   0.00000  Uiso   1.00
H264   H     0.23897   0.17984   0.92036   0.00000  Uiso   1.00
H265   H     0.42823   0.97465   0.68572   0.00000  Uiso   1.00
H266   H     0.19071   0.80240   0.10073   0.00000  Uiso   1.00
H267   H     0.22536   0.34039   0.95518   0.00000  Uiso   1.00
O268   O     0.54241   0.96390   0.67097   0.00000  Uiso   1.00
O269   O     0.23079   0.73793   0.21544   0.00000  Uiso   1.00
O270   O     0.27625   0.44376   0.02449   0.00000  Uiso   1.00
N271   N     0.52387   0.99331   0.78733   0.00000  Uiso   1.00
N272   N     0.30181   0.83226   0.17533   0.00000  Uiso   1.00
N273   N     0.33419   0.33523   0.03927   0.00000  Uiso   1.00
N274   N     0.45026   0.98320   0.72662   0.00000  Uiso   1.00
N275   N     0.22821   0.82215   0.11462   0.00000  Uiso   1.00
N276   N     0.26059   0.32512   0.97857   0.00000  Uiso   1.00
C277   C     0.62906   0.14128   0.35089   0.00000  Uiso   1.00
C278   C     0.64337   0.11667   0.42484   0.00000  Uiso   1.00
C279   C     0.66699   0.04618   0.44627   0.00000  Uiso   1.00
C280   C     0.67688   0.03480   0.51617   0.00000  Uiso   1.00
C281   C     0.70114   0.98792   0.62388   0.00000  Uiso   1.00
C282   C     0.66186   0.21792   0.32865   0.00000  Uiso   1.00
C283   C     0.70101   0.23255   0.26919   0.00000  Uiso   1.00
C284   C     0.72644   0.30640   0.25811   0.00000  Uiso   1.00
C285   C     0.77937   0.41672   0.21645   0.00000  Uiso   1.00
C286   C     0.56522   0.16132   0.35813   0.00000  Uiso   1.00
C287   C     0.52311   0.12839   0.32345   0.00000  Uiso   1.00
C288   C     0.46718   0.15461   0.33718   0.00000  Uiso   1.00
C289   C     0.37006   0.17705   0.34130   0.00000  Uiso   1.00
C290   C     0.60462   0.24644   0.43692   0.00000  Uiso   1.00
C291   C     0.63010   0.17379   0.47157   0.00000  Uiso   1.00
C292   C     0.63995   0.16252   0.54146   0.00000  Uiso   1.00
C293   C     0.66358   0.09202   0.56298   0.00000  Uiso   1.00
C294   C     0.64858   0.27503   0.37538   0.00000  Uiso   1.00
C295   C     0.67396   0.34889   0.36438   0.00000  Uiso   1.00
C296   C     0.71314   0.36362   0.30492   0.00000  Uiso   1.00
C297   C     0.55194   0.21844   0.40486   0.00000  Uiso   1.00
C298   C     0.49607   0.24472   0.41864   0.00000  Uiso   1.00
C299   C     0.45388   0.21183   0.38399   0.00000  Uiso   1.00
H300   H     0.63940   0.09682   0.31451   0.00000  Uiso   1.00
H301   H     0.67726   0.00200   0.41009   0.00000  Uiso   1.00
H302   H     0.71127   0.18834   0.23304   0.00000  Uiso   1.00
H303   H     0.53340   0.08419   0.28730   0.00000  Uiso   1.00
H304   H     0.71341   0.92207   0.53666   0.00000  Uiso   1.00
H305   H     0.78509   0.31499   0.16332   0.00000  Uiso   1.00
H306   H     0.41002   0.09537   0.27773   0.00000  Uiso   1.00
H307   H     0.59428   0.29091   0.47330   0.00000  Uiso   1.00
H308   H     0.62967   0.20673   0.57760   0.00000  Uiso   1.00
H309   H     0.66368   0.39307   0.40055   0.00000  Uiso   1.00
H310   H     0.48581   0.28892   0.45481   0.00000  Uiso   1.00
H311   H     0.67478   0.08823   0.67262   0.00000  Uiso   1.00
H312   H     0.74646   0.48116   0.29928   0.00000  Uiso   1.00
H313   H     0.37140   0.26153   0.41369   0.00000  Uiso   1.00
O314   O     0.71821   0.94628   0.67038   0.00000  Uiso   1.00
O315   O     0.81224   0.46178   0.18056   0.00000  Uiso   1.00
O316   O     0.32016   0.17364   0.33068   0.00000  Uiso   1.00
N317   N     0.69945   0.97272   0.55435   0.00000  Uiso   1.00
N318   N     0.76648   0.34007   0.20530   0.00000  Uiso   1.00
N319   N     0.41582   0.13476   0.31225   0.00000  Uiso   1.00
N320   N     0.67867   0.06213   0.62751   0.00000  Uiso   1.00
N321   N     0.74569   0.42949   0.27846   0.00000  Uiso   1.00
N322   N     0.39504   0.22417   0.38541   0.00000  Uiso   1.00
C323   C     0.56232   0.52979   0.05747   0.00000  Uiso   1.00
C324   C     0.62499   0.55328   0.06178   0.00000  Uiso   1.00
C325   C     0.66238   0.58938   0.00739   0.00000  Uiso   1.00
C326   C     0.71800   0.60611   0.02190   0.00000  Uiso   1.00
C327   C     0.81262   0.64546   0.01849   0.00000  Uiso   1.00
C328   C     0.52657   0.56977   0.11494   0.00000  Uiso   1.00
C329   C     0.48122   0.61973   0.10525   0.00000  Uiso   1.00
C330   C     0.45399   0.65033   0.16451   0.00000  Uiso   1.00
C331   C     0.39580   0.71525   0.24364   0.00000  Uiso   1.00
C332   C     0.55753   0.44267   0.07963   0.00000  Uiso   1.00
C333   C     0.53818   0.38577   0.04025   0.00000  Uiso   1.00
C334   C     0.53700   0.30936   0.06979   0.00000  Uiso   1.00
C335   C     0.52688   0.17694   0.09408   0.00000  Uiso   1.00
C336   C     0.59461   0.49527   0.17996   0.00000  Uiso   1.00
C337   C     0.64252   0.53453   0.12832   0.00000  Uiso   1.00
C338   C     0.69810   0.55120   0.14291   0.00000  Uiso   1.00
C339   C     0.73557   0.58732   0.08855   0.00000  Uiso   1.00
C340   C     0.54411   0.55102   0.18147   0.00000  Uiso   1.00
C341   C     0.51694   0.58155   0.24077   0.00000  Uiso   1.00
C342   C     0.47156   0.63155   0.23117   0.00000  Uiso   1.00
C343   C     0.57507   0.42392   0.14616   0.00000  Uiso   1.00
C344   C     0.57391   0.34759   0.17577   0.00000  Uiso   1.00
C345   C     0.55457   0.29058   0.13644   0.00000  Uiso   1.00
H346   H     0.54866   0.54438   0.00567   0.00000  Uiso   1.00
H347   H     0.64878   0.60389   0.95591   0.00000  Uiso   1.00
H348   H     0.46765   0.63422   0.05376   0.00000  Uiso   1.00
H349   H     0.52461   0.40030   0.98877   0.00000  Uiso   1.00
H350   H     0.76752   0.66162   0.93009   0.00000  Uiso   1.00
H351   H     0.38557   0.72556   0.13640   0.00000  Uiso   1.00
H352   H     0.50569   0.23229   0.99935   0.00000  Uiso   1.00
H353   H     0.60827   0.48068   0.23176   0.00000  Uiso   1.00
H354   H     0.71166   0.53668   0.19440   0.00000  Uiso   1.00
H355   H     0.53053   0.56702   0.29225   0.00000  Uiso   1.00
H356   H     0.58749   0.33310   0.22726   0.00000  Uiso   1.00
H357   H     0.81855   0.60708   0.12366   0.00000  Uiso   1.00
H358   H     0.43660   0.67102   0.32997   0.00000  Uiso   1.00
H359   H     0.55672   0.17774   0.19292   0.00000  Uiso   1.00
O360   O     0.85997   0.67236   0.99823   0.00000  Uiso   1.00
O361   O     0.35887   0.75624   0.26890   0.00000  Uiso   1.00
O362   O     0.51646   0.10908   0.08910   0.00000  Uiso   1.00
N363   N     0.76534   0.64108   0.98077   0.00000  Uiso   1.00
N364   N     0.40825   0.70088   0.17366   0.00000  Uiso   1.00
N365   N     0.52053   0.23971   0.04554   0.00000  Uiso   1.00
N366   N     0.79280   0.61173   0.08493   0.00000  Uiso   1.00
N367   N     0.43571   0.67153   0.27781   0.00000  Uiso   1.00
N368   N     0.54800   0.21036   0.14969   0.00000  Uiso   1.00
C369   C     0.24516   0.39724   0.46368   0.00000  Uiso   1.00
C370   C     0.21677   0.47651   0.46692   0.00000  Uiso   1.00
C371   C     0.15792   0.48973   0.47063   0.00000  Uiso   1.00
C372   C     0.14058   0.56648   0.47319   0.00000  Uiso   1.00
C373   C     0.09039   0.68024   0.47843   0.00000  Uiso   1.00
C374   C     0.28133   0.38879   0.52515   0.00000  Uiso   1.00
C375   C     0.27676   0.32826   0.57781   0.00000  Uiso   1.00
C376   C     0.31377   0.33116   0.62939   0.00000  Uiso   1.00
C377   C     0.36385   0.30871   0.72501   0.00000  Uiso   1.00
C378   C     0.28799   0.40370   0.39757   0.00000  Uiso   1.00
C379   C     0.28903   0.35570   0.34295   0.00000  Uiso   1.00
C380   C     0.33166   0.37115   0.28712   0.00000  Uiso   1.00
C381   C     0.39208   0.37186   0.18464   0.00000  Uiso   1.00
C382   C     0.31902   0.51002   0.46164   0.00000  Uiso   1.00
C383   C     0.25689   0.53777   0.46582   0.00000  Uiso   1.00
C384   C     0.23964   0.61452   0.46837   0.00000  Uiso   1.00
C385   C     0.18077   0.62785   0.47208   0.00000  Uiso   1.00
C386   C     0.32145   0.45005   0.52405   0.00000  Uiso   1.00
C387   C     0.35848   0.45304   0.57556   0.00000  Uiso   1.00
C388   C     0.35396   0.39254   0.62828   0.00000  Uiso   1.00
C389   C     0.32811   0.46497   0.39646   0.00000  Uiso   1.00
C390   C     0.37075   0.48049   0.34070   0.00000  Uiso   1.00
C391   C     0.37185   0.43252   0.28601   0.00000  Uiso   1.00
H392   H     0.21393   0.34954   0.46454   0.00000  Uiso   1.00
H393   H     0.12688   0.44230   0.47149   0.00000  Uiso   1.00
H394   H     0.24571   0.28085   0.57865   0.00000  Uiso   1.00
H395   H     0.25798   0.30829   0.34383   0.00000  Uiso   1.00
H396   H     0.04807   0.57216   0.47873   0.00000  Uiso   1.00
H397   H     0.29864   0.23172   0.70467   0.00000  Uiso   1.00
H398   H     0.32451   0.28958   0.20951   0.00000  Uiso   1.00
H399   H     0.35026   0.55772   0.46078   0.00000  Uiso   1.00
H400   H     0.27069   0.66191   0.46752   0.00000  Uiso   1.00
H401   H     0.38952   0.50046   0.57468   0.00000  Uiso   1.00
H402   H     0.40179   0.52790   0.33986   0.00000  Uiso   1.00
H403   H     0.16479   0.75041   0.47551   0.00000  Uiso   1.00
H404   H     0.41537   0.40996   0.70145   0.00000  Uiso   1.00
H405   H     0.44123   0.46783   0.20629   0.00000  Uiso   1.00
O406   O     0.05163   0.72607   0.48164   0.00000  Uiso   1.00
O407   O     0.38038   0.27941   0.77806   0.00000  Uiso   1.00
O408   O     0.41431   0.35533   0.12842   0.00000  Uiso   1.00
N409   N     0.08646   0.59982   0.47703   0.00000  Uiso   1.00
N410   N     0.32073   0.28153   0.68828   0.00000  Uiso   1.00
N411   N     0.34492   0.33561   0.22535   0.00000  Uiso   1.00
N412   N     0.14927   0.69573   0.47530   0.00000  Uiso   1.00
N413   N     0.38353   0.37744   0.68655   0.00000  Uiso   1.00
N414   N     0.40772   0.43153   0.22362   0.00000  Uiso   1.00
C415   C     0.05170   0.99539   0.60814   0.00000  Uiso   1.00
C416   C     0.03441   0.07885   0.58846   0.00000  Uiso   1.00
C417   C     0.06493   0.13121   0.53896   0.00000  Uiso   1.00
C418   C     0.04193   0.20482   0.52858   0.00000  Uiso   1.00
C419   C     0.02296   0.33133   0.49229   0.00000  Uiso   1.00
C420   C     0.05477   0.98940   0.68712   0.00000  Uiso   1.00
C421   C     0.10242   0.96655   0.72057   0.00000  Uiso   1.00
C422   C     0.09656   0.96485   0.79323   0.00000  Uiso   1.00
C423   C     0.10919   0.95243   0.91011   0.00000  Uiso   1.00
C424   C     0.00073   0.94368   0.59654   0.00000  Uiso   1.00
C425   C     0.00293   0.88237   0.55385   0.00000  Uiso   1.00
C426   C     0.95157   0.84216   0.55027   0.00000  Uiso   1.00
C427   C     0.88029   0.75875   0.52651   0.00000  Uiso   1.00
C428   C     0.95657   0.03299   0.67772   0.00000  Uiso   1.00
C429   C     0.98274   0.09928   0.62626   0.00000  Uiso   1.00
C430   C     0.95968   0.17283   0.61594   0.00000  Uiso   1.00
C431   C     0.99017   0.22529   0.56643   0.00000  Uiso   1.00
C432   C     0.00311   0.00983   0.72491   0.00000  Uiso   1.00
C433   C     0.99717   0.00816   0.79754   0.00000  Uiso   1.00
C434   C     0.04480   0.98532   0.83109   0.00000  Uiso   1.00
C435   C     0.94906   0.96411   0.63433   0.00000  Uiso   1.00
C436   C     0.89768   0.92398   0.63082   0.00000  Uiso   1.00
C437   C     0.89981   0.86263   0.58813   0.00000  Uiso   1.00
H438   H     0.09192   0.97948   0.57873   0.00000  Uiso   1.00
H439   H     0.10492   0.11539   0.50973   0.00000  Uiso   1.00
H440   H     0.14240   0.95074   0.69131   0.00000  Uiso   1.00
H441   H     0.04292   0.86658   0.52461   0.00000  Uiso   1.00
H442   H     0.09655   0.27508   0.44992   0.00000  Uiso   1.00
H443   H     0.17557   0.92789   0.83279   0.00000  Uiso   1.00
H444   H     0.96581   0.75041   0.48127   0.00000  Uiso   1.00
H445   H     0.91634   0.04890   0.70715   0.00000  Uiso   1.00
H446   H     0.91970   0.18862   0.64519   0.00000  Uiso   1.00
H447   H     0.95718   0.02397   0.82677   0.00000  Uiso   1.00
H448   H     0.85771   0.93981   0.66007   0.00000  Uiso   1.00
H449   H     0.94622   0.33452   0.55987   0.00000  Uiso   1.00
H450   H     0.02524   0.98732   0.94273   0.00000  Uiso   1.00
H451   H     0.81548   0.80985   0.59122   0.00000  Uiso   1.00
O452   O     0.02677   0.39547   0.46184   0.00000  Uiso   1.00
O453   O     0.13044   0.93995   0.96414   0.00000  Uiso   1.00
O454   O     0.85524   0.70711   0.50297   0.00000  Uiso   1.00
N455   N     0.06070   0.26989   0.48429   0.00000  Uiso   1.00
N456   N     0.13458   0.94530   0.84224   0.00000  Uiso   1.00
N457   N     0.93848   0.77936   0.51363   0.00000  Uiso   1.00
N458   N     0.97981   0.30187   0.54345   0.00000  Uiso   1.00
N459   N     0.05369   0.97728   0.90140   0.00000  Uiso   1.00
N460   N     0.85759   0.81134   0.57279   0.00000  Uiso   1.00
C461   C     0.06796   0.59557   0.97278   0.00000  Uiso   1.00
C462   C     0.12811   0.62912   0.97712   0.00000  Uiso   1.00
C463   C     0.17436   0.58795   0.00002   0.00000  Uiso   1.00
C464   C     0.22581   0.62921   0.00008   0.00000  Uiso   1.00
C465   C     0.31844   0.66921   0.01020   0.00000  Uiso   1.00
C466   C     0.02626   0.64487   0.01647   0.00000  Uiso   1.00
C467   C     0.98686   0.61693   0.07245   0.00000  Uiso   1.00
C468   C     0.95257   0.67145   0.10563   0.00000  Uiso   1.00
C469   C     0.88705   0.73589   0.17682   0.00000  Uiso   1.00
C470   C     0.05576   0.61311   0.89692   0.00000  Uiso   1.00
C471   C     0.04116   0.55847   0.85238   0.00000  Uiso   1.00
C472   C     0.03169   0.58625   0.78490   0.00000  Uiso   1.00
C473   C     0.01198   0.60139   0.67046   0.00000  Uiso   1.00
C474   C     0.07709   0.74207   0.93215   0.00000  Uiso   1.00
C475   C     0.13307   0.70870   0.95505   0.00000  Uiso   1.00
C476   C     0.18446   0.75003   0.95507   0.00000  Uiso   1.00
C477   C     0.23078   0.70892   0.97797   0.00000  Uiso   1.00
C478   C     0.03122   0.72444   0.99441   0.00000  Uiso   1.00
C479   C     0.99697   0.77901   0.02750   0.00000  Uiso   1.00
C480   C     0.95754   0.75116   0.08352   0.00000  Uiso   1.00
C481   C     0.06072   0.69268   0.87485   0.00000  Uiso   1.00
C482   C     0.05126   0.72055   0.80743   0.00000  Uiso   1.00
C483   C     0.03665   0.66597   0.76279   0.00000  Uiso   1.00
H484   H     0.06409   0.53363   0.98996   0.00000  Uiso   1.00
H485   H     0.17050   0.52637   0.01710   0.00000  Uiso   1.00
H486   H     0.98303   0.55535   0.08951   0.00000  Uiso   1.00
H487   H     0.03732   0.49690   0.86947   0.00000  Uiso   1.00
H488   H     0.29065   0.55343   0.03748   0.00000  Uiso   1.00
H489   H     0.89535   0.61453   0.19015   0.00000  Uiso   1.00
H490   H     0.00983   0.49128   0.72615   0.00000  Uiso   1.00
H491   H     0.08095   0.80402   0.91497   0.00000  Uiso   1.00
H492   H     0.18829   0.81160   0.93799   0.00000  Uiso   1.00
H493   H     0.00082   0.84058   0.01041   0.00000  Uiso   1.00
H494   H     0.05511   0.78213   0.79037   0.00000  Uiso   1.00
H495   H     0.30509   0.78493   0.97328   0.00000  Uiso   1.00
H496   H     0.90979   0.84603   0.12595   0.00000  Uiso   1.00
H497   H     0.02427   0.72278   0.66195   0.00000  Uiso   1.00
O498   O     0.36817   0.66930   0.02190   0.00000  Uiso   1.00
O499   O     0.84955   0.74945   0.22219   0.00000  Uiso   1.00
O500   O     0.99974   0.58775   0.61343   0.00000  Uiso   1.00
N501   N     0.27932   0.60687   0.01920   0.00000  Uiso   1.00
N502   N     0.90975   0.66399   0.16194   0.00000  Uiso   1.00
N503   N     0.01676   0.54877   0.72815   0.00000  Uiso   1.00
N504   N     0.28709   0.73144   0.98465   0.00000  Uiso   1.00
N505   N     0.91752   0.78856   0.12740   0.00000  Uiso   1.00
N506   N     0.02453   0.67334   0.69360   0.00000  Uiso   1.00
C507   C     0.76145   0.03092   0.85152   0.00000  Uiso   1.00
C508   C     0.74363   0.03920   0.92914   0.00000  Uiso   1.00
C509   C     0.68735   0.04083   0.96104   0.00000  Uiso   1.00
C510   C     0.68010   0.04881   0.03263   0.00000  Uiso   1.00
C511   C     0.64524   0.06077   0.14733   0.00000  Uiso   1.00
C512   C     0.80038   0.10128   0.82526   0.00000  Uiso   1.00
C513   C     0.79181   0.15511   0.76981   0.00000  Uiso   1.00
C514   C     0.83233   0.21535   0.75396   0.00000  Uiso   1.00
C515   C     0.88558   0.32367   0.70735   0.00000  Uiso   1.00
C516   C     0.80008   0.96001   0.84843   0.00000  Uiso   1.00
C517   C     0.79128   0.89506   0.81244   0.00000  Uiso   1.00
C518   C     0.83156   0.83636   0.81608   0.00000  Uiso   1.00
C519   C     0.88436   0.72533   0.80545   0.00000  Uiso   1.00
C520   C     0.84865   0.04218   0.92196   0.00000  Uiso   1.00
C521   C     0.79100   0.04532   0.96740   0.00000  Uiso   1.00
C522   C     0.78383   0.05329   0.03897   0.00000  Uiso   1.00
C523   C     0.72755   0.05494   0.07096   0.00000  Uiso   1.00
C524   C     0.84774   0.10740   0.86352   0.00000  Uiso   1.00
C525   C     0.88829   0.16757   0.84774   0.00000  Uiso   1.00
C526   C     0.87978   0.22148   0.79229   0.00000  Uiso   1.00
C527   C     0.84745   0.96612   0.88669   0.00000  Uiso   1.00
C528   C     0.88776   0.90752   0.89038   0.00000  Uiso   1.00
C529   C     0.87901   0.84249   0.85441   0.00000  Uiso   1.00
H530   H     0.72457   0.02616   0.82173   0.00000  Uiso   1.00
H531   H     0.65071   0.03610   0.93141   0.00000  Uiso   1.00
H532   H     0.75515   0.15036   0.74021   0.00000  Uiso   1.00
H533   H     0.75462   0.89035   0.78284   0.00000  Uiso   1.00
H534   H     0.58971   0.04985   0.06987   0.00000  Uiso   1.00
H535   H     0.80994   0.29075   0.66671   0.00000  Uiso   1.00
H536   H     0.80883   0.74247   0.75660   0.00000  Uiso   1.00
H537   H     0.88552   0.04695   0.95174   0.00000  Uiso   1.00
H538   H     0.82049   0.05802   0.06856   0.00000  Uiso   1.00
H539   H     0.92493   0.17228   0.87736   0.00000  Uiso   1.00
H540   H     0.92440   0.91227   0.91999   0.00000  Uiso   1.00
H541   H     0.72751   0.06765   0.18119   0.00000  Uiso   1.00
H542   H     0.94775   0.30855   0.77801   0.00000  Uiso   1.00
H543   H     0.94663   0.76026   0.86791   0.00000  Uiso   1.00
O544   O     0.61292   0.06569   0.20002   0.00000  Uiso   1.00
O545   O     0.90187   0.38173   0.67107   0.00000  Uiso   1.00
O546   O     0.90040   0.66239   0.78902   0.00000  Uiso   1.00
N547   N     0.63106   0.05250   0.08004   0.00000  Uiso   1.00
N548   N     0.83697   0.27774   0.70311   0.00000  Uiso   1.00
N549   N     0.83593   0.76515   0.78714   0.00000  Uiso   1.00
N550   N     0.70521   0.06208   0.13994   0.00000  Uiso   1.00
N551   N     0.91111   0.28731   0.76301   0.00000  Uiso   1.00
N552   N     0.91008   0.77472   0.84704   0.00000  Uiso   1.00
