data_job_04462
_audit_creation_date              2018-12-19
_audit_creation_method            'Materials Studio'
_symmetry_space_group_name_H-M    'P1'
_symmetry_Int_Tables_number       1
_symmetry_cell_setting            triclinic
loop_
_symmetry_equiv_pos_as_xyz
  x,y,z
_cell_length_a                    14.8816
_cell_length_b                    29.1705
_cell_length_c                    18.9025
_cell_angle_alpha                 90.0000
_cell_angle_beta                  138.8436
_cell_angle_gamma                 90.0000
loop_
_atom_site_label
_atom_site_type_symbol
_atom_site_fract_x
_atom_site_fract_y
_atom_site_fract_z
_atom_site_U_iso_or_equiv
_atom_site_adp_type
_atom_site_occupancy
C1     C     0.54131   0.11873   0.02130   0.00000  Uiso   1.00
C2     C     0.38965   0.11965   0.94963   0.00000  Uiso   1.00
C3     C     0.28913   0.09308   0.85847   0.00000  Uiso   1.00
C4     C     0.15639   0.09899   0.80391   0.00000  Uiso   1.00
C5     C     0.92561   0.09566   0.68721   0.00000  Uiso   1.00
C6     C     0.57943   0.16784   0.02453   0.00000  Uiso   1.00
C7     C     0.63848   0.18179   0.99636   0.00000  Uiso   1.00
C8     C     0.66551   0.22826   0.00488   0.00000  Uiso   1.00
C9     C     0.72945   0.29975   0.00454   0.00000  Uiso   1.00
C10    C     0.61579   0.10826   0.13442   0.00000  Uiso   1.00
C11    C     0.70546   0.07213   0.19867   0.00000  Uiso   1.00
C12    C     0.76313   0.06845   0.29972   0.00000  Uiso   1.00
C13    C     0.88354   0.04743   0.47000   0.00000  Uiso   1.00
C14    C     0.48433   0.17645   0.08652   0.00000  Uiso   1.00
C15    C     0.35871   0.15100   0.98506   0.00000  Uiso   1.00
C16    C     0.22609   0.15694   0.93063   0.00000  Uiso   1.00
C17    C     0.12539   0.13039   0.83940   0.00000  Uiso   1.00
C18    C     0.54848   0.19919   0.05996   0.00000  Uiso   1.00
C19    C     0.57544   0.24565   0.06853   0.00000  Uiso   1.00
C20    C     0.63451   0.25967   0.04037   0.00000  Uiso   1.00
C21    C     0.58485   0.13961   0.16985   0.00000  Uiso   1.00
C22    C     0.64241   0.13598   0.27083   0.00000  Uiso   1.00
C23    C     0.73213   0.09985   0.33521   0.00000  Uiso   1.00
H24    H     0.56540   0.09433   0.99372   0.00000  Uiso   1.00
H25    H     0.31312   0.06883   0.83107   0.00000  Uiso   1.00
H26    H     0.66243   0.15752   0.96896   0.00000  Uiso   1.00
H27    H     0.72938   0.04788   0.17123   0.00000  Uiso   1.00
H28    H     0.01976   0.05440   0.66635   0.00000  Uiso   1.00
H29    H     0.75633   0.24141   0.95713   0.00000  Uiso   1.00
H30    H     0.89753   0.01020   0.38365   0.00000  Uiso   1.00
H31    H     0.46024   0.20086   0.11411   0.00000  Uiso   1.00
H32    H     0.20217   0.18120   0.95807   0.00000  Uiso   1.00
H33    H     0.55149   0.26990   0.09595   0.00000  Uiso   1.00
H34    H     0.61844   0.16025   0.29822   0.00000  Uiso   1.00
H35    H     0.92971   0.14561   0.76942   0.00000  Uiso   1.00
H36    H     0.66630   0.33262   0.06020   0.00000  Uiso   1.00
H37    H     0.80748   0.10141   0.48672   0.00000  Uiso   1.00
O38    O     0.80686   0.08517   0.61304   0.00000  Uiso   1.00
O39    O     0.77325   0.33051   0.99455   0.00000  Uiso   1.00
O40    O     0.95848   0.02717   0.55413   0.00000  Uiso   1.00
N41    N     0.03398   0.07856   0.71203   0.00000  Uiso   1.00
N42    N     0.72262   0.25340   0.98388   0.00000  Uiso   1.00
N43    N     0.85465   0.03725   0.38265   0.00000  Uiso   1.00
N44    N     0.98553   0.12763   0.76750   0.00000  Uiso   1.00
N45    N     0.67417   0.30248   0.03934   0.00000  Uiso   1.00
N46    N     0.80620   0.08632   0.43811   0.00000  Uiso   1.00
C47    C     0.93387   0.57023   0.17727   0.00000  Uiso   1.00
C48    C     0.78115   0.56414   0.09933   0.00000  Uiso   1.00
C49    C     0.69187   0.54026   0.00292   0.00000  Uiso   1.00
C50    C     0.55596   0.53866   0.94308   0.00000  Uiso   1.00
C51    C     0.32563   0.52596   0.81665   0.00000  Uiso   1.00
C52    C     0.95935   0.62180   0.19192   0.00000  Uiso   1.00
C53    C     0.01991   0.64640   0.17336   0.00000  Uiso   1.00
C54    C     0.03401   0.69333   0.19148   0.00000  Uiso   1.00
C55    C     0.08043   0.77014   0.20887   0.00000  Uiso   1.00
C56    C     0.00451   0.55191   0.28524   0.00000  Uiso   1.00
C57    C     0.10308   0.51774   0.34516   0.00000  Uiso   1.00
C58    C     0.15524   0.50583   0.44186   0.00000  Uiso   1.00
C59    C     0.27178   0.47411   0.60414   0.00000  Uiso   1.00
C60    C     0.85126   0.60985   0.24247   0.00000  Uiso   1.00
C61    C     0.73628   0.58567   0.13475   0.00000  Uiso   1.00
C62    C     0.60047   0.58410   0.07505   0.00000  Uiso   1.00
C63    C     0.51100   0.56022   0.97856   0.00000  Uiso   1.00
C64    C     0.91448   0.64332   0.22733   0.00000  Uiso   1.00
C65    C     0.92851   0.69024   0.24549   0.00000  Uiso   1.00
C66    C     0.98906   0.71490   0.22696   0.00000  Uiso   1.00
C67    C     0.95964   0.57343   0.32065   0.00000  Uiso   1.00
C68    C     0.01167   0.56158   0.41729   0.00000  Uiso   1.00
C69    C     0.11029   0.52740   0.47734   0.00000  Uiso   1.00
H70    H     0.96881   0.55348   0.14970   0.00000  Uiso   1.00
H71    H     0.72663   0.52361   0.97553   0.00000  Uiso   1.00
H72    H     0.05463   0.62973   0.14597   0.00000  Uiso   1.00
H73    H     0.13778   0.50109   0.31773   0.00000  Uiso   1.00
H74    H     0.43834   0.50001   0.79803   0.00000  Uiso   1.00
H75    H     0.12998   0.72376   0.15743   0.00000  Uiso   1.00
H76    H     0.30532   0.45250   0.51963   0.00000  Uiso   1.00
H77    H     0.81633   0.62661   0.27004   0.00000  Uiso   1.00
H78    H     0.56578   0.60076   0.10247   0.00000  Uiso   1.00
H79    H     0.89378   0.70688   0.27290   0.00000  Uiso   1.00
H80    H     0.97692   0.57824   0.44467   0.00000  Uiso   1.00
H81    H     0.30778   0.56263   0.90105   0.00000  Uiso   1.00
H82    H     0.99943   0.78638   0.26046   0.00000  Uiso   1.00
H83    H     0.17476   0.51512   0.62266   0.00000  Uiso   1.00
O84    O     0.21098   0.51301   0.73712   0.00000  Uiso   1.00
O85    O     0.11841   0.80656   0.20866   0.00000  Uiso   1.00
O86    O     0.34844   0.45067   0.68385   0.00000  Uiso   1.00
N87    N     0.44200   0.51829   0.84528   0.00000  Uiso   1.00
N88    N     0.08863   0.72748   0.18129   0.00000  Uiso   1.00
N89    N     0.25258   0.47388   0.51993   0.00000  Uiso   1.00
N90    N     0.37175   0.55198   0.90072   0.00000  Uiso   1.00
N91    N     0.01837   0.76118   0.23672   0.00000  Uiso   1.00
N92    N     0.18232   0.50758   0.57537   0.00000  Uiso   1.00
C93    C     0.45869   0.61873   0.47870   0.00000  Uiso   1.00
C94    C     0.61035   0.61965   0.55037   0.00000  Uiso   1.00
C95    C     0.71087   0.59308   0.64153   0.00000  Uiso   1.00
C96    C     0.84361   0.59899   0.69609   0.00000  Uiso   1.00
C97    C     0.07439   0.59566   0.81279   0.00000  Uiso   1.00
C98    C     0.42057   0.66784   0.47547   0.00000  Uiso   1.00
C99    C     0.36152   0.68179   0.50364   0.00000  Uiso   1.00
C100   C     0.33449   0.72826   0.49512   0.00000  Uiso   1.00
C101   C     0.27055   0.79975   0.49546   0.00000  Uiso   1.00
C102   C     0.38421   0.60826   0.36558   0.00000  Uiso   1.00
C103   C     0.29454   0.57213   0.30133   0.00000  Uiso   1.00
C104   C     0.23687   0.56845   0.20028   0.00000  Uiso   1.00
C105   C     0.11646   0.54743   0.03000   0.00000  Uiso   1.00
C106   C     0.51567   0.67645   0.41348   0.00000  Uiso   1.00
C107   C     0.64129   0.65100   0.51494   0.00000  Uiso   1.00
C108   C     0.77391   0.65694   0.56937   0.00000  Uiso   1.00
C109   C     0.87461   0.63039   0.66060   0.00000  Uiso   1.00
C110   C     0.45152   0.69919   0.44004   0.00000  Uiso   1.00
C111   C     0.42456   0.74565   0.43147   0.00000  Uiso   1.00
C112   C     0.36549   0.75967   0.45963   0.00000  Uiso   1.00
C113   C     0.41515   0.63961   0.33015   0.00000  Uiso   1.00
C114   C     0.35759   0.63598   0.22917   0.00000  Uiso   1.00
C115   C     0.26787   0.59985   0.16479   0.00000  Uiso   1.00
H116   H     0.43460   0.59433   0.50628   0.00000  Uiso   1.00
H117   H     0.68688   0.56883   0.66893   0.00000  Uiso   1.00
H118   H     0.33757   0.65752   0.53104   0.00000  Uiso   1.00
H119   H     0.27062   0.54788   0.32877   0.00000  Uiso   1.00
H120   H     0.98024   0.55440   0.83365   0.00000  Uiso   1.00
H121   H     0.24367   0.74141   0.54287   0.00000  Uiso   1.00
H122   H     0.10247   0.51020   0.11635   0.00000  Uiso   1.00
H123   H     0.53976   0.70086   0.38589   0.00000  Uiso   1.00
H124   H     0.79783   0.68120   0.54193   0.00000  Uiso   1.00
H125   H     0.44851   0.76990   0.40405   0.00000  Uiso   1.00
H126   H     0.38156   0.66025   0.20178   0.00000  Uiso   1.00
H127   H     0.07029   0.64561   0.73058   0.00000  Uiso   1.00
H128   H     0.33370   0.83262   0.43980   0.00000  Uiso   1.00
H129   H     0.19252   0.60141   0.01328   0.00000  Uiso   1.00
O130   O     0.19314   0.58517   0.88696   0.00000  Uiso   1.00
O131   O     0.22675   0.83051   0.50545   0.00000  Uiso   1.00
O132   O     0.04152   0.52717   0.94587   0.00000  Uiso   1.00
N133   N     0.96602   0.57856   0.78797   0.00000  Uiso   1.00
N134   N     0.27738   0.75340   0.51612   0.00000  Uiso   1.00
N135   N     0.14535   0.53725   0.11735   0.00000  Uiso   1.00
N136   N     0.01447   0.62763   0.73250   0.00000  Uiso   1.00
N137   N     0.32583   0.80248   0.46066   0.00000  Uiso   1.00
N138   N     0.19380   0.58632   0.06189   0.00000  Uiso   1.00
C139   C     0.06613   0.07023   0.32273   0.00000  Uiso   1.00
C140   C     0.21885   0.06414   0.40067   0.00000  Uiso   1.00
C141   C     0.30813   0.04026   0.49708   0.00000  Uiso   1.00
C142   C     0.44404   0.03866   0.55692   0.00000  Uiso   1.00
C143   C     0.67437   0.02596   0.68335   0.00000  Uiso   1.00
C144   C     0.04065   0.12180   0.30808   0.00000  Uiso   1.00
C145   C     0.98009   0.14640   0.32664   0.00000  Uiso   1.00
C146   C     0.96599   0.19333   0.30852   0.00000  Uiso   1.00
C147   C     0.91957   0.27014   0.29113   0.00000  Uiso   1.00
C148   C     0.99549   0.05191   0.21476   0.00000  Uiso   1.00
C149   C     0.89692   0.01774   0.15484   0.00000  Uiso   1.00
C150   C     0.84476   0.00583   0.05814   0.00000  Uiso   1.00
C151   C     0.72822   0.97411   0.89586   0.00000  Uiso   1.00
C152   C     0.14874   0.10985   0.25753   0.00000  Uiso   1.00
C153   C     0.26372   0.08567   0.36525   0.00000  Uiso   1.00
C154   C     0.39953   0.08410   0.42495   0.00000  Uiso   1.00
C155   C     0.48900   0.06022   0.52144   0.00000  Uiso   1.00
C156   C     0.08552   0.14332   0.27267   0.00000  Uiso   1.00
C157   C     0.07149   0.19024   0.25451   0.00000  Uiso   1.00
C158   C     0.01094   0.21490   0.27304   0.00000  Uiso   1.00
C159   C     0.04036   0.07343   0.17935   0.00000  Uiso   1.00
C160   C     0.98833   0.06158   0.08271   0.00000  Uiso   1.00
C161   C     0.88971   0.02740   0.02266   0.00000  Uiso   1.00
H162   H     0.03119   0.05348   0.35030   0.00000  Uiso   1.00
H163   H     0.27337   0.02361   0.52447   0.00000  Uiso   1.00
H164   H     0.94537   0.12973   0.35403   0.00000  Uiso   1.00
H165   H     0.86222   0.00109   0.18227   0.00000  Uiso   1.00
H166   H     0.56166   0.00001   0.70197   0.00000  Uiso   1.00
H167   H     0.87002   0.22376   0.34257   0.00000  Uiso   1.00
H168   H     0.69468   0.95250   0.98037   0.00000  Uiso   1.00
H169   H     0.18367   0.12661   0.22996   0.00000  Uiso   1.00
H170   H     0.43422   0.10076   0.39753   0.00000  Uiso   1.00
H171   H     0.10622   0.20688   0.22710   0.00000  Uiso   1.00
H172   H     0.02308   0.07824   0.05533   0.00000  Uiso   1.00
H173   H     0.69222   0.06263   0.59895   0.00000  Uiso   1.00
H174   H     0.00057   0.28638   0.23954   0.00000  Uiso   1.00
H175   H     0.82524   0.01512   0.87734   0.00000  Uiso   1.00
O176   O     0.78902   0.01301   0.76288   0.00000  Uiso   1.00
O177   O     0.88159   0.30656   0.29134   0.00000  Uiso   1.00
O178   O     0.65156   0.95067   0.81615   0.00000  Uiso   1.00
N179   N     0.55800   0.01829   0.65472   0.00000  Uiso   1.00
N180   N     0.91137   0.22748   0.31871   0.00000  Uiso   1.00
N181   N     0.74742   0.97388   0.98007   0.00000  Uiso   1.00
N182   N     0.62825   0.05198   0.59928   0.00000  Uiso   1.00
N183   N     0.98163   0.26118   0.26328   0.00000  Uiso   1.00
N184   N     0.81768   0.00758   0.92463   0.00000  Uiso   1.00
C185   C     0.45869   0.88127   0.97870   0.00000  Uiso   1.00
C186   C     0.61035   0.88035   0.05037   0.00000  Uiso   1.00
C187   C     0.71087   0.90692   0.14153   0.00000  Uiso   1.00
C188   C     0.84361   0.90101   0.19609   0.00000  Uiso   1.00
C189   C     0.07439   0.90434   0.31279   0.00000  Uiso   1.00
C190   C     0.42057   0.83216   0.97547   0.00000  Uiso   1.00
C191   C     0.36152   0.81821   0.00364   0.00000  Uiso   1.00
C192   C     0.33449   0.77174   0.99512   0.00000  Uiso   1.00
C193   C     0.27055   0.70025   0.99546   0.00000  Uiso   1.00
C194   C     0.38421   0.89174   0.86558   0.00000  Uiso   1.00
C195   C     0.29454   0.92787   0.80133   0.00000  Uiso   1.00
C196   C     0.23687   0.93155   0.70028   0.00000  Uiso   1.00
C197   C     0.11646   0.95257   0.53000   0.00000  Uiso   1.00
C198   C     0.51567   0.82355   0.91348   0.00000  Uiso   1.00
C199   C     0.64129   0.84900   0.01494   0.00000  Uiso   1.00
C200   C     0.77391   0.84306   0.06937   0.00000  Uiso   1.00
C201   C     0.87461   0.86961   0.16060   0.00000  Uiso   1.00
C202   C     0.45152   0.80081   0.94004   0.00000  Uiso   1.00
C203   C     0.42456   0.75435   0.93147   0.00000  Uiso   1.00
C204   C     0.36549   0.74033   0.95963   0.00000  Uiso   1.00
C205   C     0.41515   0.86039   0.83015   0.00000  Uiso   1.00
C206   C     0.35759   0.86402   0.72917   0.00000  Uiso   1.00
C207   C     0.26787   0.90015   0.66479   0.00000  Uiso   1.00
H208   H     0.43460   0.90567   0.00628   0.00000  Uiso   1.00
H209   H     0.68688   0.93117   0.16893   0.00000  Uiso   1.00
H210   H     0.33757   0.84248   0.03104   0.00000  Uiso   1.00
H211   H     0.27062   0.95212   0.82877   0.00000  Uiso   1.00
H212   H     0.98024   0.94560   0.33365   0.00000  Uiso   1.00
H213   H     0.24367   0.75859   0.04287   0.00000  Uiso   1.00
H214   H     0.10247   0.98980   0.61635   0.00000  Uiso   1.00
H215   H     0.53976   0.79914   0.88589   0.00000  Uiso   1.00
H216   H     0.79783   0.81880   0.04193   0.00000  Uiso   1.00
H217   H     0.44851   0.73010   0.90405   0.00000  Uiso   1.00
H218   H     0.38156   0.83975   0.70178   0.00000  Uiso   1.00
H219   H     0.07029   0.85439   0.23058   0.00000  Uiso   1.00
H220   H     0.33370   0.66738   0.93980   0.00000  Uiso   1.00
H221   H     0.19252   0.89859   0.51328   0.00000  Uiso   1.00
O222   O     0.19314   0.91483   0.38696   0.00000  Uiso   1.00
O223   O     0.22675   0.66949   0.00545   0.00000  Uiso   1.00
O224   O     0.04152   0.97283   0.44587   0.00000  Uiso   1.00
N225   N     0.96602   0.92144   0.28797   0.00000  Uiso   1.00
N226   N     0.27738   0.74660   0.01612   0.00000  Uiso   1.00
N227   N     0.14535   0.96275   0.61735   0.00000  Uiso   1.00
N228   N     0.01447   0.87237   0.23250   0.00000  Uiso   1.00
N229   N     0.32583   0.69752   0.96066   0.00000  Uiso   1.00
N230   N     0.19380   0.91368   0.56189   0.00000  Uiso   1.00
C231   C     0.06613   0.42977   0.82273   0.00000  Uiso   1.00
C232   C     0.21885   0.43586   0.90067   0.00000  Uiso   1.00
C233   C     0.30813   0.45974   0.99708   0.00000  Uiso   1.00
C234   C     0.44404   0.46134   0.05692   0.00000  Uiso   1.00
C235   C     0.67437   0.47404   0.18335   0.00000  Uiso   1.00
C236   C     0.04065   0.37820   0.80808   0.00000  Uiso   1.00
C237   C     0.98009   0.35360   0.82664   0.00000  Uiso   1.00
C238   C     0.96599   0.30667   0.80852   0.00000  Uiso   1.00
C239   C     0.91957   0.22986   0.79113   0.00000  Uiso   1.00
C240   C     0.99549   0.44809   0.71476   0.00000  Uiso   1.00
C241   C     0.89692   0.48226   0.65484   0.00000  Uiso   1.00
C242   C     0.84476   0.49417   0.55814   0.00000  Uiso   1.00
C243   C     0.72822   0.52589   0.39586   0.00000  Uiso   1.00
C244   C     0.14874   0.39015   0.75753   0.00000  Uiso   1.00
C245   C     0.26372   0.41433   0.86525   0.00000  Uiso   1.00
C246   C     0.39953   0.41590   0.92495   0.00000  Uiso   1.00
C247   C     0.48900   0.43978   0.02144   0.00000  Uiso   1.00
C248   C     0.08552   0.35668   0.77267   0.00000  Uiso   1.00
C249   C     0.07149   0.30976   0.75451   0.00000  Uiso   1.00
C250   C     0.01094   0.28510   0.77304   0.00000  Uiso   1.00
C251   C     0.04036   0.42657   0.67935   0.00000  Uiso   1.00
C252   C     0.98833   0.43842   0.58271   0.00000  Uiso   1.00
C253   C     0.88971   0.47260   0.52266   0.00000  Uiso   1.00
H254   H     0.03119   0.44652   0.85030   0.00000  Uiso   1.00
H255   H     0.27337   0.47639   0.02447   0.00000  Uiso   1.00
H256   H     0.94537   0.37027   0.85403   0.00000  Uiso   1.00
H257   H     0.86222   0.49891   0.68227   0.00000  Uiso   1.00
H258   H     0.56166   0.49999   0.20197   0.00000  Uiso   1.00
H259   H     0.87002   0.27624   0.84257   0.00000  Uiso   1.00
H260   H     0.69468   0.54750   0.48037   0.00000  Uiso   1.00
H261   H     0.18367   0.37339   0.72996   0.00000  Uiso   1.00
H262   H     0.43422   0.39924   0.89753   0.00000  Uiso   1.00
H263   H     0.10622   0.29312   0.72710   0.00000  Uiso   1.00
H264   H     0.02308   0.42176   0.55533   0.00000  Uiso   1.00
H265   H     0.69222   0.43737   0.09895   0.00000  Uiso   1.00
H266   H     0.00057   0.21362   0.73954   0.00000  Uiso   1.00
H267   H     0.82524   0.48488   0.37734   0.00000  Uiso   1.00
O268   O     0.78902   0.48699   0.26288   0.00000  Uiso   1.00
O269   O     0.88159   0.19344   0.79134   0.00000  Uiso   1.00
O270   O     0.65156   0.54933   0.31615   0.00000  Uiso   1.00
N271   N     0.55800   0.48171   0.15472   0.00000  Uiso   1.00
N272   N     0.91137   0.27252   0.81871   0.00000  Uiso   1.00
N273   N     0.74742   0.52612   0.48007   0.00000  Uiso   1.00
N274   N     0.62825   0.44802   0.09928   0.00000  Uiso   1.00
N275   N     0.98163   0.23882   0.76328   0.00000  Uiso   1.00
N276   N     0.81768   0.49242   0.42463   0.00000  Uiso   1.00
C277   C     0.54131   0.38127   0.52130   0.00000  Uiso   1.00
C278   C     0.38965   0.38035   0.44963   0.00000  Uiso   1.00
C279   C     0.28913   0.40692   0.35847   0.00000  Uiso   1.00
C280   C     0.15639   0.40101   0.30391   0.00000  Uiso   1.00
C281   C     0.92561   0.40434   0.18721   0.00000  Uiso   1.00
C282   C     0.57943   0.33216   0.52453   0.00000  Uiso   1.00
C283   C     0.63848   0.31821   0.49636   0.00000  Uiso   1.00
C284   C     0.66551   0.27174   0.50488   0.00000  Uiso   1.00
C285   C     0.72945   0.20025   0.50454   0.00000  Uiso   1.00
C286   C     0.61579   0.39174   0.63442   0.00000  Uiso   1.00
C287   C     0.70546   0.42787   0.69867   0.00000  Uiso   1.00
C288   C     0.76313   0.43155   0.79972   0.00000  Uiso   1.00
C289   C     0.88354   0.45257   0.97000   0.00000  Uiso   1.00
C290   C     0.48433   0.32355   0.58652   0.00000  Uiso   1.00
C291   C     0.35871   0.34900   0.48506   0.00000  Uiso   1.00
C292   C     0.22609   0.34306   0.43063   0.00000  Uiso   1.00
C293   C     0.12539   0.36961   0.33940   0.00000  Uiso   1.00
C294   C     0.54848   0.30081   0.55996   0.00000  Uiso   1.00
C295   C     0.57544   0.25435   0.56853   0.00000  Uiso   1.00
C296   C     0.63451   0.24033   0.54037   0.00000  Uiso   1.00
C297   C     0.58485   0.36039   0.66985   0.00000  Uiso   1.00
C298   C     0.64241   0.36402   0.77083   0.00000  Uiso   1.00
C299   C     0.73213   0.40015   0.83521   0.00000  Uiso   1.00
H300   H     0.56540   0.40567   0.49372   0.00000  Uiso   1.00
H301   H     0.31312   0.43117   0.33107   0.00000  Uiso   1.00
H302   H     0.66243   0.34248   0.46896   0.00000  Uiso   1.00
H303   H     0.72938   0.45212   0.67123   0.00000  Uiso   1.00
H304   H     0.01976   0.44560   0.16635   0.00000  Uiso   1.00
H305   H     0.75633   0.25859   0.45713   0.00000  Uiso   1.00
H306   H     0.89753   0.48980   0.88365   0.00000  Uiso   1.00
H307   H     0.46024   0.29914   0.61411   0.00000  Uiso   1.00
H308   H     0.20217   0.31880   0.45807   0.00000  Uiso   1.00
H309   H     0.55149   0.23010   0.59595   0.00000  Uiso   1.00
H310   H     0.61844   0.33975   0.79822   0.00000  Uiso   1.00
H311   H     0.92971   0.35439   0.26942   0.00000  Uiso   1.00
H312   H     0.66630   0.16738   0.56020   0.00000  Uiso   1.00
H313   H     0.80748   0.39859   0.98672   0.00000  Uiso   1.00
O314   O     0.80686   0.41483   0.11304   0.00000  Uiso   1.00
O315   O     0.77325   0.16949   0.49455   0.00000  Uiso   1.00
O316   O     0.95848   0.47283   0.05413   0.00000  Uiso   1.00
N317   N     0.03398   0.42144   0.21203   0.00000  Uiso   1.00
N318   N     0.72262   0.24660   0.48388   0.00000  Uiso   1.00
N319   N     0.85465   0.46275   0.88265   0.00000  Uiso   1.00
N320   N     0.98553   0.37237   0.26750   0.00000  Uiso   1.00
N321   N     0.67417   0.19752   0.53934   0.00000  Uiso   1.00
N322   N     0.80620   0.41368   0.93811   0.00000  Uiso   1.00
C323   C     0.93387   0.92977   0.67727   0.00000  Uiso   1.00
C324   C     0.78115   0.93586   0.59933   0.00000  Uiso   1.00
C325   C     0.69187   0.95974   0.50292   0.00000  Uiso   1.00
C326   C     0.55596   0.96134   0.44308   0.00000  Uiso   1.00
C327   C     0.32563   0.97404   0.31665   0.00000  Uiso   1.00
C328   C     0.95935   0.87820   0.69192   0.00000  Uiso   1.00
C329   C     0.01991   0.85360   0.67336   0.00000  Uiso   1.00
C330   C     0.03401   0.80667   0.69148   0.00000  Uiso   1.00
C331   C     0.08043   0.72986   0.70887   0.00000  Uiso   1.00
C332   C     0.00451   0.94809   0.78524   0.00000  Uiso   1.00
C333   C     0.10308   0.98226   0.84516   0.00000  Uiso   1.00
C334   C     0.15524   0.99417   0.94186   0.00000  Uiso   1.00
C335   C     0.27178   0.02589   0.10414   0.00000  Uiso   1.00
C336   C     0.85126   0.89015   0.74247   0.00000  Uiso   1.00
C337   C     0.73628   0.91433   0.63475   0.00000  Uiso   1.00
C338   C     0.60047   0.91590   0.57505   0.00000  Uiso   1.00
C339   C     0.51100   0.93978   0.47856   0.00000  Uiso   1.00
C340   C     0.91448   0.85668   0.72733   0.00000  Uiso   1.00
C341   C     0.92851   0.80976   0.74549   0.00000  Uiso   1.00
C342   C     0.98906   0.78510   0.72696   0.00000  Uiso   1.00
C343   C     0.95964   0.92657   0.82065   0.00000  Uiso   1.00
C344   C     0.01167   0.93842   0.91729   0.00000  Uiso   1.00
C345   C     0.11029   0.97260   0.97734   0.00000  Uiso   1.00
H346   H     0.96881   0.94652   0.64970   0.00000  Uiso   1.00
H347   H     0.72663   0.97639   0.47553   0.00000  Uiso   1.00
H348   H     0.05463   0.87027   0.64597   0.00000  Uiso   1.00
H349   H     0.13778   0.99891   0.81773   0.00000  Uiso   1.00
H350   H     0.43834   0.99999   0.29803   0.00000  Uiso   1.00
H351   H     0.12998   0.77624   0.65743   0.00000  Uiso   1.00
H352   H     0.30532   0.04750   0.01963   0.00000  Uiso   1.00
H353   H     0.81633   0.87339   0.77004   0.00000  Uiso   1.00
H354   H     0.56578   0.89924   0.60247   0.00000  Uiso   1.00
H355   H     0.89378   0.79312   0.77290   0.00000  Uiso   1.00
H356   H     0.97692   0.92176   0.94467   0.00000  Uiso   1.00
H357   H     0.30778   0.93737   0.40105   0.00000  Uiso   1.00
H358   H     0.99943   0.71362   0.76046   0.00000  Uiso   1.00
H359   H     0.17476   0.98488   0.12266   0.00000  Uiso   1.00
O360   O     0.21098   0.98699   0.23712   0.00000  Uiso   1.00
O361   O     0.11841   0.69344   0.70866   0.00000  Uiso   1.00
O362   O     0.34844   0.04933   0.18385   0.00000  Uiso   1.00
N363   N     0.44200   0.98171   0.34528   0.00000  Uiso   1.00
N364   N     0.08863   0.77252   0.68129   0.00000  Uiso   1.00
N365   N     0.25258   0.02612   0.01993   0.00000  Uiso   1.00
N366   N     0.37175   0.94802   0.40072   0.00000  Uiso   1.00
N367   N     0.01837   0.73882   0.73672   0.00000  Uiso   1.00
N368   N     0.18232   0.99242   0.07537   0.00000  Uiso   1.00
