data_job_01425
_audit_creation_date              2018-12-19
_audit_creation_method            'Materials Studio'
_symmetry_space_group_name_H-M    'P1'
_symmetry_Int_Tables_number       1
_symmetry_cell_setting            triclinic
loop_
_symmetry_equiv_pos_as_xyz
  x,y,z
_cell_length_a                    19.5658
_cell_length_b                    15.0873
_cell_length_c                    15.2347
_cell_angle_alpha                 90.0000
_cell_angle_beta                  143.2730
_cell_angle_gamma                 90.0000
loop_
_atom_site_label
_atom_site_type_symbol
_atom_site_fract_x
_atom_site_fract_y
_atom_site_fract_z
_atom_site_U_iso_or_equiv
_atom_site_adp_type
_atom_site_occupancy
C1     C     0.81728   0.87390   0.98452   0.00000  Uiso   1.00
C2     C     0.83765   0.77573   0.98750   0.00000  Uiso   1.00
C3     C     0.93428   0.72805   0.11065   0.00000  Uiso   1.00
C4     C     0.93653   0.63888   0.09053   0.00000  Uiso   1.00
C5     C     0.98204   0.49254   0.11618   0.00000  Uiso   1.00
C6     C     0.79394   0.91636   0.87144   0.00000  Uiso   1.00
C7     C     0.85381   0.98693   0.89701   0.00000  Uiso   1.00
C8     C     0.81924   0.01614   0.77919   0.00000  Uiso   1.00
C9     C     0.79684   0.08818   0.62464   0.00000  Uiso   1.00
C10    C     0.70525   0.87917   0.92007   0.00000  Uiso   1.00
C11    C     0.69054   0.91850   0.98651   0.00000  Uiso   1.00
C12    C     0.58131   0.91642   0.90961   0.00000  Uiso   1.00
C13    C     0.42121   0.93072   0.83057   0.00000  Uiso   1.00
C14    C     0.64944   0.80031   0.72982   0.00000  Uiso   1.00
C15    C     0.74648   0.73576   0.84915   0.00000  Uiso   1.00
C16    C     0.74858   0.64663   0.82884   0.00000  Uiso   1.00
C17    C     0.84520   0.59883   0.95194   0.00000  Uiso   1.00
C18    C     0.70277   0.87639   0.73310   0.00000  Uiso   1.00
C19    C     0.66810   0.90551   0.61521   0.00000  Uiso   1.00
C20    C     0.72791   0.97610   0.64059   0.00000  Uiso   1.00
C21    C     0.61408   0.83920   0.78173   0.00000  Uiso   1.00
C22    C     0.50485   0.83707   0.70471   0.00000  Uiso   1.00
C23    C     0.48998   0.87638   0.77101   0.00000  Uiso   1.00
H24    H     0.88826   0.90502   0.09223   0.00000  Uiso   1.00
H25    H     0.00482   0.75901   0.21769   0.00000  Uiso   1.00
H26    H     0.92435   0.01785   0.00408   0.00000  Uiso   1.00
H27    H     0.76111   0.94942   0.09357   0.00000  Uiso   1.00
H28    H     0.09386   0.57951   0.29577   0.00000  Uiso   1.00
H29    H     0.92415   0.12532   0.84535   0.00000  Uiso   1.00
H30    H     0.57994   0.98102   0.03405   0.00000  Uiso   1.00
H31    H     0.57846   0.76919   0.62210   0.00000  Uiso   1.00
H32    H     0.67801   0.61572   0.72177   0.00000  Uiso   1.00
H33    H     0.59755   0.87457   0.50816   0.00000  Uiso   1.00
H34    H     0.43431   0.80614   0.59765   0.00000  Uiso   1.00
H35    H     0.82862   0.46322   0.89326   0.00000  Uiso   1.00
H36    H     0.65891   0.00903   0.44284   0.00000  Uiso   1.00
H37    H     0.31470   0.86473   0.63154   0.00000  Uiso   1.00
O38    O     0.03234   0.42287   0.16855   0.00000  Uiso   1.00
O39    O     0.80968   0.13895   0.57762   0.00000  Uiso   1.00
O40    O     0.35809   0.94963   0.82519   0.00000  Uiso   1.00
N41    N     0.01776   0.57320   0.18736   0.00000  Uiso   1.00
N42    N     0.85911   0.08349   0.76626   0.00000  Uiso   1.00
N43    N     0.53730   0.94860   0.94266   0.00000  Uiso   1.00
N44    N     0.87503   0.51062   0.97078   0.00000  Uiso   1.00
N45    N     0.71638   0.02091   0.54967   0.00000  Uiso   1.00
N46    N     0.39457   0.88602   0.72607   0.00000  Uiso   1.00
C47    C     0.18272   0.37390   0.51548   0.00000  Uiso   1.00
C48    C     0.16235   0.27573   0.51250   0.00000  Uiso   1.00
C49    C     0.06572   0.22805   0.38935   0.00000  Uiso   1.00
C50    C     0.06347   0.13888   0.40947   0.00000  Uiso   1.00
C51    C     0.01796   0.99254   0.38382   0.00000  Uiso   1.00
C52    C     0.20606   0.41636   0.62856   0.00000  Uiso   1.00
C53    C     0.14619   0.48693   0.60299   0.00000  Uiso   1.00
C54    C     0.18076   0.51614   0.72081   0.00000  Uiso   1.00
C55    C     0.20316   0.58818   0.87536   0.00000  Uiso   1.00
C56    C     0.29475   0.37917   0.57993   0.00000  Uiso   1.00
C57    C     0.30946   0.41850   0.51349   0.00000  Uiso   1.00
C58    C     0.41869   0.41642   0.59039   0.00000  Uiso   1.00
C59    C     0.57879   0.43072   0.66943   0.00000  Uiso   1.00
C60    C     0.35056   0.30031   0.77018   0.00000  Uiso   1.00
C61    C     0.25352   0.23576   0.65085   0.00000  Uiso   1.00
C62    C     0.25142   0.14663   0.67116   0.00000  Uiso   1.00
C63    C     0.15480   0.09883   0.54806   0.00000  Uiso   1.00
C64    C     0.29723   0.37639   0.76690   0.00000  Uiso   1.00
C65    C     0.33190   0.40551   0.88479   0.00000  Uiso   1.00
C66    C     0.27209   0.47610   0.85941   0.00000  Uiso   1.00
C67    C     0.38592   0.33920   0.71827   0.00000  Uiso   1.00
C68    C     0.49515   0.33707   0.79529   0.00000  Uiso   1.00
C69    C     0.51002   0.37638   0.72899   0.00000  Uiso   1.00
H70    H     0.11174   0.40502   0.40777   0.00000  Uiso   1.00
H71    H     0.99518   0.25901   0.28231   0.00000  Uiso   1.00
H72    H     0.07565   0.51785   0.49592   0.00000  Uiso   1.00
H73    H     0.23889   0.44942   0.40643   0.00000  Uiso   1.00
H74    H     0.90614   0.07951   0.20423   0.00000  Uiso   1.00
H75    H     0.07585   0.62532   0.65465   0.00000  Uiso   1.00
H76    H     0.42006   0.48102   0.46595   0.00000  Uiso   1.00
H77    H     0.42154   0.26919   0.87790   0.00000  Uiso   1.00
H78    H     0.32199   0.11572   0.77823   0.00000  Uiso   1.00
H79    H     0.40245   0.37457   0.99184   0.00000  Uiso   1.00
H80    H     0.56569   0.30614   0.90235   0.00000  Uiso   1.00
H81    H     0.17138   0.96322   0.60674   0.00000  Uiso   1.00
H82    H     0.34109   0.50903   0.05716   0.00000  Uiso   1.00
H83    H     0.68530   0.36473   0.86846   0.00000  Uiso   1.00
O84    O     0.96766   0.92287   0.33145   0.00000  Uiso   1.00
O85    O     0.19032   0.63895   0.92238   0.00000  Uiso   1.00
O86    O     0.64191   0.44963   0.67481   0.00000  Uiso   1.00
N87    N     0.98224   0.07320   0.31264   0.00000  Uiso   1.00
N88    N     0.14089   0.58349   0.73374   0.00000  Uiso   1.00
N89    N     0.46270   0.44860   0.55734   0.00000  Uiso   1.00
N90    N     0.12497   0.01062   0.52922   0.00000  Uiso   1.00
N91    N     0.28362   0.52091   0.95033   0.00000  Uiso   1.00
N92    N     0.60543   0.38602   0.77393   0.00000  Uiso   1.00
C93    C     0.18272   0.12610   0.01548   0.00000  Uiso   1.00
C94    C     0.16235   0.22427   0.01250   0.00000  Uiso   1.00
C95    C     0.06572   0.27195   0.88935   0.00000  Uiso   1.00
C96    C     0.06347   0.36112   0.90947   0.00000  Uiso   1.00
C97    C     0.01796   0.50746   0.88382   0.00000  Uiso   1.00
C98    C     0.20606   0.08364   0.12856   0.00000  Uiso   1.00
C99    C     0.14619   0.01307   0.10299   0.00000  Uiso   1.00
C100   C     0.18076   0.98386   0.22081   0.00000  Uiso   1.00
C101   C     0.20316   0.91182   0.37536   0.00000  Uiso   1.00
C102   C     0.29475   0.12083   0.07993   0.00000  Uiso   1.00
C103   C     0.30946   0.08150   0.01349   0.00000  Uiso   1.00
C104   C     0.41869   0.08358   0.09039   0.00000  Uiso   1.00
C105   C     0.57879   0.06928   0.16943   0.00000  Uiso   1.00
C106   C     0.35056   0.19969   0.27018   0.00000  Uiso   1.00
C107   C     0.25352   0.26424   0.15085   0.00000  Uiso   1.00
C108   C     0.25142   0.35337   0.17116   0.00000  Uiso   1.00
C109   C     0.15480   0.40117   0.04806   0.00000  Uiso   1.00
C110   C     0.29723   0.12361   0.26690   0.00000  Uiso   1.00
C111   C     0.33190   0.09449   0.38479   0.00000  Uiso   1.00
C112   C     0.27209   0.02390   0.35941   0.00000  Uiso   1.00
C113   C     0.38592   0.16080   0.21827   0.00000  Uiso   1.00
C114   C     0.49515   0.16293   0.29529   0.00000  Uiso   1.00
C115   C     0.51002   0.12362   0.22899   0.00000  Uiso   1.00
H116   H     0.11174   0.09498   0.90777   0.00000  Uiso   1.00
H117   H     0.99518   0.24099   0.78231   0.00000  Uiso   1.00
H118   H     0.07565   0.98215   0.99592   0.00000  Uiso   1.00
H119   H     0.23889   0.05058   0.90643   0.00000  Uiso   1.00
H120   H     0.90614   0.42049   0.70423   0.00000  Uiso   1.00
H121   H     0.07585   0.87468   0.15465   0.00000  Uiso   1.00
H122   H     0.42006   0.01898   0.96595   0.00000  Uiso   1.00
H123   H     0.42154   0.23081   0.37790   0.00000  Uiso   1.00
H124   H     0.32199   0.38428   0.27823   0.00000  Uiso   1.00
H125   H     0.40245   0.12543   0.49184   0.00000  Uiso   1.00
H126   H     0.56569   0.19386   0.40235   0.00000  Uiso   1.00
H127   H     0.17138   0.53678   0.10674   0.00000  Uiso   1.00
H128   H     0.34109   0.99097   0.55716   0.00000  Uiso   1.00
H129   H     0.68530   0.13527   0.36846   0.00000  Uiso   1.00
O130   O     0.96766   0.57713   0.83145   0.00000  Uiso   1.00
O131   O     0.19032   0.86105   0.42238   0.00000  Uiso   1.00
O132   O     0.64191   0.05037   0.17481   0.00000  Uiso   1.00
N133   N     0.98224   0.42680   0.81264   0.00000  Uiso   1.00
N134   N     0.14089   0.91651   0.23374   0.00000  Uiso   1.00
N135   N     0.46270   0.05140   0.05734   0.00000  Uiso   1.00
N136   N     0.12497   0.48938   0.02922   0.00000  Uiso   1.00
N137   N     0.28362   0.97909   0.45033   0.00000  Uiso   1.00
N138   N     0.60543   0.11398   0.27393   0.00000  Uiso   1.00
C139   C     0.81728   0.62610   0.48452   0.00000  Uiso   1.00
C140   C     0.83765   0.72427   0.48750   0.00000  Uiso   1.00
C141   C     0.93428   0.77195   0.61065   0.00000  Uiso   1.00
C142   C     0.93653   0.86112   0.59053   0.00000  Uiso   1.00
C143   C     0.98204   0.00746   0.61618   0.00000  Uiso   1.00
C144   C     0.79394   0.58364   0.37144   0.00000  Uiso   1.00
C145   C     0.85381   0.51307   0.39701   0.00000  Uiso   1.00
C146   C     0.81924   0.48386   0.27919   0.00000  Uiso   1.00
C147   C     0.79684   0.41182   0.12464   0.00000  Uiso   1.00
C148   C     0.70525   0.62083   0.42007   0.00000  Uiso   1.00
C149   C     0.69054   0.58150   0.48651   0.00000  Uiso   1.00
C150   C     0.58131   0.58358   0.40961   0.00000  Uiso   1.00
C151   C     0.42121   0.56928   0.33057   0.00000  Uiso   1.00
C152   C     0.64944   0.69969   0.22982   0.00000  Uiso   1.00
C153   C     0.74648   0.76424   0.34915   0.00000  Uiso   1.00
C154   C     0.74858   0.85337   0.32884   0.00000  Uiso   1.00
C155   C     0.84520   0.90117   0.45194   0.00000  Uiso   1.00
C156   C     0.70277   0.62361   0.23310   0.00000  Uiso   1.00
C157   C     0.66810   0.59449   0.11521   0.00000  Uiso   1.00
C158   C     0.72791   0.52390   0.14059   0.00000  Uiso   1.00
C159   C     0.61408   0.66080   0.28173   0.00000  Uiso   1.00
C160   C     0.50485   0.66293   0.20471   0.00000  Uiso   1.00
C161   C     0.48998   0.62362   0.27101   0.00000  Uiso   1.00
H162   H     0.88826   0.59498   0.59223   0.00000  Uiso   1.00
H163   H     0.00482   0.74099   0.71769   0.00000  Uiso   1.00
H164   H     0.92435   0.48215   0.50408   0.00000  Uiso   1.00
H165   H     0.76111   0.55058   0.59357   0.00000  Uiso   1.00
H166   H     0.09386   0.92049   0.79577   0.00000  Uiso   1.00
H167   H     0.92415   0.37468   0.34535   0.00000  Uiso   1.00
H168   H     0.57994   0.51898   0.53405   0.00000  Uiso   1.00
H169   H     0.57846   0.73081   0.12210   0.00000  Uiso   1.00
H170   H     0.67801   0.88428   0.22177   0.00000  Uiso   1.00
H171   H     0.59755   0.62543   0.00816   0.00000  Uiso   1.00
H172   H     0.43431   0.69386   0.09765   0.00000  Uiso   1.00
H173   H     0.82862   0.03678   0.39326   0.00000  Uiso   1.00
H174   H     0.65891   0.49097   0.94284   0.00000  Uiso   1.00
H175   H     0.31470   0.63527   0.13154   0.00000  Uiso   1.00
O176   O     0.03234   0.07713   0.66855   0.00000  Uiso   1.00
O177   O     0.80968   0.36105   0.07762   0.00000  Uiso   1.00
O178   O     0.35809   0.55037   0.32519   0.00000  Uiso   1.00
N179   N     0.01776   0.92680   0.68736   0.00000  Uiso   1.00
N180   N     0.85911   0.41651   0.26626   0.00000  Uiso   1.00
N181   N     0.53730   0.55140   0.44266   0.00000  Uiso   1.00
N182   N     0.87503   0.98938   0.47078   0.00000  Uiso   1.00
N183   N     0.71638   0.47909   0.04967   0.00000  Uiso   1.00
N184   N     0.39457   0.61398   0.22607   0.00000  Uiso   1.00
