data_job_06083
_audit_creation_date              2018-12-19
_audit_creation_method            'Materials Studio'
_symmetry_space_group_name_H-M    'P1'
_symmetry_Int_Tables_number       1
_symmetry_cell_setting            triclinic
loop_
_symmetry_equiv_pos_as_xyz
  x,y,z
_cell_length_a                    15.4994
_cell_length_b                    15.3589
_cell_length_c                    15.1622
_cell_angle_alpha                 97.9233
_cell_angle_beta                  97.9082
_cell_angle_gamma                 97.7226
loop_
_atom_site_label
_atom_site_type_symbol
_atom_site_fract_x
_atom_site_fract_y
_atom_site_fract_z
_atom_site_U_iso_or_equiv
_atom_site_adp_type
_atom_site_occupancy
C1     C     0.35941   0.46038   0.77466   0.00000  Uiso   1.00
C2     C     0.31640   0.53748   0.81377   0.00000  Uiso   1.00
C3     C     0.35181   0.62701   0.82577   0.00000  Uiso   1.00
C4     C     0.30219   0.68727   0.86263   0.00000  Uiso   1.00
C5     C     0.24790   0.81128   0.91977   0.00000  Uiso   1.00
C6     C     0.36527   0.39914   0.84561   0.00000  Uiso   1.00
C7     C     0.44176   0.37236   0.88437   0.00000  Uiso   1.00
C8     C     0.43328   0.31617   0.94803   0.00000  Uiso   1.00
C9     C     0.45485   0.22537   0.05454   0.00000  Uiso   1.00
C10    C     0.29304   0.40877   0.69483   0.00000  Uiso   1.00
C11    C     0.30880   0.39006   0.60682   0.00000  Uiso   1.00
C12    C     0.23951   0.34196   0.54353   0.00000  Uiso   1.00
C13    C     0.14894   0.26611   0.41594   0.00000  Uiso   1.00
C14    C     0.20833   0.40820   0.81878   0.00000  Uiso   1.00
C15    C     0.23434   0.50913   0.83774   0.00000  Uiso   1.00
C16    C     0.18465   0.56928   0.87459   0.00000  Uiso   1.00
C17    C     0.21998   0.65888   0.88664   0.00000  Uiso   1.00
C18    C     0.28321   0.37080   0.86958   0.00000  Uiso   1.00
C19    C     0.27461   0.31463   0.93319   0.00000  Uiso   1.00
C20    C     0.35107   0.28777   0.97204   0.00000  Uiso   1.00
C21    C     0.21098   0.38043   0.71880   0.00000  Uiso   1.00
C22    C     0.14165   0.33234   0.65563   0.00000  Uiso   1.00
C23    C     0.15730   0.31357   0.56754   0.00000  Uiso   1.00
H24    H     0.42330   0.48244   0.75600   0.00000  Uiso   1.00
H25    H     0.41532   0.64891   0.80723   0.00000  Uiso   1.00
H26    H     0.50525   0.39430   0.86581   0.00000  Uiso   1.00
H27    H     0.37231   0.41201   0.58830   0.00000  Uiso   1.00
H28    H     0.37029   0.82097   0.87461   0.00000  Uiso   1.00
H29    H     0.55992   0.28408   0.99811   0.00000  Uiso   1.00
H30    H     0.27960   0.32142   0.41293   0.00000  Uiso   1.00
H31    H     0.14445   0.38613   0.83744   0.00000  Uiso   1.00
H32    H     0.12115   0.54732   0.89313   0.00000  Uiso   1.00
H33    H     0.21109   0.29271   0.95171   0.00000  Uiso   1.00
H34    H     0.07816   0.31042   0.67420   0.00000  Uiso   1.00
H35    H     0.13154   0.73852   0.94434   0.00000  Uiso   1.00
H36    H     0.32117   0.20162   0.06784   0.00000  Uiso   1.00
H37    H     0.04084   0.23897   0.48266   0.00000  Uiso   1.00
O38    O     0.24064   0.88752   0.94467   0.00000  Uiso   1.00
O39    O     0.48943   0.18312   0.10668   0.00000  Uiso   1.00
O40    O     0.12164   0.23212   0.33894   0.00000  Uiso   1.00
N41    N     0.31729   0.77945   0.88336   0.00000  Uiso   1.00
N42    N     0.49459   0.27750   0.99884   0.00000  Uiso   1.00
N43    N     0.23251   0.31239   0.45175   0.00000  Uiso   1.00
N44    N     0.18882   0.73508   0.92088   0.00000  Uiso   1.00
N45    N     0.36612   0.23313   0.03636   0.00000  Uiso   1.00
N46    N     0.10404   0.26802   0.48926   0.00000  Uiso   1.00
C47    C     0.77598   0.36070   0.46086   0.00000  Uiso   1.00
C48    C     0.81430   0.31736   0.53888   0.00000  Uiso   1.00
C49    C     0.82601   0.35322   0.62965   0.00000  Uiso   1.00
C50    C     0.86214   0.30318   0.69062   0.00000  Uiso   1.00
C51    C     0.91810   0.24851   0.81615   0.00000  Uiso   1.00
C52    C     0.84535   0.36637   0.39878   0.00000  Uiso   1.00
C53    C     0.88315   0.44345   0.37175   0.00000  Uiso   1.00
C54    C     0.94540   0.43467   0.31477   0.00000  Uiso   1.00
C55    C     0.04952   0.45609   0.22275   0.00000  Uiso   1.00
C56    C     0.69799   0.29377   0.40850   0.00000  Uiso   1.00
C57    C     0.61189   0.30981   0.38961   0.00000  Uiso   1.00
C58    C     0.55007   0.23991   0.34079   0.00000  Uiso   1.00
C59    C     0.42539   0.14860   0.26385   0.00000  Uiso   1.00
C60    C     0.81930   0.20806   0.40772   0.00000  Uiso   1.00
C61    C     0.83783   0.23445   0.51001   0.00000  Uiso   1.00
C62    C     0.87394   0.18434   0.57085   0.00000  Uiso   1.00
C63    C     0.88571   0.22012   0.66170   0.00000  Uiso   1.00
C64    C     0.86888   0.28347   0.36992   0.00000  Uiso   1.00
C65    C     0.93108   0.27457   0.31295   0.00000  Uiso   1.00
C66    C     0.96897   0.35161   0.28585   0.00000  Uiso   1.00
C67    C     0.72152   0.21086   0.37963   0.00000  Uiso   1.00
C68    C     0.65982   0.14093   0.33082   0.00000  Uiso   1.00
C69    C     0.57365   0.15685   0.31187   0.00000  Uiso   1.00
H70    H     0.75766   0.42525   0.48333   0.00000  Uiso   1.00
H71    H     0.80780   0.41739   0.65197   0.00000  Uiso   1.00
H72    H     0.86492   0.50760   0.39410   0.00000  Uiso   1.00
H73    H     0.59371   0.37398   0.41196   0.00000  Uiso   1.00
H74    H     0.87380   0.37212   0.82619   0.00000  Uiso   1.00
H75    H     0.99422   0.56234   0.28244   0.00000  Uiso   1.00
H76    H     0.42230   0.28057   0.32011   0.00000  Uiso   1.00
H77    H     0.83762   0.14351   0.38524   0.00000  Uiso   1.00
H78    H     0.89215   0.12018   0.54850   0.00000  Uiso   1.00
H79    H     0.94927   0.21040   0.29063   0.00000  Uiso   1.00
H80    H     0.67806   0.07678   0.30849   0.00000  Uiso   1.00
H81    H     0.94226   0.13090   0.74221   0.00000  Uiso   1.00
H82    H     0.06268   0.32112   0.19846   0.00000  Uiso   1.00
H83    H     0.49077   0.03935   0.23613   0.00000  Uiso   1.00
O84    O     0.94248   0.24126   0.89337   0.00000  Uiso   1.00
O85    O     0.10045   0.49082   0.17997   0.00000  Uiso   1.00
O86    O     0.35012   0.12114   0.22940   0.00000  Uiso   1.00
N87    N     0.88241   0.31854   0.78403   0.00000  Uiso   1.00
N88    N     0.99501   0.49639   0.27566   0.00000  Uiso   1.00
N89    N     0.46032   0.23296   0.31086   0.00000  Uiso   1.00
N90    N     0.91925   0.18874   0.73884   0.00000  Uiso   1.00
N91    N     0.03184   0.36659   0.23047   0.00000  Uiso   1.00
N92    N     0.49716   0.10316   0.26567   0.00000  Uiso   1.00
C93    C     0.46041   0.77543   0.36212   0.00000  Uiso   1.00
C94    C     0.53665   0.81389   0.31822   0.00000  Uiso   1.00
C95    C     0.62541   0.82560   0.35453   0.00000  Uiso   1.00
C96    C     0.68498   0.86186   0.30386   0.00000  Uiso   1.00
C97    C     0.80766   0.91801   0.24849   0.00000  Uiso   1.00
C98    C     0.39962   0.84556   0.36801   0.00000  Uiso   1.00
C99    C     0.37315   0.88390   0.44619   0.00000  Uiso   1.00
C100   C     0.31735   0.94681   0.43742   0.00000  Uiso   1.00
C101   C     0.22723   0.05209   0.45935   0.00000  Uiso   1.00
C102   C     0.40929   0.69670   0.29420   0.00000  Uiso   1.00
C103   C     0.39093   0.60987   0.31031   0.00000  Uiso   1.00
C104   C     0.34324   0.54745   0.23941   0.00000  Uiso   1.00
C105   C     0.26813   0.42161   0.14673   0.00000  Uiso   1.00
C106   C     0.40835   0.81898   0.20755   0.00000  Uiso   1.00
C107   C     0.50837   0.83754   0.23427   0.00000  Uiso   1.00
C108   C     0.56782   0.87379   0.18352   0.00000  Uiso   1.00
C109   C     0.65665   0.88555   0.21975   0.00000  Uiso   1.00
C110   C     0.37134   0.86922   0.28406   0.00000  Uiso   1.00
C111   C     0.31556   0.93208   0.27518   0.00000  Uiso   1.00
C112   C     0.28902   0.97051   0.35332   0.00000  Uiso   1.00
C113   C     0.38101   0.72035   0.21024   0.00000  Uiso   1.00
C114   C     0.33333   0.65806   0.13930   0.00000  Uiso   1.00
C115   C     0.31491   0.57115   0.15530   0.00000  Uiso   1.00
H116   H     0.48242   0.75702   0.42748   0.00000  Uiso   1.00
H117   H     0.64727   0.80729   0.41951   0.00000  Uiso   1.00
H118   H     0.39504   0.86557   0.51114   0.00000  Uiso   1.00
H119   H     0.41282   0.59159   0.37529   0.00000  Uiso   1.00
H120   H     0.81756   0.87350   0.37366   0.00000  Uiso   1.00
H121   H     0.28570   0.99635   0.56688   0.00000  Uiso   1.00
H122   H     0.32318   0.41862   0.28040   0.00000  Uiso   1.00
H123   H     0.38633   0.83740   0.14219   0.00000  Uiso   1.00
H124   H     0.54591   0.89209   0.11856   0.00000  Uiso   1.00
H125   H     0.29369   0.95037   0.21020   0.00000  Uiso   1.00
H126   H     0.31146   0.67639   0.07434   0.00000  Uiso   1.00
H127   H     0.73530   0.94233   0.12940   0.00000  Uiso   1.00
H128   H     0.20343   0.06518   0.32262   0.00000  Uiso   1.00
H129   H     0.24092   0.48744   0.03614   0.00000  Uiso   1.00
O130   O     0.88314   0.94247   0.24115   0.00000  Uiso   1.00
O131   O     0.18535   0.10363   0.49464   0.00000  Uiso   1.00
O132   O     0.23453   0.34565   0.11879   0.00000  Uiso   1.00
N133   N     0.77630   0.88218   0.31941   0.00000  Uiso   1.00
N134   N     0.27906   0.99705   0.50006   0.00000  Uiso   1.00
N135   N     0.31408   0.45692   0.23224   0.00000  Uiso   1.00
N136   N     0.73204   0.91921   0.18798   0.00000  Uiso   1.00
N137   N     0.23479   0.03408   0.36863   0.00000  Uiso   1.00
N138   N     0.26981   0.49395   0.10080   0.00000  Uiso   1.00
C139   C     0.64059   0.53962   0.22534   0.00000  Uiso   1.00
C140   C     0.68360   0.46252   0.18623   0.00000  Uiso   1.00
C141   C     0.64819   0.37299   0.17423   0.00000  Uiso   1.00
C142   C     0.69781   0.31273   0.13737   0.00000  Uiso   1.00
C143   C     0.75210   0.18872   0.08023   0.00000  Uiso   1.00
C144   C     0.63473   0.60086   0.15439   0.00000  Uiso   1.00
C145   C     0.55824   0.62764   0.11563   0.00000  Uiso   1.00
C146   C     0.56672   0.68383   0.05197   0.00000  Uiso   1.00
C147   C     0.54515   0.77464   0.94546   0.00000  Uiso   1.00
C148   C     0.70696   0.59123   0.30517   0.00000  Uiso   1.00
C149   C     0.69120   0.60994   0.39318   0.00000  Uiso   1.00
C150   C     0.76049   0.65804   0.45647   0.00000  Uiso   1.00
C151   C     0.85106   0.73389   0.58406   0.00000  Uiso   1.00
C152   C     0.79167   0.59180   0.18122   0.00000  Uiso   1.00
C153   C     0.76566   0.49087   0.16226   0.00000  Uiso   1.00
C154   C     0.81535   0.43072   0.12541   0.00000  Uiso   1.00
C155   C     0.78002   0.34112   0.11336   0.00000  Uiso   1.00
C156   C     0.71679   0.62920   0.13042   0.00000  Uiso   1.00
C157   C     0.72539   0.68537   0.06681   0.00000  Uiso   1.00
C158   C     0.64893   0.71223   0.02796   0.00000  Uiso   1.00
C159   C     0.78902   0.61957   0.28120   0.00000  Uiso   1.00
C160   C     0.85835   0.66766   0.34437   0.00000  Uiso   1.00
C161   C     0.84270   0.68643   0.43246   0.00000  Uiso   1.00
H162   H     0.57670   0.51756   0.24400   0.00000  Uiso   1.00
H163   H     0.58468   0.35109   0.19277   0.00000  Uiso   1.00
H164   H     0.49475   0.60570   0.13419   0.00000  Uiso   1.00
H165   H     0.62769   0.58799   0.41170   0.00000  Uiso   1.00
H166   H     0.62971   0.17903   0.12539   0.00000  Uiso   1.00
H167   H     0.44008   0.71592   0.00189   0.00000  Uiso   1.00
H168   H     0.72040   0.67858   0.58707   0.00000  Uiso   1.00
H169   H     0.85556   0.61387   0.16256   0.00000  Uiso   1.00
H170   H     0.87885   0.45268   0.10687   0.00000  Uiso   1.00
H171   H     0.78891   0.70729   0.04829   0.00000  Uiso   1.00
H172   H     0.92184   0.68958   0.32580   0.00000  Uiso   1.00
H173   H     0.86846   0.26148   0.05566   0.00000  Uiso   1.00
H174   H     0.67883   0.79838   0.93216   0.00000  Uiso   1.00
H175   H     0.95916   0.76103   0.51734   0.00000  Uiso   1.00
O176   O     0.75936   0.11248   0.05533   0.00000  Uiso   1.00
O177   O     0.51057   0.81688   0.89332   0.00000  Uiso   1.00
O178   O     0.87836   0.76789   0.66106   0.00000  Uiso   1.00
N179   N     0.68271   0.22055   0.11664   0.00000  Uiso   1.00
N180   N     0.50541   0.72250   0.00116   0.00000  Uiso   1.00
N181   N     0.76749   0.68762   0.54825   0.00000  Uiso   1.00
N182   N     0.81119   0.26492   0.07912   0.00000  Uiso   1.00
N183   N     0.63388   0.76687   0.96364   0.00000  Uiso   1.00
N184   N     0.89596   0.73198   0.51074   0.00000  Uiso   1.00
C185   C     0.22402   0.63930   0.53914   0.00000  Uiso   1.00
C186   C     0.18570   0.68264   0.46112   0.00000  Uiso   1.00
C187   C     0.17399   0.64678   0.37035   0.00000  Uiso   1.00
C188   C     0.13786   0.69682   0.30938   0.00000  Uiso   1.00
C189   C     0.08190   0.75149   0.18385   0.00000  Uiso   1.00
C190   C     0.15465   0.63363   0.60122   0.00000  Uiso   1.00
C191   C     0.11685   0.55655   0.62825   0.00000  Uiso   1.00
C192   C     0.05460   0.56533   0.68523   0.00000  Uiso   1.00
C193   C     0.95049   0.54391   0.77725   0.00000  Uiso   1.00
C194   C     0.30201   0.70623   0.59150   0.00000  Uiso   1.00
C195   C     0.38811   0.69019   0.61039   0.00000  Uiso   1.00
C196   C     0.44993   0.76009   0.65921   0.00000  Uiso   1.00
C197   C     0.57461   0.85140   0.73615   0.00000  Uiso   1.00
C198   C     0.18070   0.79194   0.59228   0.00000  Uiso   1.00
C199   C     0.16217   0.76555   0.48999   0.00000  Uiso   1.00
C200   C     0.12606   0.81566   0.42915   0.00000  Uiso   1.00
C201   C     0.11429   0.77988   0.33830   0.00000  Uiso   1.00
C202   C     0.13112   0.71653   0.63008   0.00000  Uiso   1.00
C203   C     0.06892   0.72543   0.68705   0.00000  Uiso   1.00
C204   C     0.03103   0.64839   0.71415   0.00000  Uiso   1.00
C205   C     0.27848   0.78914   0.62037   0.00000  Uiso   1.00
C206   C     0.34018   0.85907   0.66918   0.00000  Uiso   1.00
C207   C     0.42635   0.84315   0.68813   0.00000  Uiso   1.00
H208   H     0.24234   0.57475   0.51667   0.00000  Uiso   1.00
H209   H     0.19220   0.58261   0.34803   0.00000  Uiso   1.00
H210   H     0.13508   0.49240   0.60590   0.00000  Uiso   1.00
H211   H     0.40629   0.62602   0.58804   0.00000  Uiso   1.00
H212   H     0.12620   0.62788   0.17381   0.00000  Uiso   1.00
H213   H     0.00578   0.43766   0.71756   0.00000  Uiso   1.00
H214   H     0.57770   0.71943   0.67989   0.00000  Uiso   1.00
H215   H     0.16238   0.85649   0.61476   0.00000  Uiso   1.00
H216   H     0.10785   0.87982   0.45150   0.00000  Uiso   1.00
H217   H     0.05073   0.78960   0.70937   0.00000  Uiso   1.00
H218   H     0.32195   0.92322   0.69151   0.00000  Uiso   1.00
H219   H     0.05774   0.86910   0.25779   0.00000  Uiso   1.00
H220   H     0.93732   0.67888   0.80154   0.00000  Uiso   1.00
H221   H     0.50923   0.96066   0.76387   0.00000  Uiso   1.00
O222   O     0.05752   0.75874   0.10663   0.00000  Uiso   1.00
O223   O     0.89955   0.50918   0.82003   0.00000  Uiso   1.00
O224   O     0.64988   0.87886   0.77060   0.00000  Uiso   1.00
N225   N     0.11759   0.68146   0.21597   0.00000  Uiso   1.00
N226   N     0.00499   0.50361   0.72434   0.00000  Uiso   1.00
N227   N     0.53968   0.76704   0.68914   0.00000  Uiso   1.00
N228   N     0.08075   0.81126   0.26116   0.00000  Uiso   1.00
N229   N     0.96816   0.63341   0.76953   0.00000  Uiso   1.00
N230   N     0.50284   0.89684   0.73433   0.00000  Uiso   1.00
C231   C     0.53959   0.22457   0.63788   0.00000  Uiso   1.00
C232   C     0.46335   0.18611   0.68178   0.00000  Uiso   1.00
C233   C     0.37459   0.17440   0.64547   0.00000  Uiso   1.00
C234   C     0.31502   0.13814   0.69614   0.00000  Uiso   1.00
C235   C     0.19234   0.08199   0.75151   0.00000  Uiso   1.00
C236   C     0.60038   0.15444   0.63199   0.00000  Uiso   1.00
C237   C     0.62685   0.11610   0.55381   0.00000  Uiso   1.00
C238   C     0.68265   0.05319   0.56258   0.00000  Uiso   1.00
C239   C     0.77277   0.94791   0.54065   0.00000  Uiso   1.00
C240   C     0.59071   0.30330   0.70580   0.00000  Uiso   1.00
C241   C     0.60907   0.39013   0.68969   0.00000  Uiso   1.00
C242   C     0.65676   0.45255   0.76059   0.00000  Uiso   1.00
C243   C     0.73187   0.57839   0.85327   0.00000  Uiso   1.00
C244   C     0.59165   0.18102   0.79245   0.00000  Uiso   1.00
C245   C     0.49163   0.16246   0.76573   0.00000  Uiso   1.00
C246   C     0.43218   0.12621   0.81648   0.00000  Uiso   1.00
C247   C     0.34335   0.11445   0.78025   0.00000  Uiso   1.00
C248   C     0.62866   0.13078   0.71594   0.00000  Uiso   1.00
C249   C     0.68444   0.06792   0.72482   0.00000  Uiso   1.00
C250   C     0.71098   0.02949   0.64668   0.00000  Uiso   1.00
C251   C     0.61899   0.27965   0.78976   0.00000  Uiso   1.00
C252   C     0.66667   0.34194   0.86070   0.00000  Uiso   1.00
C253   C     0.68509   0.42885   0.84470   0.00000  Uiso   1.00
H254   H     0.51758   0.24298   0.57252   0.00000  Uiso   1.00
H255   H     0.35273   0.19271   0.58049   0.00000  Uiso   1.00
H256   H     0.60496   0.13443   0.48886   0.00000  Uiso   1.00
H257   H     0.58718   0.40841   0.62471   0.00000  Uiso   1.00
H258   H     0.18244   0.12650   0.62634   0.00000  Uiso   1.00
H259   H     0.71430   0.00365   0.43312   0.00000  Uiso   1.00
H260   H     0.67682   0.58138   0.71960   0.00000  Uiso   1.00
H261   H     0.61367   0.16260   0.85781   0.00000  Uiso   1.00
H262   H     0.45409   0.10791   0.88144   0.00000  Uiso   1.00
H263   H     0.70632   0.04963   0.78980   0.00000  Uiso   1.00
H264   H     0.68854   0.32361   0.92566   0.00000  Uiso   1.00
H265   H     0.26470   0.05767   0.87060   0.00000  Uiso   1.00
H266   H     0.79657   0.93482   0.67738   0.00000  Uiso   1.00
H267   H     0.75908   0.51256   0.96386   0.00000  Uiso   1.00
O268   O     0.11686   0.05754   0.75885   0.00000  Uiso   1.00
O269   O     0.81465   0.89637   0.50536   0.00000  Uiso   1.00
O270   O     0.76547   0.65435   0.88121   0.00000  Uiso   1.00
N271   N     0.22370   0.11782   0.68059   0.00000  Uiso   1.00
N272   N     0.72094   0.00295   0.49994   0.00000  Uiso   1.00
N273   N     0.68592   0.54308   0.76776   0.00000  Uiso   1.00
N274   N     0.26796   0.08079   0.81202   0.00000  Uiso   1.00
N275   N     0.76521   0.96592   0.63137   0.00000  Uiso   1.00
N276   N     0.73019   0.50605   0.89920   0.00000  Uiso   1.00
