data_job_00205
_audit_creation_date              2018-12-19
_audit_creation_method            'Materials Studio'
_symmetry_space_group_name_H-M    'P1'
_symmetry_Int_Tables_number       1
_symmetry_cell_setting            triclinic
loop_
_symmetry_equiv_pos_as_xyz
  x,y,z
_cell_length_a                    11.7816
_cell_length_b                    11.7816
_cell_length_c                    16.6834
_cell_angle_alpha                 90.0000
_cell_angle_beta                  90.0000
_cell_angle_gamma                 90.0000
loop_
_atom_site_label
_atom_site_type_symbol
_atom_site_fract_x
_atom_site_fract_y
_atom_site_fract_z
_atom_site_U_iso_or_equiv
_atom_site_adp_type
_atom_site_occupancy
C1     C     0.75091   0.09378   0.38481   0.00000  Uiso   1.00
C2     C     0.75339   0.19757   0.33022   0.00000  Uiso   1.00
C3     C     0.72246   0.19947   0.24997   0.00000  Uiso   1.00
C4     C     0.73076   0.30285   0.21045   0.00000  Uiso   1.00
C5     C     0.72890   0.44910   0.11969   0.00000  Uiso   1.00
C6     C     0.87088   0.08130   0.41797   0.00000  Uiso   1.00
C7     C     0.93872   0.98543   0.41150   0.00000  Uiso   1.00
C8     C     0.04591   0.99093   0.44586   0.00000  Uiso   1.00
C9     C     0.22643   0.95665   0.49138   0.00000  Uiso   1.00
C10    C     0.67627   0.12597   0.45593   0.00000  Uiso   1.00
C11    C     0.58049   0.06764   0.48140   0.00000  Uiso   1.00
C12    C     0.52385   0.11073   0.54774   0.00000  Uiso   1.00
C13    C     0.40220   0.14580   0.65220   0.00000  Uiso   1.00
C14    C     0.82065   0.27400   0.45734   0.00000  Uiso   1.00
C15    C     0.79128   0.29546   0.36962   0.00000  Uiso   1.00
C16    C     0.79962   0.39886   0.33021   0.00000  Uiso   1.00
C17    C     0.76870   0.40091   0.24992   0.00000  Uiso   1.00
C18    C     0.90876   0.17918   0.45736   0.00000  Uiso   1.00
C19    C     0.01588   0.18483   0.49175   0.00000  Uiso   1.00
C20    C     0.08386   0.08900   0.48533   0.00000  Uiso   1.00
C21    C     0.71414   0.22386   0.49533   0.00000  Uiso   1.00
C22    C     0.65765   0.26704   0.56164   0.00000  Uiso   1.00
C23    C     0.56180   0.20880   0.58720   0.00000  Uiso   1.00
H24    H     0.72143   0.01757   0.35414   0.00000  Uiso   1.00
H25    H     0.69316   0.12369   0.21950   0.00000  Uiso   1.00
H26    H     0.90938   0.90969   0.38102   0.00000  Uiso   1.00
H27    H     0.55120   0.99189   0.45090   0.00000  Uiso   1.00
H28    H     0.67856   0.28451   0.08760   0.00000  Uiso   1.00
H29    H     0.13446   0.83326   0.42818   0.00000  Uiso   1.00
H30    H     0.37918   0.00660   0.57555   0.00000  Uiso   1.00
H31    H     0.85015   0.35021   0.48801   0.00000  Uiso   1.00
H32    H     0.82894   0.47460   0.36072   0.00000  Uiso   1.00
H33    H     0.04516   0.26059   0.52223   0.00000  Uiso   1.00
H34    H     0.68698   0.34279   0.59211   0.00000  Uiso   1.00
H35    H     0.78877   0.56932   0.20221   0.00000  Uiso   1.00
H36    H     0.24467   0.11806   0.54280   0.00000  Uiso   1.00
H37    H     0.48938   0.29140   0.69017   0.00000  Uiso   1.00
O38    O     0.71743   0.50273   0.05874   0.00000  Uiso   1.00
O39    O     0.31553   0.91070   0.50559   0.00000  Uiso   1.00
O40    O     0.32462   0.13811   0.69893   0.00000  Uiso   1.00
N41    N     0.70739   0.33448   0.13204   0.00000  Uiso   1.00
N42    N     0.13363   0.91259   0.45046   0.00000  Uiso   1.00
N43    N     0.42752   0.07463   0.58825   0.00000  Uiso   1.00
N44    N     0.76669   0.48773   0.19372   0.00000  Uiso   1.00
N45    N     0.19293   0.06584   0.51214   0.00000  Uiso   1.00
N46    N     0.48682   0.22788   0.64992   0.00000  Uiso   1.00
C47    C     0.24909   0.90622   0.88481   0.00000  Uiso   1.00
C48    C     0.24661   0.80243   0.83022   0.00000  Uiso   1.00
C49    C     0.27754   0.80053   0.74997   0.00000  Uiso   1.00
C50    C     0.26924   0.69715   0.71045   0.00000  Uiso   1.00
C51    C     0.27110   0.55090   0.61969   0.00000  Uiso   1.00
C52    C     0.12912   0.91870   0.91797   0.00000  Uiso   1.00
C53    C     0.06128   0.01457   0.91150   0.00000  Uiso   1.00
C54    C     0.95409   0.00907   0.94586   0.00000  Uiso   1.00
C55    C     0.77357   0.04335   0.99138   0.00000  Uiso   1.00
C56    C     0.32373   0.87403   0.95593   0.00000  Uiso   1.00
C57    C     0.41951   0.93236   0.98140   0.00000  Uiso   1.00
C58    C     0.47615   0.88927   0.04774   0.00000  Uiso   1.00
C59    C     0.59780   0.85420   0.15220   0.00000  Uiso   1.00
C60    C     0.17935   0.72600   0.95734   0.00000  Uiso   1.00
C61    C     0.20872   0.70454   0.86962   0.00000  Uiso   1.00
C62    C     0.20038   0.60114   0.83021   0.00000  Uiso   1.00
C63    C     0.23130   0.59909   0.74992   0.00000  Uiso   1.00
C64    C     0.09124   0.82082   0.95736   0.00000  Uiso   1.00
C65    C     0.98412   0.81517   0.99175   0.00000  Uiso   1.00
C66    C     0.91614   0.91100   0.98533   0.00000  Uiso   1.00
C67    C     0.28586   0.77614   0.99533   0.00000  Uiso   1.00
C68    C     0.34235   0.73296   0.06164   0.00000  Uiso   1.00
C69    C     0.43820   0.79120   0.08720   0.00000  Uiso   1.00
H70    H     0.27857   0.98243   0.85414   0.00000  Uiso   1.00
H71    H     0.30684   0.87631   0.71950   0.00000  Uiso   1.00
H72    H     0.09062   0.09031   0.88102   0.00000  Uiso   1.00
H73    H     0.44880   0.00811   0.95090   0.00000  Uiso   1.00
H74    H     0.32144   0.71549   0.58760   0.00000  Uiso   1.00
H75    H     0.86554   0.16674   0.92818   0.00000  Uiso   1.00
H76    H     0.62082   0.99340   0.07555   0.00000  Uiso   1.00
H77    H     0.14985   0.64979   0.98801   0.00000  Uiso   1.00
H78    H     0.17106   0.52540   0.86072   0.00000  Uiso   1.00
H79    H     0.95484   0.73941   0.02223   0.00000  Uiso   1.00
H80    H     0.31302   0.65721   0.09211   0.00000  Uiso   1.00
H81    H     0.21123   0.43068   0.70221   0.00000  Uiso   1.00
H82    H     0.75533   0.88194   0.04280   0.00000  Uiso   1.00
H83    H     0.51062   0.70860   0.19017   0.00000  Uiso   1.00
O84    O     0.28257   0.49727   0.55874   0.00000  Uiso   1.00
O85    O     0.68447   0.08930   0.00559   0.00000  Uiso   1.00
O86    O     0.67538   0.86189   0.19893   0.00000  Uiso   1.00
N87    N     0.29261   0.66552   0.63204   0.00000  Uiso   1.00
N88    N     0.86637   0.08741   0.95046   0.00000  Uiso   1.00
N89    N     0.57248   0.92537   0.08825   0.00000  Uiso   1.00
N90    N     0.23331   0.51227   0.69372   0.00000  Uiso   1.00
N91    N     0.80707   0.93416   0.01214   0.00000  Uiso   1.00
N92    N     0.51318   0.77212   0.14992   0.00000  Uiso   1.00
C93    C     0.90622   0.75091   0.63481   0.00000  Uiso   1.00
C94    C     0.80243   0.75339   0.58022   0.00000  Uiso   1.00
C95    C     0.80053   0.72246   0.49997   0.00000  Uiso   1.00
C96    C     0.69715   0.73076   0.46045   0.00000  Uiso   1.00
C97    C     0.55090   0.72890   0.36969   0.00000  Uiso   1.00
C98    C     0.91870   0.87088   0.66797   0.00000  Uiso   1.00
C99    C     0.01457   0.93872   0.66150   0.00000  Uiso   1.00
C100   C     0.00907   0.04591   0.69586   0.00000  Uiso   1.00
C101   C     0.04335   0.22643   0.74138   0.00000  Uiso   1.00
C102   C     0.87403   0.67627   0.70593   0.00000  Uiso   1.00
C103   C     0.93236   0.58049   0.73140   0.00000  Uiso   1.00
C104   C     0.88927   0.52385   0.79774   0.00000  Uiso   1.00
C105   C     0.85420   0.40220   0.90220   0.00000  Uiso   1.00
C106   C     0.72600   0.82065   0.70734   0.00000  Uiso   1.00
C107   C     0.70454   0.79128   0.61962   0.00000  Uiso   1.00
C108   C     0.60114   0.79962   0.58021   0.00000  Uiso   1.00
C109   C     0.59909   0.76870   0.49992   0.00000  Uiso   1.00
C110   C     0.82082   0.90876   0.70736   0.00000  Uiso   1.00
C111   C     0.81517   0.01588   0.74175   0.00000  Uiso   1.00
C112   C     0.91100   0.08386   0.73533   0.00000  Uiso   1.00
C113   C     0.77614   0.71414   0.74533   0.00000  Uiso   1.00
C114   C     0.73296   0.65765   0.81164   0.00000  Uiso   1.00
C115   C     0.79120   0.56180   0.83720   0.00000  Uiso   1.00
H116   H     0.98243   0.72143   0.60414   0.00000  Uiso   1.00
H117   H     0.87631   0.69316   0.46950   0.00000  Uiso   1.00
H118   H     0.09031   0.90938   0.63102   0.00000  Uiso   1.00
H119   H     0.00811   0.55120   0.70090   0.00000  Uiso   1.00
H120   H     0.71549   0.67856   0.33760   0.00000  Uiso   1.00
H121   H     0.16674   0.13446   0.67818   0.00000  Uiso   1.00
H122   H     0.99340   0.37918   0.82555   0.00000  Uiso   1.00
H123   H     0.64979   0.85015   0.73801   0.00000  Uiso   1.00
H124   H     0.52540   0.82894   0.61072   0.00000  Uiso   1.00
H125   H     0.73941   0.04516   0.77223   0.00000  Uiso   1.00
H126   H     0.65721   0.68698   0.84211   0.00000  Uiso   1.00
H127   H     0.43068   0.78877   0.45221   0.00000  Uiso   1.00
H128   H     0.88194   0.24467   0.79280   0.00000  Uiso   1.00
H129   H     0.70860   0.48938   0.94017   0.00000  Uiso   1.00
O130   O     0.49727   0.71743   0.30874   0.00000  Uiso   1.00
O131   O     0.08930   0.31553   0.75559   0.00000  Uiso   1.00
O132   O     0.86189   0.32462   0.94893   0.00000  Uiso   1.00
N133   N     0.66552   0.70739   0.38204   0.00000  Uiso   1.00
N134   N     0.08741   0.13363   0.70046   0.00000  Uiso   1.00
N135   N     0.92537   0.42752   0.83825   0.00000  Uiso   1.00
N136   N     0.51227   0.76669   0.44372   0.00000  Uiso   1.00
N137   N     0.93416   0.19293   0.76214   0.00000  Uiso   1.00
N138   N     0.77212   0.48682   0.89992   0.00000  Uiso   1.00
C139   C     0.09378   0.24909   0.13481   0.00000  Uiso   1.00
C140   C     0.19757   0.24661   0.08022   0.00000  Uiso   1.00
C141   C     0.19947   0.27754   0.99997   0.00000  Uiso   1.00
C142   C     0.30285   0.26924   0.96045   0.00000  Uiso   1.00
C143   C     0.44910   0.27110   0.86969   0.00000  Uiso   1.00
C144   C     0.08130   0.12912   0.16797   0.00000  Uiso   1.00
C145   C     0.98543   0.06128   0.16150   0.00000  Uiso   1.00
C146   C     0.99093   0.95409   0.19586   0.00000  Uiso   1.00
C147   C     0.95665   0.77357   0.24138   0.00000  Uiso   1.00
C148   C     0.12597   0.32373   0.20593   0.00000  Uiso   1.00
C149   C     0.06764   0.41951   0.23140   0.00000  Uiso   1.00
C150   C     0.11073   0.47615   0.29774   0.00000  Uiso   1.00
C151   C     0.14580   0.59780   0.40220   0.00000  Uiso   1.00
C152   C     0.27400   0.17935   0.20734   0.00000  Uiso   1.00
C153   C     0.29546   0.20872   0.11962   0.00000  Uiso   1.00
C154   C     0.39886   0.20038   0.08021   0.00000  Uiso   1.00
C155   C     0.40091   0.23130   0.99992   0.00000  Uiso   1.00
C156   C     0.17918   0.09124   0.20736   0.00000  Uiso   1.00
C157   C     0.18483   0.98412   0.24175   0.00000  Uiso   1.00
C158   C     0.08900   0.91614   0.23533   0.00000  Uiso   1.00
C159   C     0.22386   0.28586   0.24533   0.00000  Uiso   1.00
C160   C     0.26704   0.34235   0.31164   0.00000  Uiso   1.00
C161   C     0.20880   0.43820   0.33720   0.00000  Uiso   1.00
H162   H     0.01757   0.27857   0.10414   0.00000  Uiso   1.00
H163   H     0.12369   0.30684   0.96950   0.00000  Uiso   1.00
H164   H     0.90969   0.09062   0.13102   0.00000  Uiso   1.00
H165   H     0.99189   0.44880   0.20090   0.00000  Uiso   1.00
H166   H     0.28451   0.32144   0.83760   0.00000  Uiso   1.00
H167   H     0.83326   0.86554   0.17818   0.00000  Uiso   1.00
H168   H     0.00660   0.62082   0.32555   0.00000  Uiso   1.00
H169   H     0.35021   0.14985   0.23801   0.00000  Uiso   1.00
H170   H     0.47460   0.17106   0.11072   0.00000  Uiso   1.00
H171   H     0.26059   0.95484   0.27223   0.00000  Uiso   1.00
H172   H     0.34279   0.31302   0.34211   0.00000  Uiso   1.00
H173   H     0.56932   0.21123   0.95221   0.00000  Uiso   1.00
H174   H     0.11806   0.75533   0.29280   0.00000  Uiso   1.00
H175   H     0.29140   0.51062   0.44017   0.00000  Uiso   1.00
O176   O     0.50273   0.28257   0.80874   0.00000  Uiso   1.00
O177   O     0.91070   0.68447   0.25559   0.00000  Uiso   1.00
O178   O     0.13811   0.67538   0.44893   0.00000  Uiso   1.00
N179   N     0.33448   0.29261   0.88204   0.00000  Uiso   1.00
N180   N     0.91259   0.86637   0.20046   0.00000  Uiso   1.00
N181   N     0.07463   0.57248   0.33825   0.00000  Uiso   1.00
N182   N     0.48773   0.23331   0.94372   0.00000  Uiso   1.00
N183   N     0.06584   0.80707   0.26214   0.00000  Uiso   1.00
N184   N     0.22788   0.51318   0.39992   0.00000  Uiso   1.00
