data_job_02073
_audit_creation_date              2018-12-19
_audit_creation_method            'Materials Studio'
_symmetry_space_group_name_H-M    'P1'
_symmetry_Int_Tables_number       1
_symmetry_cell_setting            triclinic
loop_
_symmetry_equiv_pos_as_xyz
  x,y,z
_cell_length_a                    15.0381
_cell_length_b                    15.0381
_cell_length_c                    17.6697
_cell_angle_alpha                 90.0000
_cell_angle_beta                  90.0000
_cell_angle_gamma                 120.0000
loop_
_atom_site_label
_atom_site_type_symbol
_atom_site_fract_x
_atom_site_fract_y
_atom_site_fract_z
_atom_site_U_iso_or_equiv
_atom_site_adp_type
_atom_site_occupancy
C1     C     0.49475   0.13856   0.74252   0.00000  Uiso   1.00
C2     C     0.58820   0.16390   0.79122   0.00000  Uiso   1.00
C3     C     0.66317   0.13883   0.77446   0.00000  Uiso   1.00
C4     C     0.74251   0.16883   0.82628   0.00000  Uiso   1.00
C5     C     0.88697   0.20005   0.89186   0.00000  Uiso   1.00
C6     C     0.40137   0.07818   0.79326   0.00000  Uiso   1.00
C7     C     0.31923   0.98103   0.77821   0.00000  Uiso   1.00
C8     C     0.24129   0.93889   0.83176   0.00000  Uiso   1.00
C9     C     0.09565   0.83704   0.90048   0.00000  Uiso   1.00
C10    C     0.49988   0.24069   0.72658   0.00000  Uiso   1.00
C11    C     0.50055   0.28017   0.65545   0.00000  Uiso   1.00
C12    C     0.50553   0.37484   0.65285   0.00000  Uiso   1.00
C13    C     0.51285   0.52531   0.61803   0.00000  Uiso   1.00
C14    C     0.50236   0.23646   0.86437   0.00000  Uiso   1.00
C15    C     0.59233   0.21707   0.85741   0.00000  Uiso   1.00
C16    C     0.67159   0.24714   0.90927   0.00000  Uiso   1.00
C17    C     0.74666   0.22211   0.89259   0.00000  Uiso   1.00
C18    C     0.40550   0.13135   0.85945   0.00000  Uiso   1.00
C19    C     0.32766   0.08934   0.91303   0.00000  Uiso   1.00
C20    C     0.24544   0.99215   0.89806   0.00000  Uiso   1.00
C21    C     0.50402   0.29386   0.79276   0.00000  Uiso   1.00
C22    C     0.50899   0.38848   0.79027   0.00000  Uiso   1.00
C23    C     0.50967   0.42811   0.71916   0.00000  Uiso   1.00
H24    H     0.49152   0.09716   0.69099   0.00000  Uiso   1.00
H25    H     0.65993   0.09767   0.72323   0.00000  Uiso   1.00
H26    H     0.31605   0.93991   0.72698   0.00000  Uiso   1.00
H27    H     0.49735   0.23900   0.60425   0.00000  Uiso   1.00
H28    H     0.84845   0.12164   0.78818   0.00000  Uiso   1.00
H29    H     0.12334   0.78901   0.79608   0.00000  Uiso   1.00
H30    H     0.50564   0.41971   0.53726   0.00000  Uiso   1.00
H31    H     0.50558   0.27786   0.91590   0.00000  Uiso   1.00
H32    H     0.67477   0.28828   0.96048   0.00000  Uiso   1.00
H33    H     0.33088   0.13052   0.96424   0.00000  Uiso   1.00
H34    H     0.51219   0.42961   0.84150   0.00000  Uiso   1.00
H35    H     0.86049   0.27635   0.98075   0.00000  Uiso   1.00
H36    H     0.13538   0.94371   0.98864   0.00000  Uiso   1.00
H37    H     0.51769   0.57441   0.72982   0.00000  Uiso   1.00
O38    O     0.96550   0.20256   0.90975   0.00000  Uiso   1.00
O39    O     0.01418   0.76617   0.92010   0.00000  Uiso   1.00
O40    O     0.51575   0.59363   0.58054   0.00000  Uiso   1.00
N41    N     0.82808   0.15664   0.82738   0.00000  Uiso   1.00
N42    N     0.15015   0.84564   0.83476   0.00000  Uiso   1.00
N43    N     0.50754   0.43528   0.59279   0.00000  Uiso   1.00
N44    N     0.83456   0.23989   0.93099   0.00000  Uiso   1.00
N45    N     0.15663   0.92889   0.93838   0.00000  Uiso   1.00
N46    N     0.51402   0.51853   0.69641   0.00000  Uiso   1.00
C47    C     0.13721   0.49623   0.25653   0.00000  Uiso   1.00
C48    C     0.16713   0.59033   0.20729   0.00000  Uiso   1.00
C49    C     0.14462   0.66751   0.22240   0.00000  Uiso   1.00
C50    C     0.17873   0.74708   0.17034   0.00000  Uiso   1.00
C51    C     0.21684   0.89283   0.10371   0.00000  Uiso   1.00
C52    C     0.07639   0.40331   0.20546   0.00000  Uiso   1.00
C53    C     0.97759   0.32323   0.21906   0.00000  Uiso   1.00
C54    C     0.93533   0.24536   0.16546   0.00000  Uiso   1.00
C55    C     0.83260   0.10071   0.09603   0.00000  Uiso   1.00
C56    C     0.23704   0.49785   0.27506   0.00000  Uiso   1.00
C57    C     0.27331   0.49723   0.34717   0.00000  Uiso   1.00
C58    C     0.36629   0.49893   0.35217   0.00000  Uiso   1.00
C59    C     0.51298   0.50108   0.39080   0.00000  Uiso   1.00
C60    C     0.23783   0.50032   0.13719   0.00000  Uiso   1.00
C61    C     0.22179   0.59255   0.14246   0.00000  Uiso   1.00
C62    C     0.25595   0.67203   0.09036   0.00000  Uiso   1.00
C63    C     0.23349   0.74931   0.10540   0.00000  Uiso   1.00
C64    C     0.13105   0.40552   0.14064   0.00000  Uiso   1.00
C65    C     0.08893   0.32775   0.08702   0.00000  Uiso   1.00
C66    C     0.99009   0.24758   0.10052   0.00000  Uiso   1.00
C67    C     0.29170   0.50007   0.21024   0.00000  Uiso   1.00
C68    C     0.38464   0.50176   0.21513   0.00000  Uiso   1.00
C69    C     0.42104   0.50116   0.28723   0.00000  Uiso   1.00
H70    H     0.09465   0.49450   0.30700   0.00000  Uiso   1.00
H71    H     0.10231   0.66576   0.27257   0.00000  Uiso   1.00
H72    H     0.93532   0.32153   0.26923   0.00000  Uiso   1.00
H73    H     0.23099   0.49551   0.39732   0.00000  Uiso   1.00
H74    H     0.13487   0.85659   0.20580   0.00000  Uiso   1.00
H75    H     0.78278   0.13075   0.19877   0.00000  Uiso   1.00
H76    H     0.40625   0.49762   0.46887   0.00000  Uiso   1.00
H77    H     0.28039   0.50204   0.08672   0.00000  Uiso   1.00
H78    H     0.29824   0.67372   0.04020   0.00000  Uiso   1.00
H79    H     0.13125   0.32949   0.03686   0.00000  Uiso   1.00
H80    H     0.42691   0.50348   0.16495   0.00000  Uiso   1.00
H81    H     0.29389   0.86306   0.01720   0.00000  Uiso   1.00
H82    H     0.94180   0.13721   0.01017   0.00000  Uiso   1.00
H83    H     0.56527   0.50409   0.28027   0.00000  Uiso   1.00
O84    O     0.22275   0.97261   0.08486   0.00000  Uiso   1.00
O85    O     0.76083   0.02032   0.07564   0.00000  Uiso   1.00
O86    O     0.57880   0.50166   0.43002   0.00000  Uiso   1.00
N87    N     0.16987   0.83456   0.16781   0.00000  Uiso   1.00
N88    N     0.84067   0.15595   0.16122   0.00000  Uiso   1.00
N89    N     0.42355   0.49892   0.41375   0.00000  Uiso   1.00
N90    N     0.25543   0.83804   0.06632   0.00000  Uiso   1.00
N91    N     0.92624   0.15943   0.05974   0.00000  Uiso   1.00
N92    N     0.50912   0.50240   0.31227   0.00000  Uiso   1.00
C93    C     0.86144   0.35618   0.40918   0.00000  Uiso   1.00
C94    C     0.83610   0.42430   0.45789   0.00000  Uiso   1.00
C95    C     0.86117   0.52434   0.44112   0.00000  Uiso   1.00
C96    C     0.83117   0.57368   0.49295   0.00000  Uiso   1.00
C97    C     0.79995   0.68692   0.55852   0.00000  Uiso   1.00
C98    C     0.92182   0.32319   0.45993   0.00000  Uiso   1.00
C99    C     0.01897   0.33820   0.44488   0.00000  Uiso   1.00
C100   C     0.06111   0.30241   0.49842   0.00000  Uiso   1.00
C101   C     0.16296   0.25861   0.56714   0.00000  Uiso   1.00
C102   C     0.75931   0.25919   0.39324   0.00000  Uiso   1.00
C103   C     0.71983   0.22038   0.32212   0.00000  Uiso   1.00
C104   C     0.62516   0.13069   0.31952   0.00000  Uiso   1.00
C105   C     0.47469   0.98753   0.28470   0.00000  Uiso   1.00
C106   C     0.76354   0.26590   0.53104   0.00000  Uiso   1.00
C107   C     0.78293   0.37526   0.52407   0.00000  Uiso   1.00
C108   C     0.75286   0.42446   0.57594   0.00000  Uiso   1.00
C109   C     0.77789   0.52455   0.55925   0.00000  Uiso   1.00
C110   C     0.86865   0.27415   0.52611   0.00000  Uiso   1.00
C111   C     0.91066   0.23832   0.57969   0.00000  Uiso   1.00
C112   C     0.00785   0.25328   0.56473   0.00000  Uiso   1.00
C113   C     0.70614   0.21015   0.45943   0.00000  Uiso   1.00
C114   C     0.61152   0.12050   0.45694   0.00000  Uiso   1.00
C115   C     0.57189   0.08157   0.38582   0.00000  Uiso   1.00
H116   H     0.90284   0.39436   0.35766   0.00000  Uiso   1.00
H117   H     0.90233   0.56227   0.38990   0.00000  Uiso   1.00
H118   H     0.06009   0.37614   0.39365   0.00000  Uiso   1.00
H119   H     0.76100   0.25835   0.27091   0.00000  Uiso   1.00
H120   H     0.87836   0.72681   0.45485   0.00000  Uiso   1.00
H121   H     0.21099   0.33434   0.46275   0.00000  Uiso   1.00
H122   H     0.58029   0.08594   0.20393   0.00000  Uiso   1.00
H123   H     0.72214   0.22772   0.58257   0.00000  Uiso   1.00
H124   H     0.71172   0.38649   0.62715   0.00000  Uiso   1.00
H125   H     0.86948   0.20037   0.63090   0.00000  Uiso   1.00
H126   H     0.57039   0.08257   0.50816   0.00000  Uiso   1.00
H127   H     0.72365   0.58415   0.64741   0.00000  Uiso   1.00
H128   H     0.05629   0.19167   0.65531   0.00000  Uiso   1.00
H129   H     0.42559   0.94327   0.39649   0.00000  Uiso   1.00
O130   O     0.79744   0.76294   0.57641   0.00000  Uiso   1.00
O131   O     0.23383   0.24801   0.58676   0.00000  Uiso   1.00
O132   O     0.40637   0.92212   0.24720   0.00000  Uiso   1.00
N133   N     0.84336   0.67144   0.49404   0.00000  Uiso   1.00
N134   N     0.15436   0.30451   0.50143   0.00000  Uiso   1.00
N135   N     0.56472   0.07227   0.25946   0.00000  Uiso   1.00
N136   N     0.76011   0.59467   0.59766   0.00000  Uiso   1.00
N137   N     0.07111   0.22775   0.60505   0.00000  Uiso   1.00
N138   N     0.48147   0.99550   0.36307   0.00000  Uiso   1.00
C139   C     0.50377   0.64098   0.92320   0.00000  Uiso   1.00
C140   C     0.40967   0.57680   0.87395   0.00000  Uiso   1.00
C141   C     0.33249   0.47711   0.88907   0.00000  Uiso   1.00
C142   C     0.25292   0.43165   0.83701   0.00000  Uiso   1.00
C143   C     0.10717   0.32400   0.77038   0.00000  Uiso   1.00
C144   C     0.59669   0.67309   0.87213   0.00000  Uiso   1.00
C145   C     0.67677   0.65437   0.88572   0.00000  Uiso   1.00
C146   C     0.75464   0.68997   0.83213   0.00000  Uiso   1.00
C147   C     0.89929   0.73189   0.76270   0.00000  Uiso   1.00
C148   C     0.50215   0.73919   0.94173   0.00000  Uiso   1.00
C149   C     0.50277   0.77607   0.01384   0.00000  Uiso   1.00
C150   C     0.50107   0.86735   0.01884   0.00000  Uiso   1.00
C151   C     0.49892   0.01190   0.05747   0.00000  Uiso   1.00
C152   C     0.49968   0.73752   0.80385   0.00000  Uiso   1.00
C153   C     0.40745   0.62924   0.80913   0.00000  Uiso   1.00
C154   C     0.32797   0.58392   0.75703   0.00000  Uiso   1.00
C155   C     0.25069   0.48418   0.77207   0.00000  Uiso   1.00
C156   C     0.59448   0.72552   0.80731   0.00000  Uiso   1.00
C157   C     0.67225   0.76118   0.75368   0.00000  Uiso   1.00
C158   C     0.75242   0.74251   0.76719   0.00000  Uiso   1.00
C159   C     0.49993   0.79163   0.87690   0.00000  Uiso   1.00
C160   C     0.49824   0.88288   0.88179   0.00000  Uiso   1.00
C161   C     0.49884   0.91989   0.95390   0.00000  Uiso   1.00
H162   H     0.50550   0.60015   0.97366   0.00000  Uiso   1.00
H163   H     0.33424   0.43655   0.93924   0.00000  Uiso   1.00
H164   H     0.67847   0.61379   0.93590   0.00000  Uiso   1.00
H165   H     0.50449   0.73547   0.06399   0.00000  Uiso   1.00
H166   H     0.14341   0.27828   0.87247   0.00000  Uiso   1.00
H167   H     0.86925   0.65203   0.86543   0.00000  Uiso   1.00
H168   H     0.50238   0.90863   0.13554   0.00000  Uiso   1.00
H169   H     0.49796   0.77834   0.75338   0.00000  Uiso   1.00
H170   H     0.32628   0.62452   0.70687   0.00000  Uiso   1.00
H171   H     0.67051   0.80176   0.70353   0.00000  Uiso   1.00
H172   H     0.49652   0.92344   0.83162   0.00000  Uiso   1.00
H173   H     0.13694   0.43084   0.68387   0.00000  Uiso   1.00
H174   H     0.86279   0.80459   0.67684   0.00000  Uiso   1.00
H175   H     0.49591   0.06118   0.94694   0.00000  Uiso   1.00
O176   O     0.02739   0.25014   0.75153   0.00000  Uiso   1.00
O177   O     0.97968   0.74050   0.74231   0.00000  Uiso   1.00
O178   O     0.49834   0.07714   0.09668   0.00000  Uiso   1.00
N179   N     0.16544   0.33530   0.83447   0.00000  Uiso   1.00
N180   N     0.84405   0.68472   0.82789   0.00000  Uiso   1.00
N181   N     0.50108   0.92463   0.08042   0.00000  Uiso   1.00
N182   N     0.16196   0.41739   0.73299   0.00000  Uiso   1.00
N183   N     0.84057   0.76681   0.72641   0.00000  Uiso   1.00
N184   N     0.49760   0.00672   0.97893   0.00000  Uiso   1.00
C185   C     0.64382   0.50525   0.07585   0.00000  Uiso   1.00
C186   C     0.57570   0.41180   0.12455   0.00000  Uiso   1.00
C187   C     0.47566   0.33683   0.10779   0.00000  Uiso   1.00
C188   C     0.42632   0.25749   0.15962   0.00000  Uiso   1.00
C189   C     0.31308   0.11303   0.22519   0.00000  Uiso   1.00
C190   C     0.67681   0.59863   0.12660   0.00000  Uiso   1.00
C191   C     0.66180   0.68077   0.11154   0.00000  Uiso   1.00
C192   C     0.69759   0.75871   0.16509   0.00000  Uiso   1.00
C193   C     0.74139   0.90435   0.23381   0.00000  Uiso   1.00
C194   C     0.74081   0.50012   0.05991   0.00000  Uiso   1.00
C195   C     0.77962   0.49945   0.98879   0.00000  Uiso   1.00
C196   C     0.86931   0.49447   0.98619   0.00000  Uiso   1.00
C197   C     0.01247   0.48715   0.95136   0.00000  Uiso   1.00
C198   C     0.73410   0.49764   0.19770   0.00000  Uiso   1.00
C199   C     0.62474   0.40767   0.19074   0.00000  Uiso   1.00
C200   C     0.57554   0.32841   0.24260   0.00000  Uiso   1.00
C201   C     0.47545   0.25334   0.22592   0.00000  Uiso   1.00
C202   C     0.72585   0.59450   0.19278   0.00000  Uiso   1.00
C203   C     0.76168   0.67234   0.24636   0.00000  Uiso   1.00
C204   C     0.74672   0.75456   0.23140   0.00000  Uiso   1.00
C205   C     0.78985   0.49598   0.12609   0.00000  Uiso   1.00
C206   C     0.87950   0.49101   0.12360   0.00000  Uiso   1.00
C207   C     0.91843   0.49033   0.05249   0.00000  Uiso   1.00
H208   H     0.60564   0.50848   0.02432   0.00000  Uiso   1.00
H209   H     0.43773   0.34007   0.05657   0.00000  Uiso   1.00
H210   H     0.62386   0.68395   0.06032   0.00000  Uiso   1.00
H211   H     0.74165   0.50265   0.93758   0.00000  Uiso   1.00
H212   H     0.27319   0.15155   0.12152   0.00000  Uiso   1.00
H213   H     0.66566   0.87666   0.12941   0.00000  Uiso   1.00
H214   H     0.91406   0.49436   0.87059   0.00000  Uiso   1.00
H215   H     0.77228   0.49442   0.24923   0.00000  Uiso   1.00
H216   H     0.61351   0.32523   0.29382   0.00000  Uiso   1.00
H217   H     0.79963   0.66912   0.29757   0.00000  Uiso   1.00
H218   H     0.91743   0.48781   0.17483   0.00000  Uiso   1.00
H219   H     0.41585   0.13951   0.31408   0.00000  Uiso   1.00
H220   H     0.80833   0.86462   0.32197   0.00000  Uiso   1.00
H221   H     0.05673   0.48231   0.06316   0.00000  Uiso   1.00
O222   O     0.23706   0.03450   0.24308   0.00000  Uiso   1.00
O223   O     0.75199   0.98582   0.25343   0.00000  Uiso   1.00
O224   O     0.07788   0.48425   0.91387   0.00000  Uiso   1.00
N225   N     0.32856   0.17192   0.16071   0.00000  Uiso   1.00
N226   N     0.69549   0.84985   0.16810   0.00000  Uiso   1.00
N227   N     0.92773   0.49246   0.92613   0.00000  Uiso   1.00
N228   N     0.40533   0.16544   0.26433   0.00000  Uiso   1.00
N229   N     0.77225   0.84337   0.27171   0.00000  Uiso   1.00
N230   N     0.00450   0.48598   0.02974   0.00000  Uiso   1.00
C231   C     0.35902   0.86279   0.58987   0.00000  Uiso   1.00
C232   C     0.42320   0.83287   0.54062   0.00000  Uiso   1.00
C233   C     0.52289   0.85538   0.55574   0.00000  Uiso   1.00
C234   C     0.56835   0.82127   0.50367   0.00000  Uiso   1.00
C235   C     0.67600   0.78316   0.43705   0.00000  Uiso   1.00
C236   C     0.32691   0.92361   0.53880   0.00000  Uiso   1.00
C237   C     0.34563   0.02241   0.55239   0.00000  Uiso   1.00
C238   C     0.31003   0.06467   0.49879   0.00000  Uiso   1.00
C239   C     0.26811   0.16740   0.42937   0.00000  Uiso   1.00
C240   C     0.26081   0.76296   0.60839   0.00000  Uiso   1.00
C241   C     0.22393   0.72669   0.68050   0.00000  Uiso   1.00
C242   C     0.13265   0.63371   0.68550   0.00000  Uiso   1.00
C243   C     0.98810   0.48702   0.72413   0.00000  Uiso   1.00
C244   C     0.26248   0.76217   0.47052   0.00000  Uiso   1.00
C245   C     0.37076   0.77821   0.47579   0.00000  Uiso   1.00
C246   C     0.41608   0.74405   0.42370   0.00000  Uiso   1.00
C247   C     0.51582   0.76651   0.43873   0.00000  Uiso   1.00
C248   C     0.27448   0.86895   0.47397   0.00000  Uiso   1.00
C249   C     0.23882   0.91107   0.42035   0.00000  Uiso   1.00
C250   C     0.25749   0.00991   0.43385   0.00000  Uiso   1.00
C251   C     0.20837   0.70830   0.54357   0.00000  Uiso   1.00
C252   C     0.11712   0.61536   0.54846   0.00000  Uiso   1.00
C253   C     0.08011   0.57896   0.62056   0.00000  Uiso   1.00
H254   H     0.39985   0.90535   0.64033   0.00000  Uiso   1.00
H255   H     0.56345   0.89769   0.60590   0.00000  Uiso   1.00
H256   H     0.38621   0.06468   0.60256   0.00000  Uiso   1.00
H257   H     0.26453   0.76901   0.73065   0.00000  Uiso   1.00
H258   H     0.72172   0.86513   0.53913   0.00000  Uiso   1.00
H259   H     0.34797   0.21722   0.53210   0.00000  Uiso   1.00
H260   H     0.09137   0.59375   0.80221   0.00000  Uiso   1.00
H261   H     0.22166   0.71961   0.42005   0.00000  Uiso   1.00
H262   H     0.37548   0.70176   0.37354   0.00000  Uiso   1.00
H263   H     0.19824   0.86875   0.37019   0.00000  Uiso   1.00
H264   H     0.07656   0.57309   0.49828   0.00000  Uiso   1.00
H265   H     0.56916   0.70611   0.35053   0.00000  Uiso   1.00
H266   H     0.19541   0.05820   0.34350   0.00000  Uiso   1.00
H267   H     0.93882   0.43473   0.61361   0.00000  Uiso   1.00
O268   O     0.74986   0.77725   0.41820   0.00000  Uiso   1.00
O269   O     0.25950   0.23917   0.40898   0.00000  Uiso   1.00
O270   O     0.92286   0.42120   0.76335   0.00000  Uiso   1.00
N271   N     0.66470   0.83013   0.50114   0.00000  Uiso   1.00
N272   N     0.31528   0.15933   0.49456   0.00000  Uiso   1.00
N273   N     0.07537   0.57645   0.74708   0.00000  Uiso   1.00
N274   N     0.58261   0.74457   0.39966   0.00000  Uiso   1.00
N275   N     0.23319   0.07376   0.39307   0.00000  Uiso   1.00
N276   N     0.99328   0.49088   0.64560   0.00000  Uiso   1.00
