data_job_06816
_audit_creation_date              2018-12-19
_audit_creation_method            'Materials Studio'
_symmetry_space_group_name_H-M    'P1'
_symmetry_Int_Tables_number       1
_symmetry_cell_setting            triclinic
loop_
_symmetry_equiv_pos_as_xyz
  x,y,z
_cell_length_a                    18.5598
_cell_length_b                    20.8898
_cell_length_c                    20.9366
_cell_angle_alpha                 75.9177
_cell_angle_beta                  108.1286
_cell_angle_gamma                 107.9927
loop_
_atom_site_label
_atom_site_type_symbol
_atom_site_fract_x
_atom_site_fract_y
_atom_site_fract_z
_atom_site_U_iso_or_equiv
_atom_site_adp_type
_atom_site_occupancy
C1     C     0.28320   0.56512   0.25776   0.00000  Uiso   1.00
C2     C     0.19501   0.53488   0.23538   0.00000  Uiso   1.00
C3     C     0.14130   0.52899   0.27143   0.00000  Uiso   1.00
C4     C     0.06323   0.49986   0.24231   0.00000  Uiso   1.00
C5     C     0.92987   0.45628   0.21715   0.00000  Uiso   1.00
C6     C     0.32137   0.50992   0.25828   0.00000  Uiso   1.00
C7     C     0.37390   0.48304   0.31359   0.00000  Uiso   1.00
C8     C     0.40220   0.43291   0.30375   0.00000  Uiso   1.00
C9     C     0.46505   0.35061   0.31413   0.00000  Uiso   1.00
C10    C     0.30365   0.62229   0.20024   0.00000  Uiso   1.00
C11    C     0.34131   0.68989   0.20674   0.00000  Uiso   1.00
C12    C     0.35472   0.73436   0.14802   0.00000  Uiso   1.00
C13    C     0.39006   0.82654   0.06828   0.00000  Uiso   1.00
C14    C     0.24006   0.52388   0.14192   0.00000  Uiso   1.00
C15    C     0.17158   0.51248   0.17246   0.00000  Uiso   1.00
C16    C     0.09357   0.48335   0.14327   0.00000  Uiso   1.00
C17    C     0.03976   0.47742   0.17928   0.00000  Uiso   1.00
C18    C     0.29793   0.48752   0.19537   0.00000  Uiso   1.00
C19    C     0.32617   0.43741   0.18543   0.00000  Uiso   1.00
C20    C     0.37873   0.41046   0.24071   0.00000  Uiso   1.00
C21    C     0.28022   0.59989   0.13731   0.00000  Uiso   1.00
C22    C     0.29357   0.64426   0.07858   0.00000  Uiso   1.00
C23    C     0.33124   0.71192   0.08499   0.00000  Uiso   1.00
H24    H     0.30144   0.58256   0.30674   0.00000  Uiso   1.00
H25    H     0.15946   0.54633   0.32013   0.00000  Uiso   1.00
H26    H     0.39203   0.50040   0.36228   0.00000  Uiso   1.00
H27    H     0.35944   0.70721   0.25544   0.00000  Uiso   1.00
H28    H     0.99172   0.49625   0.30723   0.00000  Uiso   1.00
H29    H     0.48212   0.39942   0.39610   0.00000  Uiso   1.00
H30    H     0.41340   0.83553   0.17081   0.00000  Uiso   1.00
H31    H     0.22181   0.50643   0.09293   0.00000  Uiso   1.00
H32    H     0.07545   0.46602   0.09458   0.00000  Uiso   1.00
H33    H     0.30803   0.42009   0.13673   0.00000  Uiso   1.00
H34    H     0.27543   0.62690   0.02990   0.00000  Uiso   1.00
H35    H     0.92354   0.43107   0.12417   0.00000  Uiso   1.00
H36    H     0.41394   0.33424   0.21304   0.00000  Uiso   1.00
H37    H     0.34522   0.77035   0.98775   0.00000  Uiso   1.00
O38    O     0.86279   0.43843   0.22066   0.00000  Uiso   1.00
O39    O     0.50619   0.31140   0.33724   0.00000  Uiso   1.00
O40    O     0.41602   0.88357   0.04167   0.00000  Uiso   1.00
N41    N     0.99575   0.48647   0.26392   0.00000  Uiso   1.00
N42    N     0.45424   0.39593   0.34700   0.00000  Uiso   1.00
N43    N     0.39001   0.80365   0.13638   0.00000  Uiso   1.00
N44    N     0.95907   0.45140   0.16541   0.00000  Uiso   1.00
N45    N     0.41755   0.36086   0.24850   0.00000  Uiso   1.00
N46    N     0.35332   0.76858   0.03788   0.00000  Uiso   1.00
C47    C     0.34120   0.28537   0.50005   0.00000  Uiso   1.00
C48    C     0.25248   0.25956   0.47559   0.00000  Uiso   1.00
C49    C     0.20399   0.29139   0.42074   0.00000  Uiso   1.00
C50    C     0.12441   0.25963   0.40657   0.00000  Uiso   1.00
C51    C     0.99120   0.22891   0.36262   0.00000  Uiso   1.00
C52    C     0.35825   0.29134   0.57477   0.00000  Uiso   1.00
C53    C     0.39869   0.34990   0.60331   0.00000  Uiso   1.00
C54    C     0.40815   0.34490   0.67264   0.00000  Uiso   1.00
C55    C     0.43919   0.36351   0.78268   0.00000  Uiso   1.00
C56    C     0.37511   0.22776   0.49941   0.00000  Uiso   1.00
C57    C     0.42974   0.23286   0.46461   0.00000  Uiso   1.00
C58    C     0.45341   0.17432   0.47051   0.00000  Uiso   1.00
C59    C     0.51063   0.09422   0.46354   0.00000  Uiso   1.00
C60    C     0.28609   0.17236   0.57244   0.00000  Uiso   1.00
C61    C     0.22255   0.19818   0.51491   0.00000  Uiso   1.00
C62    C     0.14302   0.16636   0.50082   0.00000  Uiso   1.00
C63    C     0.09442   0.19814   0.44596   0.00000  Uiso   1.00
C64    C     0.32832   0.22997   0.61409   0.00000  Uiso   1.00
C65    C     0.33772   0.22487   0.68339   0.00000  Uiso   1.00
C66    C     0.37816   0.28341   0.71203   0.00000  Uiso   1.00
C67    C     0.34517   0.16638   0.53873   0.00000  Uiso   1.00
C68    C     0.36877   0.10783   0.54469   0.00000  Uiso   1.00
C69    C     0.42342   0.11283   0.50989   0.00000  Uiso   1.00
H70    H     0.36451   0.33316   0.46945   0.00000  Uiso   1.00
H71    H     0.22718   0.33889   0.39033   0.00000  Uiso   1.00
H72    H     0.42186   0.39739   0.57287   0.00000  Uiso   1.00
H73    H     0.45289   0.28037   0.43419   0.00000  Uiso   1.00
H74    H     0.06172   0.31820   0.31996   0.00000  Uiso   1.00
H75    H     0.47223   0.44154   0.70487   0.00000  Uiso   1.00
H76    H     0.53769   0.19477   0.41243   0.00000  Uiso   1.00
H77    H     0.26279   0.12457   0.60305   0.00000  Uiso   1.00
H78    H     0.11987   0.11886   0.53126   0.00000  Uiso   1.00
H79    H     0.31455   0.17736   0.71380   0.00000  Uiso   1.00
H80    H     0.34559   0.06034   0.57512   0.00000  Uiso   1.00
H81    H     0.97462   0.13961   0.43434   0.00000  Uiso   1.00
H82    H     0.38514   0.26296   0.81926   0.00000  Uiso   1.00
H83    H     0.45060   0.01619   0.52681   0.00000  Uiso   1.00
O84    O     0.92599   0.22892   0.32753   0.00000  Uiso   1.00
O85    O     0.46458   0.39075   0.83252   0.00000  Uiso   1.00
O86    O     0.55045   0.06699   0.44883   0.00000  Uiso   1.00
N87    N     0.06083   0.27694   0.35672   0.00000  Uiso   1.00
N88    N     0.44463   0.39227   0.71659   0.00000  Uiso   1.00
N89    N     0.50584   0.16156   0.44320   0.00000  Uiso   1.00
N90    N     0.01397   0.18085   0.41827   0.00000  Uiso   1.00
N91    N     0.39777   0.29617   0.77814   0.00000  Uiso   1.00
N92    N     0.45898   0.06547   0.50474   0.00000  Uiso   1.00
C93    C     0.30468   0.53963   0.52615   0.00000  Uiso   1.00
C94    C     0.21679   0.51502   0.49575   0.00000  Uiso   1.00
C95    C     0.17885   0.45362   0.47187   0.00000  Uiso   1.00
C96    C     0.09812   0.44054   0.44595   0.00000  Uiso   1.00
C97    C     0.96792   0.39524   0.39901   0.00000  Uiso   1.00
C98    C     0.33134   0.60866   0.48363   0.00000  Uiso   1.00
C99    C     0.38972   0.62599   0.44958   0.00000  Uiso   1.00
C100   C     0.40541   0.69174   0.41346   0.00000  Uiso   1.00
C101   C     0.45309   0.79184   0.34775   0.00000  Uiso   1.00
C102   C     0.31390   0.55411   0.59661   0.00000  Uiso   1.00
C103   C     0.35763   0.52559   0.65755   0.00000  Uiso   1.00
C104   C     0.35866   0.54543   0.71655   0.00000  Uiso   1.00
C105   C     0.37926   0.56084   0.82626   0.00000  Uiso   1.00
C106   C     0.22876   0.62559   0.52257   0.00000  Uiso   1.00
C107   C     0.17556   0.56171   0.49380   0.00000  Uiso   1.00
C108   C     0.09486   0.54872   0.46791   0.00000  Uiso   1.00
C109   C     0.05681   0.48731   0.44400   0.00000  Uiso   1.00
C110   C     0.29010   0.65535   0.48168   0.00000  Uiso   1.00
C111   C     0.30572   0.72110   0.44561   0.00000  Uiso   1.00
C112   C     0.36410   0.73852   0.41151   0.00000  Uiso   1.00
C113   C     0.27266   0.60080   0.59466   0.00000  Uiso   1.00
C114   C     0.27363   0.62070   0.65358   0.00000  Uiso   1.00
C115   C     0.31735   0.59221   0.71460   0.00000  Uiso   1.00
H116   H     0.33679   0.50328   0.52766   0.00000  Uiso   1.00
H117   H     0.21079   0.41750   0.47338   0.00000  Uiso   1.00
H118   H     0.42162   0.58985   0.45110   0.00000  Uiso   1.00
H119   H     0.38953   0.48946   0.65903   0.00000  Uiso   1.00
H120   H     0.05291   0.34300   0.41232   0.00000  Uiso   1.00
H121   H     0.49748   0.70641   0.36535   0.00000  Uiso   1.00
H122   H     0.42982   0.49473   0.80383   0.00000  Uiso   1.00
H123   H     0.19666   0.66194   0.52105   0.00000  Uiso   1.00
H124   H     0.06296   0.58487   0.46641   0.00000  Uiso   1.00
H125   H     0.27380   0.75722   0.44412   0.00000  Uiso   1.00
H126   H     0.24171   0.65683   0.65206   0.00000  Uiso   1.00
H127   H     0.93293   0.47884   0.40666   0.00000  Uiso   1.00
H128   H     0.37751   0.84226   0.35969   0.00000  Uiso   1.00
H129   H     0.30984   0.63058   0.79817   0.00000  Uiso   1.00
O130   O     0.90750   0.35737   0.37364   0.00000  Uiso   1.00
O131   O     0.49078   0.83415   0.31203   0.00000  Uiso   1.00
O132   O     0.40200   0.55643   0.88730   0.00000  Uiso   1.00
N133   N     0.04302   0.38554   0.41850   0.00000  Uiso   1.00
N134   N     0.45866   0.72531   0.37458   0.00000  Uiso   1.00
N135   N     0.39542   0.52742   0.78452   0.00000  Uiso   1.00
N136   N     0.97846   0.45864   0.41545   0.00000  Uiso   1.00
N137   N     0.39410   0.79840   0.37153   0.00000  Uiso   1.00
N138   N     0.33086   0.60052   0.78147   0.00000  Uiso   1.00
C139   C     0.87381   0.98252   0.80785   0.00000  Uiso   1.00
C140   C     0.78740   0.94431   0.79253   0.00000  Uiso   1.00
C141   C     0.75381   0.88585   0.83211   0.00000  Uiso   1.00
C142   C     0.67374   0.85862   0.80939   0.00000  Uiso   1.00
C143   C     0.54638   0.79471   0.79477   0.00000  Uiso   1.00
C144   C     0.87635   0.05571   0.80977   0.00000  Uiso   1.00
C145   C     0.91756   0.09090   0.86385   0.00000  Uiso   1.00
C146   C     0.91237   0.15746   0.85564   0.00000  Uiso   1.00
C147   C     0.92315   0.26651   0.86778   0.00000  Uiso   1.00
C148   C     0.90116   0.98567   0.74535   0.00000  Uiso   1.00
C149   C     0.96324   0.96200   0.74526   0.00000  Uiso   1.00
C150   C     0.97896   0.96960   0.68280   0.00000  Uiso   1.00
C151   C     0.02827   0.96991   0.59491   0.00000  Uiso   1.00
C152   C     0.79136   0.03815   0.69710   0.00000  Uiso   1.00
C153   C     0.74262   0.97453   0.73238   0.00000  Uiso   1.00
C154   C     0.66258   0.94739   0.70959   0.00000  Uiso   1.00
C155   C     0.62888   0.88889   0.74913   0.00000  Uiso   1.00
C156   C     0.83157   0.08592   0.74962   0.00000  Uiso   1.00
C157   C     0.82633   0.15244   0.74133   0.00000  Uiso   1.00
C158   C     0.86751   0.18773   0.79538   0.00000  Uiso   1.00
C159   C     0.85638   0.01589   0.68519   0.00000  Uiso   1.00
C160   C     0.87201   0.02354   0.62273   0.00000  Uiso   1.00
C161   C     0.93410   0.99987   0.62254   0.00000  Uiso   1.00
H162   H     0.90868   0.95901   0.85468   0.00000  Uiso   1.00
H163   H     0.78849   0.86248   0.87867   0.00000  Uiso   1.00
H164   H     0.95221   0.06751   0.91040   0.00000  Uiso   1.00
H165   H     0.99789   0.93862   0.79181   0.00000  Uiso   1.00
H166   H     0.63548   0.76881   0.87874   0.00000  Uiso   1.00
H167   H     0.98072   0.20112   0.94564   0.00000  Uiso   1.00
H168   H     0.07704   0.92934   0.69559   0.00000  Uiso   1.00
H169   H     0.75649   0.06168   0.65027   0.00000  Uiso   1.00
H170   H     0.62794   0.97078   0.66303   0.00000  Uiso   1.00
H171   H     0.79167   0.17581   0.69477   0.00000  Uiso   1.00
H172   H     0.83734   0.04692   0.57619   0.00000  Uiso   1.00
H173   H     0.50517   0.85671   0.70373   0.00000  Uiso   1.00
H174   H     0.85042   0.28903   0.77063   0.00000  Uiso   1.00
H175   H     0.94674   0.01724   0.52058   0.00000  Uiso   1.00
O176   O     0.48851   0.75112   0.80334   0.00000  Uiso   1.00
O177   O     0.94147   0.31831   0.89110   0.00000  Uiso   1.00
O178   O     0.06783   0.96173   0.56304   0.00000  Uiso   1.00
N179   N     0.62245   0.80196   0.83579   0.00000  Uiso   1.00
N180   N     0.94523   0.20615   0.89835   0.00000  Uiso   1.00
N181   N     0.03529   0.95207   0.66457   0.00000  Uiso   1.00
N182   N     0.55234   0.84926   0.74162   0.00000  Uiso   1.00
N183   N     0.87511   0.25344   0.80417   0.00000  Uiso   1.00
N184   N     0.96518   0.99936   0.57040   0.00000  Uiso   1.00
C185   C     0.80075   0.02907   0.03445   0.00000  Uiso   1.00
C186   C     0.71397   0.99848   0.00456   0.00000  Uiso   1.00
C187   C     0.68154   0.97652   0.94187   0.00000  Uiso   1.00
C188   C     0.60089   0.95005   0.92375   0.00000  Uiso   1.00
C189   C     0.47322   0.90318   0.87080   0.00000  Uiso   1.00
C190   C     0.82327   0.98483   0.10337   0.00000  Uiso   1.00
C191   C     0.88275   0.95140   0.12377   0.00000  Uiso   1.00
C192   C     0.89411   0.91345   0.18884   0.00000  Uiso   1.00
C193   C     0.93618   0.84542   0.28932   0.00000  Uiso   1.00
C194   C     0.80637   0.09843   0.04976   0.00000  Uiso   1.00
C195   C     0.85164   0.16053   0.02510   0.00000  Uiso   1.00
C196   C     0.84879   0.21822   0.04504   0.00000  Uiso   1.00
C197   C     0.86460   0.32659   0.06228   0.00000  Uiso   1.00
C198   C     0.71519   0.02111   0.11374   0.00000  Uiso   1.00
C199   C     0.66750   0.99415   0.04763   0.00000  Uiso   1.00
C200   C     0.58688   0.96772   0.02959   0.00000  Uiso   1.00
C201   C     0.55433   0.94572   0.96689   0.00000  Uiso   1.00
C202   C     0.77680   0.98050   0.14644   0.00000  Uiso   1.00
C203   C     0.78809   0.94259   0.21149   0.00000  Uiso   1.00
C204   C     0.84756   0.90912   0.23198   0.00000  Uiso   1.00
C205   C     0.75989   0.09411   0.09283   0.00000  Uiso   1.00
C206   C     0.75697   0.15172   0.11282   0.00000  Uiso   1.00
C207   C     0.80223   0.21389   0.08819   0.00000  Uiso   1.00
H208   H     0.83693   0.03243   0.00093   0.00000  Uiso   1.00
H209   H     0.71753   0.97987   0.90856   0.00000  Uiso   1.00
H210   H     0.91871   0.95476   0.09044   0.00000  Uiso   1.00
H211   H     0.88760   0.16385   0.99178   0.00000  Uiso   1.00
H212   H     0.56465   0.91967   0.82516   0.00000  Uiso   1.00
H213   H     0.98887   0.86674   0.20866   0.00000  Uiso   1.00
H214   H     0.92327   0.30766   0.00062   0.00000  Uiso   1.00
H215   H     0.67901   0.01774   0.14727   0.00000  Uiso   1.00
H216   H     0.55093   0.96438   0.06293   0.00000  Uiso   1.00
H217   H     0.75212   0.93926   0.24481   0.00000  Uiso   1.00
H218   H     0.72101   0.14836   0.14614   0.00000  Uiso   1.00
H219   H     0.42944   0.90709   0.95045   0.00000  Uiso   1.00
H220   H     0.85366   0.85416   0.33396   0.00000  Uiso   1.00
H221   H     0.78806   0.29508   0.12591   0.00000  Uiso   1.00
O222   O     0.41564   0.87852   0.82970   0.00000  Uiso   1.00
O223   O     0.97222   0.80909   0.33284   0.00000  Uiso   1.00
O224   O     0.88615   0.38756   0.05988   0.00000  Uiso   1.00
N225   N     0.55040   0.92404   0.86622   0.00000  Uiso   1.00
N226   N     0.94702   0.87455   0.22476   0.00000  Uiso   1.00
N227   N     0.88570   0.28677   0.03027   0.00000  Uiso   1.00
N228   N     0.47764   0.91728   0.93363   0.00000  Uiso   1.00
N229   N     0.87426   0.86778   0.29218   0.00000  Uiso   1.00
N230   N     0.81295   0.28000   0.09769   0.00000  Uiso   1.00
C231   C     0.78133   0.75593   0.06238   0.00000  Uiso   1.00
C232   C     0.69328   0.73405   0.03119   0.00000  Uiso   1.00
C233   C     0.64023   0.77233   0.02092   0.00000  Uiso   1.00
C234   C     0.56218   0.74329   0.99166   0.00000  Uiso   1.00
C235   C     0.42913   0.71921   0.94600   0.00000  Uiso   1.00
C236   C     0.82032   0.75124   0.01001   0.00000  Uiso   1.00
C237   C     0.87410   0.80398   0.98192   0.00000  Uiso   1.00
C238   C     0.90299   0.78940   0.93484   0.00000  Uiso   1.00
C239   C     0.96722   0.79201   0.85632   0.00000  Uiso   1.00
C240   C     0.80003   0.70051   0.12285   0.00000  Uiso   1.00
C241   C     0.83676   0.71059   0.18964   0.00000  Uiso   1.00
C242   C     0.84859   0.65330   0.23756   0.00000  Uiso   1.00
C243   C     0.88131   0.57713   0.33424   0.00000  Uiso   1.00
C244   C     0.73703   0.63628   0.02870   0.00000  Uiso   1.00
C245   C     0.66922   0.66906   0.01290   0.00000  Uiso   1.00
C246   C     0.59123   0.63995   0.98366   0.00000  Uiso   1.00
C247   C     0.53807   0.67818   0.97334   0.00000  Uiso   1.00
C248   C     0.79626   0.68626   0.99171   0.00000  Uiso   1.00
C249   C     0.82509   0.67160   0.94467   0.00000  Uiso   1.00
C250   C     0.87889   0.72430   0.91652   0.00000  Uiso   1.00
C251   C     0.77597   0.63552   0.10456   0.00000  Uiso   1.00
C252   C     0.78775   0.57821   0.15238   0.00000  Uiso   1.00
C253   C     0.82449   0.58819   0.21924   0.00000  Uiso   1.00
H254   H     0.80006   0.80653   0.07661   0.00000  Uiso   1.00
H255   H     0.65888   0.82262   0.03507   0.00000  Uiso   1.00
H256   H     0.89271   0.85426   0.99609   0.00000  Uiso   1.00
H257   H     0.85537   0.76089   0.20377   0.00000  Uiso   1.00
H258   H     0.49174   0.81182   0.98093   0.00000  Uiso   1.00
H259   H     0.98481   0.87853   0.89875   0.00000  Uiso   1.00
H260   H     0.90608   0.68162   0.33669   0.00000  Uiso   1.00
H261   H     0.71830   0.58568   0.01446   0.00000  Uiso   1.00
H262   H     0.57263   0.58966   0.96951   0.00000  Uiso   1.00
H263   H     0.80646   0.62130   0.93053   0.00000  Uiso   1.00
H264   H     0.76912   0.52792   0.13821   0.00000  Uiso   1.00
H265   H     0.42174   0.62274   0.92771   0.00000  Uiso   1.00
H266   H     0.91481   0.68944   0.84554   0.00000  Uiso   1.00
H267   H     0.83608   0.49254   0.28348   0.00000  Uiso   1.00
O268   O     0.36239   0.72389   0.92585   0.00000  Uiso   1.00
O269   O     0.00928   0.81140   0.81805   0.00000  Uiso   1.00
O270   O     0.90599   0.55307   0.39262   0.00000  Uiso   1.00
N271   N     0.49526   0.76677   0.97459   0.00000  Uiso   1.00
N272   N     0.95624   0.82914   0.89775   0.00000  Uiso   1.00
N273   N     0.88265   0.64505   0.30718   0.00000  Uiso   1.00
N274   N     0.45759   0.66502   0.94595   0.00000  Uiso   1.00
N275   N     0.91857   0.72739   0.86911   0.00000  Uiso   1.00
N276   N     0.84498   0.54331   0.27855   0.00000  Uiso   1.00
C277   C     0.71680   0.43488   0.74224   0.00000  Uiso   1.00
C278   C     0.80499   0.46512   0.76462   0.00000  Uiso   1.00
C279   C     0.85870   0.47101   0.72857   0.00000  Uiso   1.00
C280   C     0.93677   0.50014   0.75769   0.00000  Uiso   1.00
C281   C     0.07013   0.54372   0.78285   0.00000  Uiso   1.00
C282   C     0.67863   0.49008   0.74172   0.00000  Uiso   1.00
C283   C     0.62610   0.51696   0.68641   0.00000  Uiso   1.00
C284   C     0.59780   0.56709   0.69625   0.00000  Uiso   1.00
C285   C     0.53495   0.64939   0.68587   0.00000  Uiso   1.00
C286   C     0.69635   0.37771   0.79976   0.00000  Uiso   1.00
C287   C     0.65869   0.31011   0.79326   0.00000  Uiso   1.00
C288   C     0.64528   0.26564   0.85198   0.00000  Uiso   1.00
C289   C     0.60994   0.17346   0.93172   0.00000  Uiso   1.00
C290   C     0.75994   0.47612   0.85808   0.00000  Uiso   1.00
C291   C     0.82842   0.48752   0.82754   0.00000  Uiso   1.00
C292   C     0.90643   0.51665   0.85673   0.00000  Uiso   1.00
C293   C     0.96024   0.52258   0.82072   0.00000  Uiso   1.00
C294   C     0.70207   0.51248   0.80463   0.00000  Uiso   1.00
C295   C     0.67383   0.56259   0.81457   0.00000  Uiso   1.00
C296   C     0.62127   0.58954   0.75929   0.00000  Uiso   1.00
C297   C     0.71978   0.40011   0.86269   0.00000  Uiso   1.00
C298   C     0.70643   0.35574   0.92142   0.00000  Uiso   1.00
C299   C     0.66876   0.28808   0.91501   0.00000  Uiso   1.00
H300   H     0.69856   0.41744   0.69326   0.00000  Uiso   1.00
H301   H     0.84054   0.45367   0.67987   0.00000  Uiso   1.00
H302   H     0.60797   0.49960   0.63772   0.00000  Uiso   1.00
H303   H     0.64056   0.29279   0.74456   0.00000  Uiso   1.00
H304   H     0.00828   0.50375   0.69277   0.00000  Uiso   1.00
H305   H     0.51788   0.60058   0.60390   0.00000  Uiso   1.00
H306   H     0.58660   0.16447   0.82919   0.00000  Uiso   1.00
H307   H     0.77819   0.49357   0.90707   0.00000  Uiso   1.00
H308   H     0.92455   0.53398   0.90542   0.00000  Uiso   1.00
H309   H     0.69197   0.57991   0.86327   0.00000  Uiso   1.00
H310   H     0.72457   0.37310   0.97010   0.00000  Uiso   1.00
H311   H     0.07646   0.56893   0.87583   0.00000  Uiso   1.00
H312   H     0.58606   0.66576   0.78696   0.00000  Uiso   1.00
H313   H     0.65478   0.22965   0.01225   0.00000  Uiso   1.00
O314   O     0.13721   0.56157   0.77934   0.00000  Uiso   1.00
O315   O     0.49381   0.68860   0.66276   0.00000  Uiso   1.00
O316   O     0.58398   0.11643   0.95833   0.00000  Uiso   1.00
N317   N     0.00425   0.51353   0.73608   0.00000  Uiso   1.00
N318   N     0.54576   0.60407   0.65300   0.00000  Uiso   1.00
N319   N     0.60999   0.19635   0.86362   0.00000  Uiso   1.00
N320   N     0.04093   0.54860   0.83459   0.00000  Uiso   1.00
N321   N     0.58245   0.63914   0.75150   0.00000  Uiso   1.00
N322   N     0.64668   0.23142   0.96212   0.00000  Uiso   1.00
C323   C     0.65880   0.71463   0.49995   0.00000  Uiso   1.00
C324   C     0.74752   0.74044   0.52441   0.00000  Uiso   1.00
C325   C     0.79601   0.70861   0.57926   0.00000  Uiso   1.00
C326   C     0.87559   0.74037   0.59343   0.00000  Uiso   1.00
C327   C     0.00880   0.77109   0.63738   0.00000  Uiso   1.00
C328   C     0.64175   0.70866   0.42523   0.00000  Uiso   1.00
C329   C     0.60131   0.65010   0.39669   0.00000  Uiso   1.00
C330   C     0.59185   0.65510   0.32736   0.00000  Uiso   1.00
C331   C     0.56081   0.63649   0.21732   0.00000  Uiso   1.00
C332   C     0.62489   0.77224   0.50059   0.00000  Uiso   1.00
C333   C     0.57026   0.76714   0.53539   0.00000  Uiso   1.00
C334   C     0.54659   0.82568   0.52949   0.00000  Uiso   1.00
C335   C     0.48937   0.90578   0.53646   0.00000  Uiso   1.00
C336   C     0.71391   0.82764   0.42756   0.00000  Uiso   1.00
C337   C     0.77745   0.80182   0.48509   0.00000  Uiso   1.00
C338   C     0.85698   0.83364   0.49918   0.00000  Uiso   1.00
C339   C     0.90558   0.80186   0.55404   0.00000  Uiso   1.00
C340   C     0.67168   0.77003   0.38591   0.00000  Uiso   1.00
C341   C     0.66228   0.77513   0.31661   0.00000  Uiso   1.00
C342   C     0.62184   0.71659   0.28797   0.00000  Uiso   1.00
C343   C     0.65483   0.83362   0.46127   0.00000  Uiso   1.00
C344   C     0.63123   0.89217   0.45531   0.00000  Uiso   1.00
C345   C     0.57658   0.88717   0.49011   0.00000  Uiso   1.00
H346   H     0.63549   0.66684   0.53055   0.00000  Uiso   1.00
H347   H     0.77282   0.66111   0.60967   0.00000  Uiso   1.00
H348   H     0.57814   0.60261   0.42713   0.00000  Uiso   1.00
H349   H     0.54711   0.71963   0.56581   0.00000  Uiso   1.00
H350   H     0.93828   0.68180   0.68004   0.00000  Uiso   1.00
H351   H     0.52777   0.55846   0.29513   0.00000  Uiso   1.00
H352   H     0.46231   0.80523   0.58757   0.00000  Uiso   1.00
H353   H     0.73721   0.87543   0.39695   0.00000  Uiso   1.00
H354   H     0.88013   0.88114   0.46874   0.00000  Uiso   1.00
H355   H     0.68545   0.82264   0.28620   0.00000  Uiso   1.00
H356   H     0.65441   0.93966   0.42488   0.00000  Uiso   1.00
H357   H     0.02538   0.86039   0.56566   0.00000  Uiso   1.00
H358   H     0.61486   0.73704   0.18074   0.00000  Uiso   1.00
H359   H     0.54940   0.98381   0.47319   0.00000  Uiso   1.00
O360   O     0.07401   0.77108   0.67247   0.00000  Uiso   1.00
O361   O     0.53542   0.60925   0.16748   0.00000  Uiso   1.00
O362   O     0.44955   0.93301   0.55117   0.00000  Uiso   1.00
N363   N     0.93917   0.72306   0.64328   0.00000  Uiso   1.00
N364   N     0.55537   0.60773   0.28341   0.00000  Uiso   1.00
N365   N     0.49416   0.83844   0.55680   0.00000  Uiso   1.00
N366   N     0.98603   0.81915   0.58173   0.00000  Uiso   1.00
N367   N     0.60223   0.70383   0.22186   0.00000  Uiso   1.00
N368   N     0.54102   0.93453   0.49526   0.00000  Uiso   1.00
C369   C     0.69532   0.46037   0.47385   0.00000  Uiso   1.00
C370   C     0.78321   0.48498   0.50425   0.00000  Uiso   1.00
C371   C     0.82115   0.54638   0.52813   0.00000  Uiso   1.00
C372   C     0.90188   0.55946   0.55405   0.00000  Uiso   1.00
C373   C     0.03208   0.60476   0.60099   0.00000  Uiso   1.00
C374   C     0.66866   0.39134   0.51637   0.00000  Uiso   1.00
C375   C     0.61028   0.37401   0.55042   0.00000  Uiso   1.00
C376   C     0.59459   0.30826   0.58654   0.00000  Uiso   1.00
C377   C     0.54691   0.20816   0.65225   0.00000  Uiso   1.00
C378   C     0.68610   0.44589   0.40339   0.00000  Uiso   1.00
C379   C     0.64237   0.47441   0.34245   0.00000  Uiso   1.00
C380   C     0.64134   0.45457   0.28345   0.00000  Uiso   1.00
C381   C     0.62074   0.43916   0.17374   0.00000  Uiso   1.00
C382   C     0.77124   0.37441   0.47743   0.00000  Uiso   1.00
C383   C     0.82444   0.43829   0.50620   0.00000  Uiso   1.00
C384   C     0.90514   0.45128   0.53209   0.00000  Uiso   1.00
C385   C     0.94319   0.51269   0.55600   0.00000  Uiso   1.00
C386   C     0.70990   0.34465   0.51832   0.00000  Uiso   1.00
C387   C     0.69428   0.27890   0.55439   0.00000  Uiso   1.00
C388   C     0.63590   0.26148   0.58849   0.00000  Uiso   1.00
C389   C     0.72734   0.39920   0.40534   0.00000  Uiso   1.00
C390   C     0.72637   0.37930   0.34642   0.00000  Uiso   1.00
C391   C     0.68265   0.40779   0.28540   0.00000  Uiso   1.00
H392   H     0.66321   0.49672   0.47234   0.00000  Uiso   1.00
H393   H     0.78921   0.58250   0.52662   0.00000  Uiso   1.00
H394   H     0.57838   0.41015   0.54890   0.00000  Uiso   1.00
H395   H     0.61047   0.51054   0.34097   0.00000  Uiso   1.00
H396   H     0.94709   0.65700   0.58768   0.00000  Uiso   1.00
H397   H     0.50252   0.29359   0.63465   0.00000  Uiso   1.00
H398   H     0.57018   0.50527   0.19617   0.00000  Uiso   1.00
H399   H     0.80334   0.33806   0.47895   0.00000  Uiso   1.00
H400   H     0.93704   0.41513   0.53359   0.00000  Uiso   1.00
H401   H     0.72620   0.24278   0.55588   0.00000  Uiso   1.00
H402   H     0.75829   0.34317   0.34794   0.00000  Uiso   1.00
H403   H     0.06707   0.52116   0.59334   0.00000  Uiso   1.00
H404   H     0.62249   0.15774   0.64031   0.00000  Uiso   1.00
H405   H     0.69016   0.36942   0.20183   0.00000  Uiso   1.00
O406   O     0.09250   0.64263   0.62636   0.00000  Uiso   1.00
O407   O     0.50922   0.16585   0.68797   0.00000  Uiso   1.00
O408   O     0.59800   0.44357   0.11270   0.00000  Uiso   1.00
N409   N     0.95698   0.61446   0.58150   0.00000  Uiso   1.00
N410   N     0.54134   0.27469   0.62542   0.00000  Uiso   1.00
N411   N     0.60458   0.47258   0.21548   0.00000  Uiso   1.00
N412   N     0.02154   0.54136   0.58455   0.00000  Uiso   1.00
N413   N     0.60590   0.20160   0.62847   0.00000  Uiso   1.00
N414   N     0.66914   0.39948   0.21853   0.00000  Uiso   1.00
C415   C     0.12619   0.01748   0.19215   0.00000  Uiso   1.00
C416   C     0.21260   0.05569   0.20747   0.00000  Uiso   1.00
C417   C     0.24619   0.11415   0.16789   0.00000  Uiso   1.00
C418   C     0.32626   0.14138   0.19061   0.00000  Uiso   1.00
C419   C     0.45362   0.20529   0.20523   0.00000  Uiso   1.00
C420   C     0.12365   0.94429   0.19023   0.00000  Uiso   1.00
C421   C     0.08244   0.90910   0.13615   0.00000  Uiso   1.00
C422   C     0.08763   0.84254   0.14436   0.00000  Uiso   1.00
C423   C     0.07685   0.73349   0.13222   0.00000  Uiso   1.00
C424   C     0.09884   0.01433   0.25465   0.00000  Uiso   1.00
C425   C     0.03676   0.03800   0.25474   0.00000  Uiso   1.00
C426   C     0.02104   0.03040   0.31720   0.00000  Uiso   1.00
C427   C     0.97173   0.03009   0.40509   0.00000  Uiso   1.00
C428   C     0.20864   0.96185   0.30290   0.00000  Uiso   1.00
C429   C     0.25738   0.02547   0.26762   0.00000  Uiso   1.00
C430   C     0.33742   0.05261   0.29041   0.00000  Uiso   1.00
C431   C     0.37112   0.11111   0.25087   0.00000  Uiso   1.00
C432   C     0.16843   0.91408   0.25038   0.00000  Uiso   1.00
C433   C     0.17367   0.84756   0.25867   0.00000  Uiso   1.00
C434   C     0.13249   0.81227   0.20462   0.00000  Uiso   1.00
C435   C     0.14362   0.98411   0.31481   0.00000  Uiso   1.00
C436   C     0.12799   0.97646   0.37727   0.00000  Uiso   1.00
C437   C     0.06590   0.00013   0.37746   0.00000  Uiso   1.00
H438   H     0.09132   0.04099   0.14532   0.00000  Uiso   1.00
H439   H     0.21151   0.13752   0.12133   0.00000  Uiso   1.00
H440   H     0.04779   0.93249   0.08960   0.00000  Uiso   1.00
H441   H     0.00211   0.06138   0.20819   0.00000  Uiso   1.00
H442   H     0.36452   0.23119   0.12126   0.00000  Uiso   1.00
H443   H     0.01928   0.79888   0.05436   0.00000  Uiso   1.00
H444   H     0.92296   0.07066   0.30441   0.00000  Uiso   1.00
H445   H     0.24351   0.93832   0.34973   0.00000  Uiso   1.00
H446   H     0.37206   0.02922   0.33697   0.00000  Uiso   1.00
H447   H     0.20833   0.82419   0.30523   0.00000  Uiso   1.00
H448   H     0.16266   0.95308   0.42381   0.00000  Uiso   1.00
H449   H     0.49483   0.14329   0.29627   0.00000  Uiso   1.00
H450   H     0.14958   0.71097   0.22937   0.00000  Uiso   1.00
H451   H     0.05326   0.98276   0.47942   0.00000  Uiso   1.00
O452   O     0.51149   0.24888   0.19666   0.00000  Uiso   1.00
O453   O     0.05853   0.68169   0.10890   0.00000  Uiso   1.00
O454   O     0.93217   0.03827   0.43696   0.00000  Uiso   1.00
N455   N     0.37755   0.19804   0.16421   0.00000  Uiso   1.00
N456   N     0.05477   0.79385   0.10165   0.00000  Uiso   1.00
N457   N     0.96471   0.04793   0.33543   0.00000  Uiso   1.00
N458   N     0.44766   0.15074   0.25838   0.00000  Uiso   1.00
N459   N     0.12489   0.74656   0.19583   0.00000  Uiso   1.00
N460   N     0.03482   0.00064   0.42960   0.00000  Uiso   1.00
C461   C     0.19925   0.97093   0.96555   0.00000  Uiso   1.00
C462   C     0.28603   0.00152   0.99544   0.00000  Uiso   1.00
C463   C     0.31846   0.02348   0.05813   0.00000  Uiso   1.00
C464   C     0.39911   0.04995   0.07625   0.00000  Uiso   1.00
C465   C     0.52678   0.09682   0.12920   0.00000  Uiso   1.00
C466   C     0.17673   0.01517   0.89663   0.00000  Uiso   1.00
C467   C     0.11725   0.04860   0.87623   0.00000  Uiso   1.00
C468   C     0.10589   0.08655   0.81116   0.00000  Uiso   1.00
C469   C     0.06382   0.15458   0.71068   0.00000  Uiso   1.00
C470   C     0.19363   0.90157   0.95024   0.00000  Uiso   1.00
C471   C     0.14836   0.83947   0.97490   0.00000  Uiso   1.00
C472   C     0.15121   0.78178   0.95496   0.00000  Uiso   1.00
C473   C     0.13540   0.67341   0.93772   0.00000  Uiso   1.00
C474   C     0.28481   0.97889   0.88626   0.00000  Uiso   1.00
C475   C     0.33250   0.00585   0.95237   0.00000  Uiso   1.00
C476   C     0.41312   0.03228   0.97041   0.00000  Uiso   1.00
C477   C     0.44567   0.05428   0.03311   0.00000  Uiso   1.00
C478   C     0.22320   0.01950   0.85356   0.00000  Uiso   1.00
C479   C     0.21191   0.05741   0.78851   0.00000  Uiso   1.00
C480   C     0.15244   0.09088   0.76802   0.00000  Uiso   1.00
C481   C     0.24011   0.90589   0.90717   0.00000  Uiso   1.00
C482   C     0.24303   0.84828   0.88718   0.00000  Uiso   1.00
C483   C     0.19777   0.78611   0.91181   0.00000  Uiso   1.00
H484   H     0.16307   0.96757   0.99907   0.00000  Uiso   1.00
H485   H     0.28247   0.02013   0.09144   0.00000  Uiso   1.00
H486   H     0.08129   0.04524   0.90956   0.00000  Uiso   1.00
H487   H     0.11240   0.83615   0.00822   0.00000  Uiso   1.00
H488   H     0.43535   0.08033   0.17484   0.00000  Uiso   1.00
H489   H     0.01113   0.13326   0.79134   0.00000  Uiso   1.00
H490   H     0.07673   0.69234   0.99938   0.00000  Uiso   1.00
H491   H     0.32099   0.98226   0.85273   0.00000  Uiso   1.00
H492   H     0.44907   0.03562   0.93707   0.00000  Uiso   1.00
H493   H     0.24788   0.06074   0.75519   0.00000  Uiso   1.00
H494   H     0.27899   0.85164   0.85386   0.00000  Uiso   1.00
H495   H     0.57056   0.09291   0.04955   0.00000  Uiso   1.00
H496   H     0.14634   0.14584   0.66604   0.00000  Uiso   1.00
H497   H     0.21194   0.70492   0.87409   0.00000  Uiso   1.00
O498   O     0.58436   0.12148   0.17030   0.00000  Uiso   1.00
O499   O     0.02778   0.19091   0.66716   0.00000  Uiso   1.00
O500   O     0.11385   0.61244   0.94012   0.00000  Uiso   1.00
N501   N     0.44960   0.07596   0.13378   0.00000  Uiso   1.00
N502   N     0.05298   0.12545   0.77524   0.00000  Uiso   1.00
N503   N     0.11430   0.71323   0.96973   0.00000  Uiso   1.00
N504   N     0.52236   0.08272   0.06637   0.00000  Uiso   1.00
N505   N     0.12574   0.13222   0.70782   0.00000  Uiso   1.00
N506   N     0.18705   0.72000   0.90231   0.00000  Uiso   1.00
C507   C     0.21867   0.24407   0.93762   0.00000  Uiso   1.00
C508   C     0.30672   0.26595   0.96881   0.00000  Uiso   1.00
C509   C     0.35977   0.22767   0.97908   0.00000  Uiso   1.00
C510   C     0.43782   0.25671   0.00834   0.00000  Uiso   1.00
C511   C     0.57087   0.28079   0.05400   0.00000  Uiso   1.00
C512   C     0.17968   0.24876   0.98999   0.00000  Uiso   1.00
C513   C     0.12590   0.19602   0.01808   0.00000  Uiso   1.00
C514   C     0.09701   0.21060   0.06516   0.00000  Uiso   1.00
C515   C     0.03278   0.20799   0.14368   0.00000  Uiso   1.00
C516   C     0.19997   0.29949   0.87715   0.00000  Uiso   1.00
C517   C     0.16324   0.28941   0.81036   0.00000  Uiso   1.00
C518   C     0.15141   0.34670   0.76244   0.00000  Uiso   1.00
C519   C     0.11869   0.42287   0.66576   0.00000  Uiso   1.00
C520   C     0.26297   0.36372   0.97130   0.00000  Uiso   1.00
C521   C     0.33078   0.33094   0.98710   0.00000  Uiso   1.00
C522   C     0.40877   0.36005   0.01634   0.00000  Uiso   1.00
C523   C     0.46193   0.32182   0.02666   0.00000  Uiso   1.00
C524   C     0.20374   0.31374   0.00829   0.00000  Uiso   1.00
C525   C     0.17491   0.32840   0.05533   0.00000  Uiso   1.00
C526   C     0.12111   0.27570   0.08348   0.00000  Uiso   1.00
C527   C     0.22403   0.36448   0.89544   0.00000  Uiso   1.00
C528   C     0.21225   0.42179   0.84762   0.00000  Uiso   1.00
C529   C     0.17551   0.41181   0.78076   0.00000  Uiso   1.00
H530   H     0.19994   0.19347   0.92339   0.00000  Uiso   1.00
H531   H     0.34112   0.17738   0.96493   0.00000  Uiso   1.00
H532   H     0.10729   0.14574   0.00391   0.00000  Uiso   1.00
H533   H     0.14463   0.23911   0.79623   0.00000  Uiso   1.00
H534   H     0.50826   0.18818   0.01907   0.00000  Uiso   1.00
H535   H     0.01519   0.12147   0.10125   0.00000  Uiso   1.00
H536   H     0.09392   0.31838   0.66331   0.00000  Uiso   1.00
H537   H     0.28170   0.41432   0.98554   0.00000  Uiso   1.00
H538   H     0.42737   0.41034   0.03049   0.00000  Uiso   1.00
H539   H     0.19354   0.37870   0.06947   0.00000  Uiso   1.00
H540   H     0.23088   0.47208   0.86179   0.00000  Uiso   1.00
H541   H     0.57826   0.37726   0.07229   0.00000  Uiso   1.00
H542   H     0.08519   0.31056   0.15446   0.00000  Uiso   1.00
H543   H     0.16392   0.50746   0.71652   0.00000  Uiso   1.00
O544   O     0.63761   0.27611   0.07415   0.00000  Uiso   1.00
O545   O     0.99072   0.18860   0.18195   0.00000  Uiso   1.00
O546   O     0.09401   0.44693   0.60738   0.00000  Uiso   1.00
N547   N     0.50474   0.23323   0.02541   0.00000  Uiso   1.00
N548   N     0.04376   0.17086   0.10225   0.00000  Uiso   1.00
N549   N     0.11735   0.35495   0.69282   0.00000  Uiso   1.00
N550   N     0.54241   0.33498   0.05405   0.00000  Uiso   1.00
N551   N     0.08143   0.27261   0.13089   0.00000  Uiso   1.00
N552   N     0.15502   0.45669   0.72145   0.00000  Uiso   1.00
