data_job_02512
_audit_creation_date              2018-12-19
_audit_creation_method            'Materials Studio'
_symmetry_space_group_name_H-M    'P1'
_symmetry_Int_Tables_number       1
_symmetry_cell_setting            triclinic
loop_
_symmetry_equiv_pos_as_xyz
  x,y,z
_cell_length_a                    13.7438
_cell_length_b                    20.2762
_cell_length_c                    17.4581
_cell_angle_alpha                 90.0000
_cell_angle_beta                  90.0000
_cell_angle_gamma                 90.0000
loop_
_atom_site_label
_atom_site_type_symbol
_atom_site_fract_x
_atom_site_fract_y
_atom_site_fract_z
_atom_site_U_iso_or_equiv
_atom_site_adp_type
_atom_site_occupancy
C1     C     0.51684   0.80815   0.11747   0.00000  Uiso   1.00
C2     C     0.54027   0.84329   0.04248   0.00000  Uiso   1.00
C3     C     0.47533   0.87999   0.99903   0.00000  Uiso   1.00
C4     C     0.51092   0.90822   0.93222   0.00000  Uiso   1.00
C5     C     0.53253   0.96401   0.81917   0.00000  Uiso   1.00
C6     C     0.54395   0.73599   0.10521   0.00000  Uiso   1.00
C7     C     0.48211   0.68248   0.11452   0.00000  Uiso   1.00
C8     C     0.52081   0.62038   0.10052   0.00000  Uiso   1.00
C9     C     0.54816   0.50958   0.08493   0.00000  Uiso   1.00
C10    C     0.58874   0.83480   0.17636   0.00000  Uiso   1.00
C11    C     0.56456   0.86435   0.24549   0.00000  Uiso   1.00
C12    C     0.64097   0.88543   0.29139   0.00000  Uiso   1.00
C13    C     0.73785   0.92804   0.38626   0.00000  Uiso   1.00
C14    C     0.69553   0.79302   0.07609   0.00000  Uiso   1.00
C15    C     0.63733   0.83507   0.02000   0.00000  Uiso   1.00
C16    C     0.67303   0.86326   0.95324   0.00000  Uiso   1.00
C17    C     0.60816   0.90000   0.90969   0.00000  Uiso   1.00
C18    C     0.64101   0.72777   0.08273   0.00000  Uiso   1.00
C19    C     0.67981   0.66574   0.06873   0.00000  Uiso   1.00
C20    C     0.61804   0.61215   0.07800   0.00000  Uiso   1.00
C21    C     0.68580   0.82658   0.15388   0.00000  Uiso   1.00
C22    C     0.76226   0.84762   0.19969   0.00000  Uiso   1.00
C23    C     0.73820   0.87719   0.26887   0.00000  Uiso   1.00
H24    H     0.44128   0.81454   0.13498   0.00000  Uiso   1.00
H25    H     0.40022   0.88633   0.01644   0.00000  Uiso   1.00
H26    H     0.40701   0.68885   0.13192   0.00000  Uiso   1.00
H27    H     0.48944   0.87070   0.26286   0.00000  Uiso   1.00
H28    H     0.39750   0.96229   0.87510   0.00000  Uiso   1.00
H29    H     0.41182   0.54588   0.11862   0.00000  Uiso   1.00
H30    H     0.58565   0.92933   0.39474   0.00000  Uiso   1.00
H31    H     0.77110   0.78663   0.05858   0.00000  Uiso   1.00
H32    H     0.74815   0.85689   0.93586   0.00000  Uiso   1.00
H33    H     0.75493   0.65941   0.05133   0.00000  Uiso   1.00
H34    H     0.83736   0.84125   0.18228   0.00000  Uiso   1.00
H35    H     0.67989   0.93839   0.80969   0.00000  Uiso   1.00
H36    H     0.69420   0.52198   0.05321   0.00000  Uiso   1.00
H37    H     0.86803   0.90543   0.32933   0.00000  Uiso   1.00
O38    O     0.51764   0.99704   0.76303   0.00000  Uiso   1.00
O39    O     0.53642   0.45074   0.08253   0.00000  Uiso   1.00
O40    O     0.76448   0.95382   0.44479   0.00000  Uiso   1.00
N41    N     0.46712   0.94703   0.87656   0.00000  Uiso   1.00
N42    N     0.48049   0.55771   0.10422   0.00000  Uiso   1.00
N43    N     0.64301   0.91620   0.36238   0.00000  Uiso   1.00
N44    N     0.61907   0.93417   0.84136   0.00000  Uiso   1.00
N45    N     0.63244   0.54486   0.06902   0.00000  Uiso   1.00
N46    N     0.79496   0.90334   0.32718   0.00000  Uiso   1.00
C47    C     0.98316   0.19185   0.61747   0.00000  Uiso   1.00
C48    C     0.95973   0.15671   0.54248   0.00000  Uiso   1.00
C49    C     0.02467   0.12001   0.49903   0.00000  Uiso   1.00
C50    C     0.98908   0.09178   0.43222   0.00000  Uiso   1.00
C51    C     0.96747   0.03599   0.31917   0.00000  Uiso   1.00
C52    C     0.95605   0.26401   0.60521   0.00000  Uiso   1.00
C53    C     0.01789   0.31752   0.61452   0.00000  Uiso   1.00
C54    C     0.97919   0.37962   0.60052   0.00000  Uiso   1.00
C55    C     0.95184   0.49042   0.58493   0.00000  Uiso   1.00
C56    C     0.91126   0.16520   0.67636   0.00000  Uiso   1.00
C57    C     0.93544   0.13565   0.74549   0.00000  Uiso   1.00
C58    C     0.85903   0.11457   0.79139   0.00000  Uiso   1.00
C59    C     0.76215   0.07196   0.88626   0.00000  Uiso   1.00
C60    C     0.80447   0.20698   0.57609   0.00000  Uiso   1.00
C61    C     0.86267   0.16493   0.52000   0.00000  Uiso   1.00
C62    C     0.82697   0.13674   0.45324   0.00000  Uiso   1.00
C63    C     0.89184   0.10000   0.40969   0.00000  Uiso   1.00
C64    C     0.85899   0.27223   0.58273   0.00000  Uiso   1.00
C65    C     0.82019   0.33426   0.56873   0.00000  Uiso   1.00
C66    C     0.88196   0.38785   0.57800   0.00000  Uiso   1.00
C67    C     0.81420   0.17342   0.65388   0.00000  Uiso   1.00
C68    C     0.73774   0.15238   0.69969   0.00000  Uiso   1.00
C69    C     0.76180   0.12281   0.76887   0.00000  Uiso   1.00
H70    H     0.05872   0.18546   0.63498   0.00000  Uiso   1.00
H71    H     0.09978   0.11367   0.51644   0.00000  Uiso   1.00
H72    H     0.09299   0.31115   0.63192   0.00000  Uiso   1.00
H73    H     0.01056   0.12930   0.76286   0.00000  Uiso   1.00
H74    H     0.10250   0.03771   0.37510   0.00000  Uiso   1.00
H75    H     0.08818   0.45412   0.61862   0.00000  Uiso   1.00
H76    H     0.91435   0.07067   0.89474   0.00000  Uiso   1.00
H77    H     0.72890   0.21337   0.55858   0.00000  Uiso   1.00
H78    H     0.75185   0.14311   0.43586   0.00000  Uiso   1.00
H79    H     0.74507   0.34059   0.55133   0.00000  Uiso   1.00
H80    H     0.66264   0.15875   0.68228   0.00000  Uiso   1.00
H81    H     0.82011   0.06161   0.30969   0.00000  Uiso   1.00
H82    H     0.80580   0.47802   0.55321   0.00000  Uiso   1.00
H83    H     0.63197   0.09457   0.82933   0.00000  Uiso   1.00
O84    O     0.98236   0.00296   0.26303   0.00000  Uiso   1.00
O85    O     0.96358   0.54926   0.58253   0.00000  Uiso   1.00
O86    O     0.73552   0.04618   0.94479   0.00000  Uiso   1.00
N87    N     0.03288   0.05297   0.37656   0.00000  Uiso   1.00
N88    N     0.01951   0.44229   0.60422   0.00000  Uiso   1.00
N89    N     0.85699   0.08380   0.86238   0.00000  Uiso   1.00
N90    N     0.88093   0.06583   0.34136   0.00000  Uiso   1.00
N91    N     0.86756   0.45514   0.56902   0.00000  Uiso   1.00
N92    N     0.70504   0.09666   0.82718   0.00000  Uiso   1.00
C93    C     0.48316   0.30815   0.38253   0.00000  Uiso   1.00
C94    C     0.45973   0.34329   0.45752   0.00000  Uiso   1.00
C95    C     0.52467   0.37999   0.50097   0.00000  Uiso   1.00
C96    C     0.48908   0.40822   0.56778   0.00000  Uiso   1.00
C97    C     0.46747   0.46401   0.68083   0.00000  Uiso   1.00
C98    C     0.45605   0.23599   0.39479   0.00000  Uiso   1.00
C99    C     0.51789   0.18248   0.38548   0.00000  Uiso   1.00
C100   C     0.47919   0.12038   0.39948   0.00000  Uiso   1.00
C101   C     0.45184   0.00958   0.41507   0.00000  Uiso   1.00
C102   C     0.41126   0.33480   0.32364   0.00000  Uiso   1.00
C103   C     0.43544   0.36435   0.25451   0.00000  Uiso   1.00
C104   C     0.35903   0.38543   0.20861   0.00000  Uiso   1.00
C105   C     0.26215   0.42804   0.11374   0.00000  Uiso   1.00
C106   C     0.30447   0.29302   0.42391   0.00000  Uiso   1.00
C107   C     0.36267   0.33507   0.48000   0.00000  Uiso   1.00
C108   C     0.32697   0.36326   0.54676   0.00000  Uiso   1.00
C109   C     0.39184   0.40000   0.59031   0.00000  Uiso   1.00
C110   C     0.35899   0.22777   0.41727   0.00000  Uiso   1.00
C111   C     0.32019   0.16574   0.43127   0.00000  Uiso   1.00
C112   C     0.38196   0.11215   0.42200   0.00000  Uiso   1.00
C113   C     0.31420   0.32658   0.34612   0.00000  Uiso   1.00
C114   C     0.23774   0.34762   0.30031   0.00000  Uiso   1.00
C115   C     0.26180   0.37719   0.23113   0.00000  Uiso   1.00
H116   H     0.55872   0.31454   0.36502   0.00000  Uiso   1.00
H117   H     0.59978   0.38633   0.48356   0.00000  Uiso   1.00
H118   H     0.59299   0.18885   0.36808   0.00000  Uiso   1.00
H119   H     0.51056   0.37070   0.23714   0.00000  Uiso   1.00
H120   H     0.60250   0.46229   0.62490   0.00000  Uiso   1.00
H121   H     0.58818   0.04588   0.38138   0.00000  Uiso   1.00
H122   H     0.41435   0.42933   0.10526   0.00000  Uiso   1.00
H123   H     0.22890   0.28663   0.44142   0.00000  Uiso   1.00
H124   H     0.25185   0.35689   0.56414   0.00000  Uiso   1.00
H125   H     0.24507   0.15941   0.44867   0.00000  Uiso   1.00
H126   H     0.16264   0.34125   0.31772   0.00000  Uiso   1.00
H127   H     0.32011   0.43839   0.69031   0.00000  Uiso   1.00
H128   H     0.30580   0.02198   0.44679   0.00000  Uiso   1.00
H129   H     0.13197   0.40543   0.17067   0.00000  Uiso   1.00
O130   O     0.48236   0.49704   0.73697   0.00000  Uiso   1.00
O131   O     0.46358   0.95074   0.41747   0.00000  Uiso   1.00
O132   O     0.23552   0.45382   0.05521   0.00000  Uiso   1.00
N133   N     0.53288   0.44703   0.62344   0.00000  Uiso   1.00
N134   N     0.51951   0.05771   0.39578   0.00000  Uiso   1.00
N135   N     0.35699   0.41620   0.13762   0.00000  Uiso   1.00
N136   N     0.38093   0.43417   0.65864   0.00000  Uiso   1.00
N137   N     0.36756   0.04486   0.43098   0.00000  Uiso   1.00
N138   N     0.20504   0.40334   0.17282   0.00000  Uiso   1.00
C139   C     0.01684   0.69185   0.88253   0.00000  Uiso   1.00
C140   C     0.04027   0.65671   0.95752   0.00000  Uiso   1.00
C141   C     0.97533   0.62001   0.00097   0.00000  Uiso   1.00
C142   C     0.01092   0.59178   0.06778   0.00000  Uiso   1.00
C143   C     0.03253   0.53599   0.18083   0.00000  Uiso   1.00
C144   C     0.04395   0.76401   0.89479   0.00000  Uiso   1.00
C145   C     0.98211   0.81752   0.88548   0.00000  Uiso   1.00
C146   C     0.02081   0.87962   0.89948   0.00000  Uiso   1.00
C147   C     0.04816   0.99042   0.91507   0.00000  Uiso   1.00
C148   C     0.08874   0.66520   0.82364   0.00000  Uiso   1.00
C149   C     0.06456   0.63565   0.75451   0.00000  Uiso   1.00
C150   C     0.14097   0.61457   0.70861   0.00000  Uiso   1.00
C151   C     0.23785   0.57196   0.61374   0.00000  Uiso   1.00
C152   C     0.19553   0.70698   0.92391   0.00000  Uiso   1.00
C153   C     0.13733   0.66493   0.98000   0.00000  Uiso   1.00
C154   C     0.17303   0.63674   0.04676   0.00000  Uiso   1.00
C155   C     0.10816   0.60000   0.09031   0.00000  Uiso   1.00
C156   C     0.14101   0.77223   0.91727   0.00000  Uiso   1.00
C157   C     0.17981   0.83426   0.93127   0.00000  Uiso   1.00
C158   C     0.11804   0.88785   0.92200   0.00000  Uiso   1.00
C159   C     0.18580   0.67342   0.84612   0.00000  Uiso   1.00
C160   C     0.26226   0.65238   0.80031   0.00000  Uiso   1.00
C161   C     0.23820   0.62281   0.73113   0.00000  Uiso   1.00
H162   H     0.94128   0.68546   0.86502   0.00000  Uiso   1.00
H163   H     0.90022   0.61367   0.98356   0.00000  Uiso   1.00
H164   H     0.90701   0.81115   0.86808   0.00000  Uiso   1.00
H165   H     0.98944   0.62930   0.73714   0.00000  Uiso   1.00
H166   H     0.89750   0.53771   0.12490   0.00000  Uiso   1.00
H167   H     0.91182   0.95412   0.88138   0.00000  Uiso   1.00
H168   H     0.08565   0.57067   0.60526   0.00000  Uiso   1.00
H169   H     0.27110   0.71337   0.94142   0.00000  Uiso   1.00
H170   H     0.24815   0.64311   0.06414   0.00000  Uiso   1.00
H171   H     0.25493   0.84059   0.94867   0.00000  Uiso   1.00
H172   H     0.33736   0.65875   0.81772   0.00000  Uiso   1.00
H173   H     0.17989   0.56161   0.19031   0.00000  Uiso   1.00
H174   H     0.19420   0.97802   0.94679   0.00000  Uiso   1.00
H175   H     0.36803   0.59457   0.67067   0.00000  Uiso   1.00
O176   O     0.01764   0.50296   0.23697   0.00000  Uiso   1.00
O177   O     0.03642   0.04926   0.91747   0.00000  Uiso   1.00
O178   O     0.26448   0.54618   0.55521   0.00000  Uiso   1.00
N179   N     0.96712   0.55297   0.12344   0.00000  Uiso   1.00
N180   N     0.98049   0.94229   0.89578   0.00000  Uiso   1.00
N181   N     0.14301   0.58380   0.63762   0.00000  Uiso   1.00
N182   N     0.11907   0.56583   0.15864   0.00000  Uiso   1.00
N183   N     0.13244   0.95514   0.93098   0.00000  Uiso   1.00
N184   N     0.29496   0.59666   0.67282   0.00000  Uiso   1.00
C185   C     0.48316   0.19185   0.88253   0.00000  Uiso   1.00
C186   C     0.45973   0.15671   0.95752   0.00000  Uiso   1.00
C187   C     0.52467   0.12001   0.00097   0.00000  Uiso   1.00
C188   C     0.48908   0.09178   0.06778   0.00000  Uiso   1.00
C189   C     0.46747   0.03599   0.18083   0.00000  Uiso   1.00
C190   C     0.45605   0.26401   0.89479   0.00000  Uiso   1.00
C191   C     0.51789   0.31752   0.88548   0.00000  Uiso   1.00
C192   C     0.47919   0.37962   0.89948   0.00000  Uiso   1.00
C193   C     0.45184   0.49042   0.91507   0.00000  Uiso   1.00
C194   C     0.41126   0.16520   0.82364   0.00000  Uiso   1.00
C195   C     0.43544   0.13565   0.75451   0.00000  Uiso   1.00
C196   C     0.35903   0.11457   0.70861   0.00000  Uiso   1.00
C197   C     0.26215   0.07196   0.61374   0.00000  Uiso   1.00
C198   C     0.30447   0.20698   0.92391   0.00000  Uiso   1.00
C199   C     0.36267   0.16493   0.98000   0.00000  Uiso   1.00
C200   C     0.32697   0.13674   0.04676   0.00000  Uiso   1.00
C201   C     0.39184   0.10000   0.09031   0.00000  Uiso   1.00
C202   C     0.35899   0.27223   0.91727   0.00000  Uiso   1.00
C203   C     0.32019   0.33426   0.93127   0.00000  Uiso   1.00
C204   C     0.38196   0.38785   0.92200   0.00000  Uiso   1.00
C205   C     0.31420   0.17342   0.84612   0.00000  Uiso   1.00
C206   C     0.23774   0.15238   0.80031   0.00000  Uiso   1.00
C207   C     0.26180   0.12281   0.73113   0.00000  Uiso   1.00
H208   H     0.55872   0.18546   0.86502   0.00000  Uiso   1.00
H209   H     0.59978   0.11367   0.98356   0.00000  Uiso   1.00
H210   H     0.59299   0.31115   0.86808   0.00000  Uiso   1.00
H211   H     0.51056   0.12930   0.73714   0.00000  Uiso   1.00
H212   H     0.60250   0.03771   0.12490   0.00000  Uiso   1.00
H213   H     0.58818   0.45412   0.88138   0.00000  Uiso   1.00
H214   H     0.41435   0.07067   0.60526   0.00000  Uiso   1.00
H215   H     0.22890   0.21337   0.94142   0.00000  Uiso   1.00
H216   H     0.25185   0.14311   0.06414   0.00000  Uiso   1.00
H217   H     0.24507   0.34059   0.94867   0.00000  Uiso   1.00
H218   H     0.16264   0.15875   0.81772   0.00000  Uiso   1.00
H219   H     0.32011   0.06161   0.19031   0.00000  Uiso   1.00
H220   H     0.30580   0.47802   0.94679   0.00000  Uiso   1.00
H221   H     0.13197   0.09457   0.67067   0.00000  Uiso   1.00
O222   O     0.48236   0.00296   0.23697   0.00000  Uiso   1.00
O223   O     0.46358   0.54926   0.91747   0.00000  Uiso   1.00
O224   O     0.23552   0.04618   0.55521   0.00000  Uiso   1.00
N225   N     0.53288   0.05297   0.12344   0.00000  Uiso   1.00
N226   N     0.51951   0.44229   0.89578   0.00000  Uiso   1.00
N227   N     0.35699   0.08380   0.63762   0.00000  Uiso   1.00
N228   N     0.38093   0.06583   0.15864   0.00000  Uiso   1.00
N229   N     0.36756   0.45514   0.93098   0.00000  Uiso   1.00
N230   N     0.20504   0.09666   0.67282   0.00000  Uiso   1.00
C231   C     0.01684   0.80815   0.38253   0.00000  Uiso   1.00
C232   C     0.04027   0.84329   0.45752   0.00000  Uiso   1.00
C233   C     0.97533   0.87999   0.50097   0.00000  Uiso   1.00
C234   C     0.01092   0.90822   0.56778   0.00000  Uiso   1.00
C235   C     0.03253   0.96401   0.68083   0.00000  Uiso   1.00
C236   C     0.04395   0.73599   0.39479   0.00000  Uiso   1.00
C237   C     0.98211   0.68248   0.38548   0.00000  Uiso   1.00
C238   C     0.02081   0.62038   0.39948   0.00000  Uiso   1.00
C239   C     0.04816   0.50958   0.41507   0.00000  Uiso   1.00
C240   C     0.08874   0.83480   0.32364   0.00000  Uiso   1.00
C241   C     0.06456   0.86435   0.25451   0.00000  Uiso   1.00
C242   C     0.14097   0.88543   0.20861   0.00000  Uiso   1.00
C243   C     0.23785   0.92804   0.11374   0.00000  Uiso   1.00
C244   C     0.19553   0.79302   0.42391   0.00000  Uiso   1.00
C245   C     0.13733   0.83507   0.48000   0.00000  Uiso   1.00
C246   C     0.17303   0.86326   0.54676   0.00000  Uiso   1.00
C247   C     0.10816   0.90000   0.59031   0.00000  Uiso   1.00
C248   C     0.14101   0.72777   0.41727   0.00000  Uiso   1.00
C249   C     0.17981   0.66574   0.43127   0.00000  Uiso   1.00
C250   C     0.11804   0.61215   0.42200   0.00000  Uiso   1.00
C251   C     0.18580   0.82658   0.34612   0.00000  Uiso   1.00
C252   C     0.26226   0.84762   0.30031   0.00000  Uiso   1.00
C253   C     0.23820   0.87719   0.23113   0.00000  Uiso   1.00
H254   H     0.94128   0.81454   0.36502   0.00000  Uiso   1.00
H255   H     0.90022   0.88633   0.48356   0.00000  Uiso   1.00
H256   H     0.90701   0.68885   0.36808   0.00000  Uiso   1.00
H257   H     0.98944   0.87070   0.23714   0.00000  Uiso   1.00
H258   H     0.89750   0.96229   0.62490   0.00000  Uiso   1.00
H259   H     0.91182   0.54588   0.38138   0.00000  Uiso   1.00
H260   H     0.08565   0.92933   0.10526   0.00000  Uiso   1.00
H261   H     0.27110   0.78663   0.44142   0.00000  Uiso   1.00
H262   H     0.24815   0.85689   0.56414   0.00000  Uiso   1.00
H263   H     0.25493   0.65941   0.44867   0.00000  Uiso   1.00
H264   H     0.33736   0.84125   0.31772   0.00000  Uiso   1.00
H265   H     0.17989   0.93839   0.69031   0.00000  Uiso   1.00
H266   H     0.19420   0.52198   0.44679   0.00000  Uiso   1.00
H267   H     0.36803   0.90543   0.17067   0.00000  Uiso   1.00
O268   O     0.01764   0.99704   0.73697   0.00000  Uiso   1.00
O269   O     0.03642   0.45074   0.41747   0.00000  Uiso   1.00
O270   O     0.26448   0.95382   0.05521   0.00000  Uiso   1.00
N271   N     0.96712   0.94703   0.62344   0.00000  Uiso   1.00
N272   N     0.98049   0.55771   0.39578   0.00000  Uiso   1.00
N273   N     0.14301   0.91620   0.13762   0.00000  Uiso   1.00
N274   N     0.11907   0.93417   0.65864   0.00000  Uiso   1.00
N275   N     0.13244   0.54486   0.43098   0.00000  Uiso   1.00
N276   N     0.29496   0.90334   0.17282   0.00000  Uiso   1.00
C277   C     0.51684   0.69185   0.61747   0.00000  Uiso   1.00
C278   C     0.54027   0.65671   0.54248   0.00000  Uiso   1.00
C279   C     0.47533   0.62001   0.49903   0.00000  Uiso   1.00
C280   C     0.51092   0.59178   0.43222   0.00000  Uiso   1.00
C281   C     0.53253   0.53599   0.31917   0.00000  Uiso   1.00
C282   C     0.54395   0.76401   0.60521   0.00000  Uiso   1.00
C283   C     0.48211   0.81752   0.61452   0.00000  Uiso   1.00
C284   C     0.52081   0.87962   0.60052   0.00000  Uiso   1.00
C285   C     0.54816   0.99042   0.58493   0.00000  Uiso   1.00
C286   C     0.58874   0.66520   0.67636   0.00000  Uiso   1.00
C287   C     0.56456   0.63565   0.74549   0.00000  Uiso   1.00
C288   C     0.64097   0.61457   0.79139   0.00000  Uiso   1.00
C289   C     0.73785   0.57196   0.88626   0.00000  Uiso   1.00
C290   C     0.69553   0.70698   0.57609   0.00000  Uiso   1.00
C291   C     0.63733   0.66493   0.52000   0.00000  Uiso   1.00
C292   C     0.67303   0.63674   0.45324   0.00000  Uiso   1.00
C293   C     0.60816   0.60000   0.40969   0.00000  Uiso   1.00
C294   C     0.64101   0.77223   0.58273   0.00000  Uiso   1.00
C295   C     0.67981   0.83426   0.56873   0.00000  Uiso   1.00
C296   C     0.61804   0.88785   0.57800   0.00000  Uiso   1.00
C297   C     0.68580   0.67342   0.65388   0.00000  Uiso   1.00
C298   C     0.76226   0.65238   0.69969   0.00000  Uiso   1.00
C299   C     0.73820   0.62281   0.76887   0.00000  Uiso   1.00
H300   H     0.44128   0.68546   0.63498   0.00000  Uiso   1.00
H301   H     0.40022   0.61367   0.51644   0.00000  Uiso   1.00
H302   H     0.40701   0.81115   0.63192   0.00000  Uiso   1.00
H303   H     0.48944   0.62930   0.76286   0.00000  Uiso   1.00
H304   H     0.39750   0.53771   0.37510   0.00000  Uiso   1.00
H305   H     0.41182   0.95412   0.61862   0.00000  Uiso   1.00
H306   H     0.58565   0.57067   0.89474   0.00000  Uiso   1.00
H307   H     0.77110   0.71337   0.55858   0.00000  Uiso   1.00
H308   H     0.74815   0.64311   0.43586   0.00000  Uiso   1.00
H309   H     0.75493   0.84059   0.55133   0.00000  Uiso   1.00
H310   H     0.83736   0.65875   0.68228   0.00000  Uiso   1.00
H311   H     0.67989   0.56161   0.30969   0.00000  Uiso   1.00
H312   H     0.69420   0.97802   0.55321   0.00000  Uiso   1.00
H313   H     0.86803   0.59457   0.82933   0.00000  Uiso   1.00
O314   O     0.51764   0.50296   0.26303   0.00000  Uiso   1.00
O315   O     0.53642   0.04926   0.58253   0.00000  Uiso   1.00
O316   O     0.76448   0.54618   0.94479   0.00000  Uiso   1.00
N317   N     0.46712   0.55297   0.37656   0.00000  Uiso   1.00
N318   N     0.48049   0.94229   0.60422   0.00000  Uiso   1.00
N319   N     0.64301   0.58380   0.86238   0.00000  Uiso   1.00
N320   N     0.61907   0.56583   0.34136   0.00000  Uiso   1.00
N321   N     0.63244   0.95514   0.56902   0.00000  Uiso   1.00
N322   N     0.79496   0.59666   0.82718   0.00000  Uiso   1.00
C323   C     0.98316   0.30815   0.11747   0.00000  Uiso   1.00
C324   C     0.95973   0.34329   0.04248   0.00000  Uiso   1.00
C325   C     0.02467   0.37999   0.99903   0.00000  Uiso   1.00
C326   C     0.98908   0.40822   0.93222   0.00000  Uiso   1.00
C327   C     0.96747   0.46401   0.81917   0.00000  Uiso   1.00
C328   C     0.95605   0.23599   0.10521   0.00000  Uiso   1.00
C329   C     0.01789   0.18248   0.11452   0.00000  Uiso   1.00
C330   C     0.97919   0.12038   0.10052   0.00000  Uiso   1.00
C331   C     0.95184   0.00958   0.08493   0.00000  Uiso   1.00
C332   C     0.91126   0.33480   0.17636   0.00000  Uiso   1.00
C333   C     0.93544   0.36435   0.24549   0.00000  Uiso   1.00
C334   C     0.85903   0.38543   0.29139   0.00000  Uiso   1.00
C335   C     0.76215   0.42804   0.38626   0.00000  Uiso   1.00
C336   C     0.80447   0.29302   0.07609   0.00000  Uiso   1.00
C337   C     0.86267   0.33507   0.02000   0.00000  Uiso   1.00
C338   C     0.82697   0.36326   0.95324   0.00000  Uiso   1.00
C339   C     0.89184   0.40000   0.90969   0.00000  Uiso   1.00
C340   C     0.85899   0.22777   0.08273   0.00000  Uiso   1.00
C341   C     0.82019   0.16574   0.06873   0.00000  Uiso   1.00
C342   C     0.88196   0.11215   0.07800   0.00000  Uiso   1.00
C343   C     0.81420   0.32658   0.15388   0.00000  Uiso   1.00
C344   C     0.73774   0.34762   0.19969   0.00000  Uiso   1.00
C345   C     0.76180   0.37719   0.26887   0.00000  Uiso   1.00
H346   H     0.05872   0.31454   0.13498   0.00000  Uiso   1.00
H347   H     0.09978   0.38633   0.01644   0.00000  Uiso   1.00
H348   H     0.09299   0.18885   0.13192   0.00000  Uiso   1.00
H349   H     0.01056   0.37070   0.26286   0.00000  Uiso   1.00
H350   H     0.10250   0.46229   0.87510   0.00000  Uiso   1.00
H351   H     0.08818   0.04588   0.11862   0.00000  Uiso   1.00
H352   H     0.91435   0.42933   0.39474   0.00000  Uiso   1.00
H353   H     0.72890   0.28663   0.05858   0.00000  Uiso   1.00
H354   H     0.75185   0.35689   0.93586   0.00000  Uiso   1.00
H355   H     0.74507   0.15941   0.05133   0.00000  Uiso   1.00
H356   H     0.66264   0.34125   0.18228   0.00000  Uiso   1.00
H357   H     0.82011   0.43839   0.80969   0.00000  Uiso   1.00
H358   H     0.80580   0.02198   0.05321   0.00000  Uiso   1.00
H359   H     0.63197   0.40543   0.32933   0.00000  Uiso   1.00
O360   O     0.98236   0.49704   0.76303   0.00000  Uiso   1.00
O361   O     0.96358   0.95074   0.08253   0.00000  Uiso   1.00
O362   O     0.73552   0.45382   0.44479   0.00000  Uiso   1.00
N363   N     0.03288   0.44703   0.87656   0.00000  Uiso   1.00
N364   N     0.01951   0.05771   0.10422   0.00000  Uiso   1.00
N365   N     0.85699   0.41620   0.36238   0.00000  Uiso   1.00
N366   N     0.88093   0.43417   0.84136   0.00000  Uiso   1.00
N367   N     0.86756   0.04486   0.06902   0.00000  Uiso   1.00
N368   N     0.70504   0.40334   0.32718   0.00000  Uiso   1.00
