data_job_04085
_audit_creation_date              2018-12-19
_audit_creation_method            'Materials Studio'
_symmetry_space_group_name_H-M    'P1'
_symmetry_Int_Tables_number       1
_symmetry_cell_setting            triclinic
loop_
_symmetry_equiv_pos_as_xyz
  x,y,z
_cell_length_a                    29.1678
_cell_length_b                    10.8861
_cell_length_c                    27.3688
_cell_angle_alpha                 90.0000
_cell_angle_beta                  129.0790
_cell_angle_gamma                 90.0000
loop_
_atom_site_label
_atom_site_type_symbol
_atom_site_fract_x
_atom_site_fract_y
_atom_site_fract_z
_atom_site_U_iso_or_equiv
_atom_site_adp_type
_atom_site_occupancy
C1     C     0.86077   0.05390   0.79725   0.00000  Uiso   1.00
C2     C     0.92036   0.99363   0.84726   0.00000  Uiso   1.00
C3     C     0.93708   0.93747   0.90186   0.00000  Uiso   1.00
C4     C     0.99351   0.88778   0.94161   0.00000  Uiso   1.00
C5     C     0.08023   0.79330   0.02147   0.00000  Uiso   1.00
C6     C     0.87429   0.18560   0.79098   0.00000  Uiso   1.00
C7     C     0.85226   0.29083   0.79826   0.00000  Uiso   1.00
C8     C     0.86990   0.40274   0.79064   0.00000  Uiso   1.00
C9     C     0.88505   0.60628   0.78309   0.00000  Uiso   1.00
C10    C     0.83597   0.99045   0.73535   0.00000  Uiso   1.00
C11    C     0.78172   0.93162   0.69584   0.00000  Uiso   1.00
C12    C     0.76709   0.87926   0.64136   0.00000  Uiso   1.00
C13    C     0.72274   0.77980   0.54742   0.00000  Uiso   1.00
C14    C     0.93126   0.06553   0.77075   0.00000  Uiso   1.00
C15    C     0.95865   0.99996   0.83287   0.00000  Uiso   1.00
C16    C     0.01506   0.95034   0.87255   0.00000  Uiso   1.00
C17    C     0.03187   0.89411   0.92720   0.00000  Uiso   1.00
C18    C     0.91257   0.19192   0.77660   0.00000  Uiso   1.00
C19    C     0.93024   0.30370   0.76895   0.00000  Uiso   1.00
C20    C     0.90825   0.40907   0.77622   0.00000  Uiso   1.00
C21    C     0.87425   0.99676   0.72096   0.00000  Uiso   1.00
C22    C     0.85970   0.94449   0.66653   0.00000  Uiso   1.00
C23    C     0.80544   0.88559   0.62694   0.00000  Uiso   1.00
H24    H     0.83097   0.04899   0.80845   0.00000  Uiso   1.00
H25    H     0.90745   0.93261   0.91298   0.00000  Uiso   1.00
H26    H     0.82263   0.28591   0.80939   0.00000  Uiso   1.00
H27    H     0.75210   0.92675   0.70699   0.00000  Uiso   1.00
H28    H     0.00913   0.80640   0.02253   0.00000  Uiso   1.00
H29    H     0.83028   0.55136   0.80410   0.00000  Uiso   1.00
H30    H     0.68155   0.79402   0.58815   0.00000  Uiso   1.00
H31    H     0.96106   0.07045   0.75955   0.00000  Uiso   1.00
H32    H     0.04468   0.95524   0.86140   0.00000  Uiso   1.00
H33    H     0.95987   0.30855   0.75781   0.00000  Uiso   1.00
H34    H     0.88934   0.94940   0.65541   0.00000  Uiso   1.00
H35    H     0.12051   0.82478   0.98067   0.00000  Uiso   1.00
H36    H     0.94166   0.56974   0.76223   0.00000  Uiso   1.00
H37    H     0.79294   0.81239   0.54629   0.00000  Uiso   1.00
O38    O     0.11749   0.73945   0.06949   0.00000  Uiso   1.00
O39    O     0.88283   0.71681   0.78290   0.00000  Uiso   1.00
O40    O     0.68771   0.72319   0.49959   0.00000  Uiso   1.00
N41    N     0.02386   0.82652   0.99870   0.00000  Uiso   1.00
N42    N     0.85666   0.52301   0.79449   0.00000  Uiso   1.00
N43    N     0.71760   0.81499   0.59258   0.00000  Uiso   1.00
N44    N     0.08380   0.83640   0.97617   0.00000  Uiso   1.00
N45    N     0.91659   0.53290   0.77196   0.00000  Uiso   1.00
N46    N     0.77754   0.82487   0.57006   0.00000  Uiso   1.00
C47    C     0.36077   0.55390   0.79725   0.00000  Uiso   1.00
C48    C     0.42036   0.49363   0.84726   0.00000  Uiso   1.00
C49    C     0.43708   0.43747   0.90186   0.00000  Uiso   1.00
C50    C     0.49351   0.38778   0.94161   0.00000  Uiso   1.00
C51    C     0.58023   0.29330   0.02147   0.00000  Uiso   1.00
C52    C     0.37429   0.68560   0.79098   0.00000  Uiso   1.00
C53    C     0.35226   0.79083   0.79826   0.00000  Uiso   1.00
C54    C     0.36990   0.90274   0.79064   0.00000  Uiso   1.00
C55    C     0.38505   0.10628   0.78309   0.00000  Uiso   1.00
C56    C     0.33597   0.49045   0.73535   0.00000  Uiso   1.00
C57    C     0.28172   0.43162   0.69584   0.00000  Uiso   1.00
C58    C     0.26709   0.37926   0.64136   0.00000  Uiso   1.00
C59    C     0.22274   0.27980   0.54742   0.00000  Uiso   1.00
C60    C     0.43126   0.56553   0.77075   0.00000  Uiso   1.00
C61    C     0.45865   0.49996   0.83287   0.00000  Uiso   1.00
C62    C     0.51506   0.45034   0.87255   0.00000  Uiso   1.00
C63    C     0.53187   0.39411   0.92720   0.00000  Uiso   1.00
C64    C     0.41257   0.69192   0.77660   0.00000  Uiso   1.00
C65    C     0.43024   0.80370   0.76895   0.00000  Uiso   1.00
C66    C     0.40825   0.90907   0.77622   0.00000  Uiso   1.00
C67    C     0.37425   0.49676   0.72096   0.00000  Uiso   1.00
C68    C     0.35970   0.44449   0.66653   0.00000  Uiso   1.00
C69    C     0.30544   0.38559   0.62694   0.00000  Uiso   1.00
H70    H     0.33097   0.54899   0.80845   0.00000  Uiso   1.00
H71    H     0.40745   0.43261   0.91298   0.00000  Uiso   1.00
H72    H     0.32263   0.78591   0.80939   0.00000  Uiso   1.00
H73    H     0.25210   0.42675   0.70699   0.00000  Uiso   1.00
H74    H     0.50913   0.30640   0.02253   0.00000  Uiso   1.00
H75    H     0.33028   0.05136   0.80410   0.00000  Uiso   1.00
H76    H     0.18155   0.29402   0.58815   0.00000  Uiso   1.00
H77    H     0.46106   0.57045   0.75955   0.00000  Uiso   1.00
H78    H     0.54468   0.45524   0.86140   0.00000  Uiso   1.00
H79    H     0.45987   0.80855   0.75781   0.00000  Uiso   1.00
H80    H     0.38934   0.44940   0.65541   0.00000  Uiso   1.00
H81    H     0.62051   0.32478   0.98067   0.00000  Uiso   1.00
H82    H     0.44166   0.06974   0.76223   0.00000  Uiso   1.00
H83    H     0.29294   0.31239   0.54629   0.00000  Uiso   1.00
O84    O     0.61749   0.23945   0.06949   0.00000  Uiso   1.00
O85    O     0.38283   0.21681   0.78290   0.00000  Uiso   1.00
O86    O     0.18771   0.22319   0.49959   0.00000  Uiso   1.00
N87    N     0.52386   0.32652   0.99870   0.00000  Uiso   1.00
N88    N     0.35666   0.02301   0.79449   0.00000  Uiso   1.00
N89    N     0.21760   0.31499   0.59258   0.00000  Uiso   1.00
N90    N     0.58380   0.33640   0.97617   0.00000  Uiso   1.00
N91    N     0.41659   0.03290   0.77196   0.00000  Uiso   1.00
N92    N     0.27754   0.32487   0.57006   0.00000  Uiso   1.00
C93    C     0.13923   0.05390   0.70275   0.00000  Uiso   1.00
C94    C     0.07964   0.99363   0.65274   0.00000  Uiso   1.00
C95    C     0.06292   0.93747   0.59814   0.00000  Uiso   1.00
C96    C     0.00649   0.88778   0.55839   0.00000  Uiso   1.00
C97    C     0.91977   0.79330   0.47853   0.00000  Uiso   1.00
C98    C     0.12571   0.18560   0.70902   0.00000  Uiso   1.00
C99    C     0.14774   0.29083   0.70174   0.00000  Uiso   1.00
C100   C     0.13010   0.40274   0.70936   0.00000  Uiso   1.00
C101   C     0.11495   0.60628   0.71691   0.00000  Uiso   1.00
C102   C     0.16403   0.99045   0.76465   0.00000  Uiso   1.00
C103   C     0.21828   0.93162   0.80416   0.00000  Uiso   1.00
C104   C     0.23291   0.87926   0.85864   0.00000  Uiso   1.00
C105   C     0.27726   0.77980   0.95258   0.00000  Uiso   1.00
C106   C     0.06874   0.06553   0.72925   0.00000  Uiso   1.00
C107   C     0.04135   0.99996   0.66713   0.00000  Uiso   1.00
C108   C     0.98494   0.95034   0.62745   0.00000  Uiso   1.00
C109   C     0.96813   0.89411   0.57280   0.00000  Uiso   1.00
C110   C     0.08743   0.19192   0.72340   0.00000  Uiso   1.00
C111   C     0.06976   0.30370   0.73105   0.00000  Uiso   1.00
C112   C     0.09175   0.40907   0.72378   0.00000  Uiso   1.00
C113   C     0.12575   0.99676   0.77904   0.00000  Uiso   1.00
C114   C     0.14030   0.94449   0.83347   0.00000  Uiso   1.00
C115   C     0.19456   0.88559   0.87306   0.00000  Uiso   1.00
H116   H     0.16903   0.04899   0.69155   0.00000  Uiso   1.00
H117   H     0.09255   0.93261   0.58702   0.00000  Uiso   1.00
H118   H     0.17737   0.28591   0.69061   0.00000  Uiso   1.00
H119   H     0.24790   0.92675   0.79301   0.00000  Uiso   1.00
H120   H     0.99087   0.80640   0.47747   0.00000  Uiso   1.00
H121   H     0.16972   0.55136   0.69590   0.00000  Uiso   1.00
H122   H     0.31845   0.79402   0.91185   0.00000  Uiso   1.00
H123   H     0.03894   0.07045   0.74045   0.00000  Uiso   1.00
H124   H     0.95532   0.95524   0.63860   0.00000  Uiso   1.00
H125   H     0.04013   0.30855   0.74219   0.00000  Uiso   1.00
H126   H     0.11066   0.94940   0.84459   0.00000  Uiso   1.00
H127   H     0.87949   0.82478   0.51933   0.00000  Uiso   1.00
H128   H     0.05834   0.56974   0.73777   0.00000  Uiso   1.00
H129   H     0.20706   0.81239   0.95371   0.00000  Uiso   1.00
O130   O     0.88251   0.73945   0.43051   0.00000  Uiso   1.00
O131   O     0.11717   0.71681   0.71710   0.00000  Uiso   1.00
O132   O     0.31229   0.72319   0.00041   0.00000  Uiso   1.00
N133   N     0.97614   0.82652   0.50130   0.00000  Uiso   1.00
N134   N     0.14334   0.52301   0.70551   0.00000  Uiso   1.00
N135   N     0.28240   0.81499   0.90742   0.00000  Uiso   1.00
N136   N     0.91620   0.83640   0.52383   0.00000  Uiso   1.00
N137   N     0.08341   0.53290   0.72804   0.00000  Uiso   1.00
N138   N     0.22246   0.82487   0.92994   0.00000  Uiso   1.00
C139   C     0.63923   0.55390   0.70275   0.00000  Uiso   1.00
C140   C     0.57964   0.49363   0.65274   0.00000  Uiso   1.00
C141   C     0.56292   0.43747   0.59814   0.00000  Uiso   1.00
C142   C     0.50649   0.38778   0.55839   0.00000  Uiso   1.00
C143   C     0.41977   0.29330   0.47853   0.00000  Uiso   1.00
C144   C     0.62571   0.68560   0.70902   0.00000  Uiso   1.00
C145   C     0.64774   0.79083   0.70174   0.00000  Uiso   1.00
C146   C     0.63010   0.90274   0.70936   0.00000  Uiso   1.00
C147   C     0.61495   0.10628   0.71691   0.00000  Uiso   1.00
C148   C     0.66403   0.49045   0.76465   0.00000  Uiso   1.00
C149   C     0.71828   0.43162   0.80416   0.00000  Uiso   1.00
C150   C     0.73291   0.37926   0.85864   0.00000  Uiso   1.00
C151   C     0.77726   0.27980   0.95258   0.00000  Uiso   1.00
C152   C     0.56874   0.56553   0.72925   0.00000  Uiso   1.00
C153   C     0.54135   0.49996   0.66713   0.00000  Uiso   1.00
C154   C     0.48494   0.45034   0.62745   0.00000  Uiso   1.00
C155   C     0.46813   0.39411   0.57280   0.00000  Uiso   1.00
C156   C     0.58743   0.69192   0.72340   0.00000  Uiso   1.00
C157   C     0.56976   0.80370   0.73105   0.00000  Uiso   1.00
C158   C     0.59175   0.90907   0.72378   0.00000  Uiso   1.00
C159   C     0.62575   0.49676   0.77904   0.00000  Uiso   1.00
C160   C     0.64030   0.44449   0.83347   0.00000  Uiso   1.00
C161   C     0.69456   0.38559   0.87306   0.00000  Uiso   1.00
H162   H     0.66903   0.54899   0.69155   0.00000  Uiso   1.00
H163   H     0.59255   0.43261   0.58702   0.00000  Uiso   1.00
H164   H     0.67737   0.78591   0.69061   0.00000  Uiso   1.00
H165   H     0.74790   0.42675   0.79301   0.00000  Uiso   1.00
H166   H     0.49087   0.30640   0.47747   0.00000  Uiso   1.00
H167   H     0.66972   0.05136   0.69590   0.00000  Uiso   1.00
H168   H     0.81845   0.29402   0.91185   0.00000  Uiso   1.00
H169   H     0.53894   0.57045   0.74045   0.00000  Uiso   1.00
H170   H     0.45532   0.45524   0.63860   0.00000  Uiso   1.00
H171   H     0.54013   0.80855   0.74219   0.00000  Uiso   1.00
H172   H     0.61066   0.44940   0.84459   0.00000  Uiso   1.00
H173   H     0.37949   0.32478   0.51933   0.00000  Uiso   1.00
H174   H     0.55834   0.06974   0.73777   0.00000  Uiso   1.00
H175   H     0.70706   0.31239   0.95371   0.00000  Uiso   1.00
O176   O     0.38251   0.23945   0.43051   0.00000  Uiso   1.00
O177   O     0.61717   0.21681   0.71710   0.00000  Uiso   1.00
O178   O     0.81229   0.22319   0.00041   0.00000  Uiso   1.00
N179   N     0.47614   0.32652   0.50130   0.00000  Uiso   1.00
N180   N     0.64334   0.02301   0.70551   0.00000  Uiso   1.00
N181   N     0.78240   0.31499   0.90742   0.00000  Uiso   1.00
N182   N     0.41620   0.33640   0.52383   0.00000  Uiso   1.00
N183   N     0.58341   0.03290   0.72804   0.00000  Uiso   1.00
N184   N     0.72246   0.32487   0.92994   0.00000  Uiso   1.00
C185   C     0.13923   0.94610   0.20275   0.00000  Uiso   1.00
C186   C     0.07964   0.00637   0.15274   0.00000  Uiso   1.00
C187   C     0.06292   0.06253   0.09814   0.00000  Uiso   1.00
C188   C     0.00649   0.11222   0.05839   0.00000  Uiso   1.00
C189   C     0.91977   0.20670   0.97853   0.00000  Uiso   1.00
C190   C     0.12571   0.81440   0.20902   0.00000  Uiso   1.00
C191   C     0.14774   0.70917   0.20174   0.00000  Uiso   1.00
C192   C     0.13010   0.59726   0.20936   0.00000  Uiso   1.00
C193   C     0.11495   0.39372   0.21691   0.00000  Uiso   1.00
C194   C     0.16403   0.00955   0.26465   0.00000  Uiso   1.00
C195   C     0.21828   0.06838   0.30416   0.00000  Uiso   1.00
C196   C     0.23291   0.12074   0.35864   0.00000  Uiso   1.00
C197   C     0.27726   0.22020   0.45258   0.00000  Uiso   1.00
C198   C     0.06874   0.93447   0.22925   0.00000  Uiso   1.00
C199   C     0.04135   0.00004   0.16713   0.00000  Uiso   1.00
C200   C     0.98494   0.04966   0.12745   0.00000  Uiso   1.00
C201   C     0.96813   0.10589   0.07280   0.00000  Uiso   1.00
C202   C     0.08743   0.80808   0.22340   0.00000  Uiso   1.00
C203   C     0.06976   0.69630   0.23105   0.00000  Uiso   1.00
C204   C     0.09175   0.59093   0.22378   0.00000  Uiso   1.00
C205   C     0.12575   0.00324   0.27904   0.00000  Uiso   1.00
C206   C     0.14030   0.05551   0.33347   0.00000  Uiso   1.00
C207   C     0.19456   0.11441   0.37306   0.00000  Uiso   1.00
H208   H     0.16903   0.95101   0.19155   0.00000  Uiso   1.00
H209   H     0.09255   0.06739   0.08702   0.00000  Uiso   1.00
H210   H     0.17737   0.71409   0.19061   0.00000  Uiso   1.00
H211   H     0.24790   0.07325   0.29301   0.00000  Uiso   1.00
H212   H     0.99087   0.19360   0.97747   0.00000  Uiso   1.00
H213   H     0.16972   0.44864   0.19590   0.00000  Uiso   1.00
H214   H     0.31845   0.20598   0.41185   0.00000  Uiso   1.00
H215   H     0.03894   0.92955   0.24045   0.00000  Uiso   1.00
H216   H     0.95532   0.04476   0.13860   0.00000  Uiso   1.00
H217   H     0.04013   0.69145   0.24219   0.00000  Uiso   1.00
H218   H     0.11066   0.05060   0.34459   0.00000  Uiso   1.00
H219   H     0.87949   0.17522   0.01933   0.00000  Uiso   1.00
H220   H     0.05834   0.43026   0.23777   0.00000  Uiso   1.00
H221   H     0.20706   0.18761   0.45371   0.00000  Uiso   1.00
O222   O     0.88251   0.26055   0.93051   0.00000  Uiso   1.00
O223   O     0.11717   0.28319   0.21710   0.00000  Uiso   1.00
O224   O     0.31229   0.27681   0.50041   0.00000  Uiso   1.00
N225   N     0.97614   0.17348   0.00130   0.00000  Uiso   1.00
N226   N     0.14334   0.47699   0.20551   0.00000  Uiso   1.00
N227   N     0.28240   0.18501   0.40742   0.00000  Uiso   1.00
N228   N     0.91620   0.16360   0.02383   0.00000  Uiso   1.00
N229   N     0.08341   0.46710   0.22804   0.00000  Uiso   1.00
N230   N     0.22246   0.17513   0.42994   0.00000  Uiso   1.00
C231   C     0.63923   0.44610   0.20275   0.00000  Uiso   1.00
C232   C     0.57964   0.50637   0.15274   0.00000  Uiso   1.00
C233   C     0.56292   0.56253   0.09814   0.00000  Uiso   1.00
C234   C     0.50649   0.61222   0.05839   0.00000  Uiso   1.00
C235   C     0.41977   0.70670   0.97853   0.00000  Uiso   1.00
C236   C     0.62571   0.31440   0.20902   0.00000  Uiso   1.00
C237   C     0.64774   0.20917   0.20174   0.00000  Uiso   1.00
C238   C     0.63010   0.09726   0.20936   0.00000  Uiso   1.00
C239   C     0.61495   0.89372   0.21691   0.00000  Uiso   1.00
C240   C     0.66403   0.50955   0.26465   0.00000  Uiso   1.00
C241   C     0.71828   0.56838   0.30416   0.00000  Uiso   1.00
C242   C     0.73291   0.62074   0.35864   0.00000  Uiso   1.00
C243   C     0.77726   0.72020   0.45258   0.00000  Uiso   1.00
C244   C     0.56874   0.43447   0.22925   0.00000  Uiso   1.00
C245   C     0.54135   0.50004   0.16713   0.00000  Uiso   1.00
C246   C     0.48494   0.54966   0.12745   0.00000  Uiso   1.00
C247   C     0.46813   0.60589   0.07280   0.00000  Uiso   1.00
C248   C     0.58743   0.30808   0.22340   0.00000  Uiso   1.00
C249   C     0.56976   0.19630   0.23105   0.00000  Uiso   1.00
C250   C     0.59175   0.09093   0.22378   0.00000  Uiso   1.00
C251   C     0.62575   0.50324   0.27904   0.00000  Uiso   1.00
C252   C     0.64030   0.55551   0.33347   0.00000  Uiso   1.00
C253   C     0.69456   0.61441   0.37306   0.00000  Uiso   1.00
H254   H     0.66903   0.45101   0.19155   0.00000  Uiso   1.00
H255   H     0.59255   0.56739   0.08702   0.00000  Uiso   1.00
H256   H     0.67737   0.21409   0.19061   0.00000  Uiso   1.00
H257   H     0.74790   0.57325   0.29301   0.00000  Uiso   1.00
H258   H     0.49087   0.69360   0.97747   0.00000  Uiso   1.00
H259   H     0.66972   0.94864   0.19590   0.00000  Uiso   1.00
H260   H     0.81845   0.70598   0.41185   0.00000  Uiso   1.00
H261   H     0.53894   0.42955   0.24045   0.00000  Uiso   1.00
H262   H     0.45532   0.54476   0.13860   0.00000  Uiso   1.00
H263   H     0.54013   0.19145   0.24219   0.00000  Uiso   1.00
H264   H     0.61066   0.55060   0.34459   0.00000  Uiso   1.00
H265   H     0.37949   0.67522   0.01933   0.00000  Uiso   1.00
H266   H     0.55834   0.93026   0.23777   0.00000  Uiso   1.00
H267   H     0.70706   0.68761   0.45371   0.00000  Uiso   1.00
O268   O     0.38251   0.76055   0.93051   0.00000  Uiso   1.00
O269   O     0.61717   0.78319   0.21710   0.00000  Uiso   1.00
O270   O     0.81229   0.77681   0.50041   0.00000  Uiso   1.00
N271   N     0.47614   0.67348   0.00130   0.00000  Uiso   1.00
N272   N     0.64334   0.97699   0.20551   0.00000  Uiso   1.00
N273   N     0.78240   0.68501   0.40742   0.00000  Uiso   1.00
N274   N     0.41620   0.66360   0.02383   0.00000  Uiso   1.00
N275   N     0.58341   0.96710   0.22804   0.00000  Uiso   1.00
N276   N     0.72246   0.67513   0.42994   0.00000  Uiso   1.00
C277   C     0.86077   0.94610   0.29725   0.00000  Uiso   1.00
C278   C     0.92036   0.00637   0.34726   0.00000  Uiso   1.00
C279   C     0.93708   0.06253   0.40186   0.00000  Uiso   1.00
C280   C     0.99351   0.11222   0.44161   0.00000  Uiso   1.00
C281   C     0.08023   0.20670   0.52147   0.00000  Uiso   1.00
C282   C     0.87429   0.81440   0.29098   0.00000  Uiso   1.00
C283   C     0.85226   0.70917   0.29826   0.00000  Uiso   1.00
C284   C     0.86990   0.59726   0.29064   0.00000  Uiso   1.00
C285   C     0.88505   0.39372   0.28309   0.00000  Uiso   1.00
C286   C     0.83597   0.00955   0.23535   0.00000  Uiso   1.00
C287   C     0.78172   0.06838   0.19584   0.00000  Uiso   1.00
C288   C     0.76709   0.12074   0.14136   0.00000  Uiso   1.00
C289   C     0.72274   0.22020   0.04742   0.00000  Uiso   1.00
C290   C     0.93126   0.93447   0.27075   0.00000  Uiso   1.00
C291   C     0.95865   0.00004   0.33287   0.00000  Uiso   1.00
C292   C     0.01506   0.04966   0.37255   0.00000  Uiso   1.00
C293   C     0.03187   0.10589   0.42720   0.00000  Uiso   1.00
C294   C     0.91257   0.80808   0.27660   0.00000  Uiso   1.00
C295   C     0.93024   0.69630   0.26895   0.00000  Uiso   1.00
C296   C     0.90825   0.59093   0.27622   0.00000  Uiso   1.00
C297   C     0.87425   0.00324   0.22096   0.00000  Uiso   1.00
C298   C     0.85970   0.05551   0.16653   0.00000  Uiso   1.00
C299   C     0.80544   0.11441   0.12694   0.00000  Uiso   1.00
H300   H     0.83097   0.95101   0.30845   0.00000  Uiso   1.00
H301   H     0.90745   0.06739   0.41298   0.00000  Uiso   1.00
H302   H     0.82263   0.71409   0.30939   0.00000  Uiso   1.00
H303   H     0.75210   0.07325   0.20699   0.00000  Uiso   1.00
H304   H     0.00913   0.19360   0.52253   0.00000  Uiso   1.00
H305   H     0.83028   0.44864   0.30410   0.00000  Uiso   1.00
H306   H     0.68155   0.20598   0.08815   0.00000  Uiso   1.00
H307   H     0.96106   0.92955   0.25955   0.00000  Uiso   1.00
H308   H     0.04468   0.04476   0.36140   0.00000  Uiso   1.00
H309   H     0.95987   0.69145   0.25781   0.00000  Uiso   1.00
H310   H     0.88934   0.05060   0.15541   0.00000  Uiso   1.00
H311   H     0.12051   0.17522   0.48067   0.00000  Uiso   1.00
H312   H     0.94166   0.43026   0.26223   0.00000  Uiso   1.00
H313   H     0.79294   0.18761   0.04629   0.00000  Uiso   1.00
O314   O     0.11749   0.26055   0.56949   0.00000  Uiso   1.00
O315   O     0.88283   0.28319   0.28290   0.00000  Uiso   1.00
O316   O     0.68771   0.27681   0.99959   0.00000  Uiso   1.00
N317   N     0.02386   0.17348   0.49870   0.00000  Uiso   1.00
N318   N     0.85666   0.47699   0.29449   0.00000  Uiso   1.00
N319   N     0.71760   0.18501   0.09258   0.00000  Uiso   1.00
N320   N     0.08380   0.16360   0.47617   0.00000  Uiso   1.00
N321   N     0.91659   0.46710   0.27196   0.00000  Uiso   1.00
N322   N     0.77754   0.17513   0.07006   0.00000  Uiso   1.00
C323   C     0.36077   0.44610   0.29725   0.00000  Uiso   1.00
C324   C     0.42036   0.50637   0.34726   0.00000  Uiso   1.00
C325   C     0.43708   0.56253   0.40186   0.00000  Uiso   1.00
C326   C     0.49351   0.61222   0.44161   0.00000  Uiso   1.00
C327   C     0.58023   0.70670   0.52147   0.00000  Uiso   1.00
C328   C     0.37429   0.31440   0.29098   0.00000  Uiso   1.00
C329   C     0.35226   0.20917   0.29826   0.00000  Uiso   1.00
C330   C     0.36990   0.09726   0.29064   0.00000  Uiso   1.00
C331   C     0.38505   0.89372   0.28309   0.00000  Uiso   1.00
C332   C     0.33597   0.50955   0.23535   0.00000  Uiso   1.00
C333   C     0.28172   0.56838   0.19584   0.00000  Uiso   1.00
C334   C     0.26709   0.62074   0.14136   0.00000  Uiso   1.00
C335   C     0.22274   0.72020   0.04742   0.00000  Uiso   1.00
C336   C     0.43126   0.43447   0.27075   0.00000  Uiso   1.00
C337   C     0.45865   0.50004   0.33287   0.00000  Uiso   1.00
C338   C     0.51506   0.54966   0.37255   0.00000  Uiso   1.00
C339   C     0.53187   0.60589   0.42720   0.00000  Uiso   1.00
C340   C     0.41257   0.30808   0.27660   0.00000  Uiso   1.00
C341   C     0.43024   0.19630   0.26895   0.00000  Uiso   1.00
C342   C     0.40825   0.09093   0.27622   0.00000  Uiso   1.00
C343   C     0.37425   0.50324   0.22096   0.00000  Uiso   1.00
C344   C     0.35970   0.55551   0.16653   0.00000  Uiso   1.00
C345   C     0.30544   0.61441   0.12694   0.00000  Uiso   1.00
H346   H     0.33097   0.45101   0.30845   0.00000  Uiso   1.00
H347   H     0.40745   0.56739   0.41298   0.00000  Uiso   1.00
H348   H     0.32263   0.21409   0.30939   0.00000  Uiso   1.00
H349   H     0.25210   0.57325   0.20699   0.00000  Uiso   1.00
H350   H     0.50913   0.69360   0.52253   0.00000  Uiso   1.00
H351   H     0.33028   0.94864   0.30410   0.00000  Uiso   1.00
H352   H     0.18155   0.70598   0.08815   0.00000  Uiso   1.00
H353   H     0.46106   0.42955   0.25955   0.00000  Uiso   1.00
H354   H     0.54468   0.54476   0.36140   0.00000  Uiso   1.00
H355   H     0.45987   0.19145   0.25781   0.00000  Uiso   1.00
H356   H     0.38934   0.55060   0.15541   0.00000  Uiso   1.00
H357   H     0.62051   0.67522   0.48067   0.00000  Uiso   1.00
H358   H     0.44166   0.93026   0.26223   0.00000  Uiso   1.00
H359   H     0.29294   0.68761   0.04629   0.00000  Uiso   1.00
O360   O     0.61749   0.76055   0.56949   0.00000  Uiso   1.00
O361   O     0.38283   0.78319   0.28290   0.00000  Uiso   1.00
O362   O     0.18771   0.77681   0.99959   0.00000  Uiso   1.00
N363   N     0.52386   0.67348   0.49870   0.00000  Uiso   1.00
N364   N     0.35666   0.97699   0.29449   0.00000  Uiso   1.00
N365   N     0.21760   0.68501   0.09258   0.00000  Uiso   1.00
N366   N     0.58380   0.66360   0.47617   0.00000  Uiso   1.00
N367   N     0.41659   0.96710   0.27196   0.00000  Uiso   1.00
N368   N     0.27754   0.67513   0.07006   0.00000  Uiso   1.00
