data_job_00539
_audit_creation_date              2018-12-19
_audit_creation_method            'Materials Studio'
_symmetry_space_group_name_H-M    'P1'
_symmetry_Int_Tables_number       1
_symmetry_cell_setting            triclinic
loop_
_symmetry_equiv_pos_as_xyz
  x,y,z
_cell_length_a                    13.0470
_cell_length_b                    26.8397
_cell_length_c                    14.5849
_cell_angle_alpha                 90.0000
_cell_angle_beta                  90.0000
_cell_angle_gamma                 90.0000
loop_
_atom_site_label
_atom_site_type_symbol
_atom_site_fract_x
_atom_site_fract_y
_atom_site_fract_z
_atom_site_U_iso_or_equiv
_atom_site_adp_type
_atom_site_occupancy
C1     C     0.52508   0.64141   0.57044   0.00000  Uiso   1.00
C2     C     0.43756   0.62132   0.51182   0.00000  Uiso   1.00
C3     C     0.44683   0.60226   0.42377   0.00000  Uiso   1.00
C4     C     0.35762   0.58576   0.38168   0.00000  Uiso   1.00
C5     C     0.23618   0.55421   0.28387   0.00000  Uiso   1.00
C6     C     0.49505   0.69450   0.59621   0.00000  Uiso   1.00
C7     C     0.55265   0.73697   0.57911   0.00000  Uiso   1.00
C8     C     0.51184   0.78208   0.60807   0.00000  Uiso   1.00
C9     C     0.47967   0.86414   0.64133   0.00000  Uiso   1.00
C10    C     0.52276   0.61156   0.65938   0.00000  Uiso   1.00
C11    C     0.60367   0.58430   0.69542   0.00000  Uiso   1.00
C12    C     0.58619   0.55959   0.77758   0.00000  Uiso   1.00
C13    C     0.59706   0.51288   0.90894   0.00000  Uiso   1.00
C14    C     0.35017   0.64601   0.65229   0.00000  Uiso   1.00
C15    C     0.34256   0.62382   0.55628   0.00000  Uiso   1.00
C16    C     0.25331   0.60735   0.51431   0.00000  Uiso   1.00
C17    C     0.26245   0.58826   0.42621   0.00000  Uiso   1.00
C18    C     0.40005   0.69700   0.64066   0.00000  Uiso   1.00
C19    C     0.35914   0.74206   0.66966   0.00000  Uiso   1.00
C20    C     0.41666   0.78458   0.65260   0.00000  Uiso   1.00
C21    C     0.42776   0.61406   0.70384   0.00000  Uiso   1.00
C22    C     0.41015   0.58939   0.78597   0.00000  Uiso   1.00
C23    C     0.49102   0.56210   0.82212   0.00000  Uiso   1.00
H24    H     0.59904   0.63947   0.53584   0.00000  Uiso   1.00
H25    H     0.52036   0.60033   0.38938   0.00000  Uiso   1.00
H26    H     0.62617   0.73502   0.54471   0.00000  Uiso   1.00
H27    H     0.67718   0.58238   0.66100   0.00000  Uiso   1.00
H28    H     0.39123   0.55806   0.24660   0.00000  Uiso   1.00
H29    H     0.61436   0.84206   0.57415   0.00000  Uiso   1.00
H30    H     0.72192   0.52018   0.81937   0.00000  Uiso   1.00
H31    H     0.27621   0.64796   0.68690   0.00000  Uiso   1.00
H32    H     0.17981   0.60929   0.54873   0.00000  Uiso   1.00
H33    H     0.28562   0.74398   0.70406   0.00000  Uiso   1.00
H34    H     0.33663   0.59133   0.82035   0.00000  Uiso   1.00
H35    H     0.11482   0.56533   0.37593   0.00000  Uiso   1.00
H36    H     0.33795   0.84934   0.70349   0.00000  Uiso   1.00
H37    H     0.44551   0.52745   0.94870   0.00000  Uiso   1.00
O38    O     0.19543   0.53612   0.21764   0.00000  Uiso   1.00
O39    O     0.48818   0.90872   0.64739   0.00000  Uiso   1.00
O40    O     0.62929   0.48642   0.96910   0.00000  Uiso   1.00
N41    N     0.33941   0.56507   0.29601   0.00000  Uiso   1.00
N42    N     0.54801   0.83060   0.60224   0.00000  Uiso   1.00
N43    N     0.64858   0.52968   0.83151   0.00000  Uiso   1.00
N44    N     0.19068   0.56898   0.36560   0.00000  Uiso   1.00
N45    N     0.39928   0.83451   0.67183   0.00000  Uiso   1.00
N46    N     0.49985   0.53359   0.90110   0.00000  Uiso   1.00
C47    C     0.97492   0.35859   0.07044   0.00000  Uiso   1.00
C48    C     0.06244   0.37868   0.01182   0.00000  Uiso   1.00
C49    C     0.05317   0.39774   0.92377   0.00000  Uiso   1.00
C50    C     0.14238   0.41424   0.88168   0.00000  Uiso   1.00
C51    C     0.26382   0.44579   0.78387   0.00000  Uiso   1.00
C52    C     0.00495   0.30550   0.09621   0.00000  Uiso   1.00
C53    C     0.94735   0.26303   0.07911   0.00000  Uiso   1.00
C54    C     0.98816   0.21792   0.10807   0.00000  Uiso   1.00
C55    C     0.02033   0.13586   0.14133   0.00000  Uiso   1.00
C56    C     0.97724   0.38844   0.15938   0.00000  Uiso   1.00
C57    C     0.89633   0.41570   0.19542   0.00000  Uiso   1.00
C58    C     0.91381   0.44041   0.27758   0.00000  Uiso   1.00
C59    C     0.90294   0.48712   0.40894   0.00000  Uiso   1.00
C60    C     0.14983   0.35399   0.15229   0.00000  Uiso   1.00
C61    C     0.15744   0.37618   0.05628   0.00000  Uiso   1.00
C62    C     0.24669   0.39265   0.01431   0.00000  Uiso   1.00
C63    C     0.23755   0.41174   0.92621   0.00000  Uiso   1.00
C64    C     0.09995   0.30300   0.14066   0.00000  Uiso   1.00
C65    C     0.14086   0.25794   0.16966   0.00000  Uiso   1.00
C66    C     0.08334   0.21542   0.15260   0.00000  Uiso   1.00
C67    C     0.07224   0.38594   0.20384   0.00000  Uiso   1.00
C68    C     0.08985   0.41061   0.28597   0.00000  Uiso   1.00
C69    C     0.00898   0.43790   0.32212   0.00000  Uiso   1.00
H70    H     0.90096   0.36053   0.03584   0.00000  Uiso   1.00
H71    H     0.97964   0.39967   0.88938   0.00000  Uiso   1.00
H72    H     0.87383   0.26498   0.04471   0.00000  Uiso   1.00
H73    H     0.82282   0.41762   0.16100   0.00000  Uiso   1.00
H74    H     0.10877   0.44194   0.74660   0.00000  Uiso   1.00
H75    H     0.88564   0.15794   0.07415   0.00000  Uiso   1.00
H76    H     0.77808   0.47982   0.31937   0.00000  Uiso   1.00
H77    H     0.22379   0.35204   0.18690   0.00000  Uiso   1.00
H78    H     0.32019   0.39071   0.04873   0.00000  Uiso   1.00
H79    H     0.21438   0.25602   0.20406   0.00000  Uiso   1.00
H80    H     0.16337   0.40867   0.32035   0.00000  Uiso   1.00
H81    H     0.38518   0.43467   0.87593   0.00000  Uiso   1.00
H82    H     0.16205   0.15066   0.20349   0.00000  Uiso   1.00
H83    H     0.05449   0.47255   0.44870   0.00000  Uiso   1.00
O84    O     0.30457   0.46388   0.71764   0.00000  Uiso   1.00
O85    O     0.01182   0.09128   0.14739   0.00000  Uiso   1.00
O86    O     0.87071   0.51358   0.46910   0.00000  Uiso   1.00
N87    N     0.16059   0.43493   0.79601   0.00000  Uiso   1.00
N88    N     0.95199   0.16940   0.10224   0.00000  Uiso   1.00
N89    N     0.85142   0.47032   0.33151   0.00000  Uiso   1.00
N90    N     0.30932   0.43102   0.86560   0.00000  Uiso   1.00
N91    N     0.10072   0.16549   0.17183   0.00000  Uiso   1.00
N92    N     0.00015   0.46641   0.40110   0.00000  Uiso   1.00
C93    C     0.47492   0.14141   0.92956   0.00000  Uiso   1.00
C94    C     0.56244   0.12132   0.98818   0.00000  Uiso   1.00
C95    C     0.55317   0.10226   0.07623   0.00000  Uiso   1.00
C96    C     0.64238   0.08576   0.11832   0.00000  Uiso   1.00
C97    C     0.76382   0.05421   0.21613   0.00000  Uiso   1.00
C98    C     0.50495   0.19450   0.90379   0.00000  Uiso   1.00
C99    C     0.44735   0.23697   0.92089   0.00000  Uiso   1.00
C100   C     0.48816   0.28208   0.89193   0.00000  Uiso   1.00
C101   C     0.52033   0.36414   0.85867   0.00000  Uiso   1.00
C102   C     0.47724   0.11156   0.84062   0.00000  Uiso   1.00
C103   C     0.39633   0.08430   0.80458   0.00000  Uiso   1.00
C104   C     0.41381   0.05959   0.72242   0.00000  Uiso   1.00
C105   C     0.40294   0.01288   0.59106   0.00000  Uiso   1.00
C106   C     0.64983   0.14601   0.84771   0.00000  Uiso   1.00
C107   C     0.65744   0.12382   0.94372   0.00000  Uiso   1.00
C108   C     0.74669   0.10735   0.98569   0.00000  Uiso   1.00
C109   C     0.73755   0.08826   0.07379   0.00000  Uiso   1.00
C110   C     0.59995   0.19700   0.85934   0.00000  Uiso   1.00
C111   C     0.64086   0.24206   0.83034   0.00000  Uiso   1.00
C112   C     0.58334   0.28458   0.84740   0.00000  Uiso   1.00
C113   C     0.57224   0.11406   0.79616   0.00000  Uiso   1.00
C114   C     0.58985   0.08939   0.71403   0.00000  Uiso   1.00
C115   C     0.50898   0.06210   0.67788   0.00000  Uiso   1.00
H116   H     0.40096   0.13947   0.96416   0.00000  Uiso   1.00
H117   H     0.47964   0.10033   0.11062   0.00000  Uiso   1.00
H118   H     0.37383   0.23502   0.95529   0.00000  Uiso   1.00
H119   H     0.32282   0.08238   0.83900   0.00000  Uiso   1.00
H120   H     0.60877   0.05806   0.25340   0.00000  Uiso   1.00
H121   H     0.38564   0.34206   0.92585   0.00000  Uiso   1.00
H122   H     0.27808   0.02018   0.68063   0.00000  Uiso   1.00
H123   H     0.72379   0.14796   0.81310   0.00000  Uiso   1.00
H124   H     0.82019   0.10929   0.95127   0.00000  Uiso   1.00
H125   H     0.71438   0.24398   0.79594   0.00000  Uiso   1.00
H126   H     0.66337   0.09133   0.67965   0.00000  Uiso   1.00
H127   H     0.88518   0.06533   0.12407   0.00000  Uiso   1.00
H128   H     0.66205   0.34934   0.79651   0.00000  Uiso   1.00
H129   H     0.55449   0.02745   0.55130   0.00000  Uiso   1.00
O130   O     0.80457   0.03612   0.28236   0.00000  Uiso   1.00
O131   O     0.51182   0.40872   0.85261   0.00000  Uiso   1.00
O132   O     0.37071   0.98642   0.53090   0.00000  Uiso   1.00
N133   N     0.66059   0.06507   0.20399   0.00000  Uiso   1.00
N134   N     0.45199   0.33060   0.89776   0.00000  Uiso   1.00
N135   N     0.35142   0.02968   0.66849   0.00000  Uiso   1.00
N136   N     0.80932   0.06898   0.13440   0.00000  Uiso   1.00
N137   N     0.60072   0.33451   0.82817   0.00000  Uiso   1.00
N138   N     0.50015   0.03359   0.59890   0.00000  Uiso   1.00
C139   C     0.02508   0.85859   0.42956   0.00000  Uiso   1.00
C140   C     0.93756   0.87868   0.48818   0.00000  Uiso   1.00
C141   C     0.94683   0.89774   0.57623   0.00000  Uiso   1.00
C142   C     0.85762   0.91424   0.61832   0.00000  Uiso   1.00
C143   C     0.73618   0.94579   0.71613   0.00000  Uiso   1.00
C144   C     0.99505   0.80550   0.40379   0.00000  Uiso   1.00
C145   C     0.05265   0.76303   0.42089   0.00000  Uiso   1.00
C146   C     0.01184   0.71792   0.39193   0.00000  Uiso   1.00
C147   C     0.97967   0.63586   0.35867   0.00000  Uiso   1.00
C148   C     0.02276   0.88844   0.34062   0.00000  Uiso   1.00
C149   C     0.10367   0.91570   0.30458   0.00000  Uiso   1.00
C150   C     0.08619   0.94041   0.22242   0.00000  Uiso   1.00
C151   C     0.09706   0.98712   0.09106   0.00000  Uiso   1.00
C152   C     0.85017   0.85399   0.34771   0.00000  Uiso   1.00
C153   C     0.84256   0.87618   0.44372   0.00000  Uiso   1.00
C154   C     0.75331   0.89265   0.48569   0.00000  Uiso   1.00
C155   C     0.76245   0.91174   0.57379   0.00000  Uiso   1.00
C156   C     0.90005   0.80300   0.35934   0.00000  Uiso   1.00
C157   C     0.85914   0.75794   0.33034   0.00000  Uiso   1.00
C158   C     0.91666   0.71542   0.34740   0.00000  Uiso   1.00
C159   C     0.92776   0.88594   0.29616   0.00000  Uiso   1.00
C160   C     0.91015   0.91061   0.21403   0.00000  Uiso   1.00
C161   C     0.99102   0.93790   0.17788   0.00000  Uiso   1.00
H162   H     0.09904   0.86053   0.46416   0.00000  Uiso   1.00
H163   H     0.02036   0.89967   0.61062   0.00000  Uiso   1.00
H164   H     0.12617   0.76498   0.45529   0.00000  Uiso   1.00
H165   H     0.17718   0.91762   0.33900   0.00000  Uiso   1.00
H166   H     0.89123   0.94194   0.75340   0.00000  Uiso   1.00
H167   H     0.11436   0.65794   0.42585   0.00000  Uiso   1.00
H168   H     0.22192   0.97982   0.18063   0.00000  Uiso   1.00
H169   H     0.77621   0.85204   0.31310   0.00000  Uiso   1.00
H170   H     0.67981   0.89071   0.45127   0.00000  Uiso   1.00
H171   H     0.78562   0.75602   0.29594   0.00000  Uiso   1.00
H172   H     0.83663   0.90867   0.17965   0.00000  Uiso   1.00
H173   H     0.61482   0.93467   0.62407   0.00000  Uiso   1.00
H174   H     0.83795   0.65066   0.29651   0.00000  Uiso   1.00
H175   H     0.94551   0.97255   0.05130   0.00000  Uiso   1.00
O176   O     0.69543   0.96388   0.78236   0.00000  Uiso   1.00
O177   O     0.98818   0.59128   0.35261   0.00000  Uiso   1.00
O178   O     0.12929   0.01358   0.03090   0.00000  Uiso   1.00
N179   N     0.83941   0.93493   0.70399   0.00000  Uiso   1.00
N180   N     0.04801   0.66940   0.39776   0.00000  Uiso   1.00
N181   N     0.14858   0.97032   0.16849   0.00000  Uiso   1.00
N182   N     0.69068   0.93102   0.63440   0.00000  Uiso   1.00
N183   N     0.89928   0.66549   0.32817   0.00000  Uiso   1.00
N184   N     0.99985   0.96641   0.09890   0.00000  Uiso   1.00
C185   C     0.47492   0.35859   0.42956   0.00000  Uiso   1.00
C186   C     0.56244   0.37868   0.48818   0.00000  Uiso   1.00
C187   C     0.55317   0.39774   0.57623   0.00000  Uiso   1.00
C188   C     0.64238   0.41424   0.61832   0.00000  Uiso   1.00
C189   C     0.76382   0.44579   0.71613   0.00000  Uiso   1.00
C190   C     0.50495   0.30550   0.40379   0.00000  Uiso   1.00
C191   C     0.44735   0.26303   0.42089   0.00000  Uiso   1.00
C192   C     0.48816   0.21792   0.39193   0.00000  Uiso   1.00
C193   C     0.52033   0.13586   0.35867   0.00000  Uiso   1.00
C194   C     0.47724   0.38844   0.34062   0.00000  Uiso   1.00
C195   C     0.39633   0.41570   0.30458   0.00000  Uiso   1.00
C196   C     0.41381   0.44041   0.22242   0.00000  Uiso   1.00
C197   C     0.40294   0.48712   0.09106   0.00000  Uiso   1.00
C198   C     0.64983   0.35399   0.34771   0.00000  Uiso   1.00
C199   C     0.65744   0.37618   0.44372   0.00000  Uiso   1.00
C200   C     0.74669   0.39265   0.48569   0.00000  Uiso   1.00
C201   C     0.73755   0.41174   0.57379   0.00000  Uiso   1.00
C202   C     0.59995   0.30300   0.35934   0.00000  Uiso   1.00
C203   C     0.64086   0.25794   0.33034   0.00000  Uiso   1.00
C204   C     0.58334   0.21542   0.34740   0.00000  Uiso   1.00
C205   C     0.57224   0.38594   0.29616   0.00000  Uiso   1.00
C206   C     0.58985   0.41061   0.21403   0.00000  Uiso   1.00
C207   C     0.50898   0.43790   0.17788   0.00000  Uiso   1.00
H208   H     0.40096   0.36053   0.46416   0.00000  Uiso   1.00
H209   H     0.47964   0.39967   0.61062   0.00000  Uiso   1.00
H210   H     0.37383   0.26498   0.45529   0.00000  Uiso   1.00
H211   H     0.32282   0.41762   0.33900   0.00000  Uiso   1.00
H212   H     0.60877   0.44194   0.75340   0.00000  Uiso   1.00
H213   H     0.38564   0.15794   0.42585   0.00000  Uiso   1.00
H214   H     0.27808   0.47982   0.18063   0.00000  Uiso   1.00
H215   H     0.72379   0.35204   0.31310   0.00000  Uiso   1.00
H216   H     0.82019   0.39071   0.45127   0.00000  Uiso   1.00
H217   H     0.71438   0.25602   0.29594   0.00000  Uiso   1.00
H218   H     0.66337   0.40867   0.17965   0.00000  Uiso   1.00
H219   H     0.88518   0.43467   0.62407   0.00000  Uiso   1.00
H220   H     0.66205   0.15066   0.29651   0.00000  Uiso   1.00
H221   H     0.55449   0.47255   0.05130   0.00000  Uiso   1.00
O222   O     0.80457   0.46388   0.78236   0.00000  Uiso   1.00
O223   O     0.51182   0.09128   0.35261   0.00000  Uiso   1.00
O224   O     0.37071   0.51358   0.03090   0.00000  Uiso   1.00
N225   N     0.66059   0.43493   0.70399   0.00000  Uiso   1.00
N226   N     0.45199   0.16940   0.39776   0.00000  Uiso   1.00
N227   N     0.35142   0.47032   0.16849   0.00000  Uiso   1.00
N228   N     0.80932   0.43102   0.63440   0.00000  Uiso   1.00
N229   N     0.60072   0.16549   0.32817   0.00000  Uiso   1.00
N230   N     0.50015   0.46641   0.09890   0.00000  Uiso   1.00
C231   C     0.02508   0.64141   0.92956   0.00000  Uiso   1.00
C232   C     0.93756   0.62132   0.98818   0.00000  Uiso   1.00
C233   C     0.94683   0.60226   0.07623   0.00000  Uiso   1.00
C234   C     0.85762   0.58576   0.11832   0.00000  Uiso   1.00
C235   C     0.73618   0.55421   0.21613   0.00000  Uiso   1.00
C236   C     0.99505   0.69450   0.90379   0.00000  Uiso   1.00
C237   C     0.05265   0.73697   0.92089   0.00000  Uiso   1.00
C238   C     0.01184   0.78208   0.89193   0.00000  Uiso   1.00
C239   C     0.97967   0.86414   0.85867   0.00000  Uiso   1.00
C240   C     0.02276   0.61156   0.84062   0.00000  Uiso   1.00
C241   C     0.10367   0.58430   0.80458   0.00000  Uiso   1.00
C242   C     0.08619   0.55959   0.72242   0.00000  Uiso   1.00
C243   C     0.09706   0.51288   0.59106   0.00000  Uiso   1.00
C244   C     0.85017   0.64601   0.84771   0.00000  Uiso   1.00
C245   C     0.84256   0.62382   0.94372   0.00000  Uiso   1.00
C246   C     0.75331   0.60735   0.98569   0.00000  Uiso   1.00
C247   C     0.76245   0.58826   0.07379   0.00000  Uiso   1.00
C248   C     0.90005   0.69700   0.85934   0.00000  Uiso   1.00
C249   C     0.85914   0.74206   0.83034   0.00000  Uiso   1.00
C250   C     0.91666   0.78458   0.84740   0.00000  Uiso   1.00
C251   C     0.92776   0.61406   0.79616   0.00000  Uiso   1.00
C252   C     0.91015   0.58939   0.71403   0.00000  Uiso   1.00
C253   C     0.99102   0.56210   0.67788   0.00000  Uiso   1.00
H254   H     0.09904   0.63947   0.96416   0.00000  Uiso   1.00
H255   H     0.02036   0.60033   0.11062   0.00000  Uiso   1.00
H256   H     0.12617   0.73502   0.95529   0.00000  Uiso   1.00
H257   H     0.17718   0.58238   0.83900   0.00000  Uiso   1.00
H258   H     0.89123   0.55806   0.25340   0.00000  Uiso   1.00
H259   H     0.11436   0.84206   0.92585   0.00000  Uiso   1.00
H260   H     0.22192   0.52018   0.68063   0.00000  Uiso   1.00
H261   H     0.77621   0.64796   0.81310   0.00000  Uiso   1.00
H262   H     0.67981   0.60929   0.95127   0.00000  Uiso   1.00
H263   H     0.78562   0.74398   0.79594   0.00000  Uiso   1.00
H264   H     0.83663   0.59133   0.67965   0.00000  Uiso   1.00
H265   H     0.61482   0.56533   0.12407   0.00000  Uiso   1.00
H266   H     0.83795   0.84934   0.79651   0.00000  Uiso   1.00
H267   H     0.94551   0.52745   0.55130   0.00000  Uiso   1.00
O268   O     0.69543   0.53612   0.28236   0.00000  Uiso   1.00
O269   O     0.98818   0.90872   0.85261   0.00000  Uiso   1.00
O270   O     0.12929   0.48642   0.53090   0.00000  Uiso   1.00
N271   N     0.83941   0.56507   0.20399   0.00000  Uiso   1.00
N272   N     0.04801   0.83060   0.89776   0.00000  Uiso   1.00
N273   N     0.14858   0.52968   0.66849   0.00000  Uiso   1.00
N274   N     0.69068   0.56898   0.13440   0.00000  Uiso   1.00
N275   N     0.89928   0.83451   0.82817   0.00000  Uiso   1.00
N276   N     0.99985   0.53359   0.59890   0.00000  Uiso   1.00
C277   C     0.52508   0.85859   0.07044   0.00000  Uiso   1.00
C278   C     0.43756   0.87868   0.01182   0.00000  Uiso   1.00
C279   C     0.44683   0.89774   0.92377   0.00000  Uiso   1.00
C280   C     0.35762   0.91424   0.88168   0.00000  Uiso   1.00
C281   C     0.23618   0.94579   0.78387   0.00000  Uiso   1.00
C282   C     0.49505   0.80550   0.09621   0.00000  Uiso   1.00
C283   C     0.55265   0.76303   0.07911   0.00000  Uiso   1.00
C284   C     0.51184   0.71792   0.10807   0.00000  Uiso   1.00
C285   C     0.47967   0.63586   0.14133   0.00000  Uiso   1.00
C286   C     0.52276   0.88844   0.15938   0.00000  Uiso   1.00
C287   C     0.60367   0.91570   0.19542   0.00000  Uiso   1.00
C288   C     0.58619   0.94041   0.27758   0.00000  Uiso   1.00
C289   C     0.59706   0.98712   0.40894   0.00000  Uiso   1.00
C290   C     0.35017   0.85399   0.15229   0.00000  Uiso   1.00
C291   C     0.34256   0.87618   0.05628   0.00000  Uiso   1.00
C292   C     0.25331   0.89265   0.01431   0.00000  Uiso   1.00
C293   C     0.26245   0.91174   0.92621   0.00000  Uiso   1.00
C294   C     0.40005   0.80300   0.14066   0.00000  Uiso   1.00
C295   C     0.35914   0.75794   0.16966   0.00000  Uiso   1.00
C296   C     0.41666   0.71542   0.15260   0.00000  Uiso   1.00
C297   C     0.42776   0.88594   0.20384   0.00000  Uiso   1.00
C298   C     0.41015   0.91061   0.28597   0.00000  Uiso   1.00
C299   C     0.49102   0.93790   0.32212   0.00000  Uiso   1.00
H300   H     0.59904   0.86053   0.03584   0.00000  Uiso   1.00
H301   H     0.52036   0.89967   0.88938   0.00000  Uiso   1.00
H302   H     0.62617   0.76498   0.04471   0.00000  Uiso   1.00
H303   H     0.67718   0.91762   0.16100   0.00000  Uiso   1.00
H304   H     0.39123   0.94194   0.74660   0.00000  Uiso   1.00
H305   H     0.61436   0.65794   0.07415   0.00000  Uiso   1.00
H306   H     0.72192   0.97982   0.31937   0.00000  Uiso   1.00
H307   H     0.27621   0.85204   0.18690   0.00000  Uiso   1.00
H308   H     0.17981   0.89071   0.04873   0.00000  Uiso   1.00
H309   H     0.28562   0.75602   0.20406   0.00000  Uiso   1.00
H310   H     0.33663   0.90867   0.32035   0.00000  Uiso   1.00
H311   H     0.11482   0.93467   0.87593   0.00000  Uiso   1.00
H312   H     0.33795   0.65066   0.20349   0.00000  Uiso   1.00
H313   H     0.44551   0.97255   0.44870   0.00000  Uiso   1.00
O314   O     0.19543   0.96388   0.71764   0.00000  Uiso   1.00
O315   O     0.48818   0.59128   0.14739   0.00000  Uiso   1.00
O316   O     0.62929   0.01358   0.46910   0.00000  Uiso   1.00
N317   N     0.33941   0.93493   0.79601   0.00000  Uiso   1.00
N318   N     0.54801   0.66940   0.10224   0.00000  Uiso   1.00
N319   N     0.64858   0.97032   0.33151   0.00000  Uiso   1.00
N320   N     0.19068   0.93102   0.86560   0.00000  Uiso   1.00
N321   N     0.39928   0.66549   0.17183   0.00000  Uiso   1.00
N322   N     0.49985   0.96641   0.40110   0.00000  Uiso   1.00
C323   C     0.97492   0.14141   0.57044   0.00000  Uiso   1.00
C324   C     0.06244   0.12132   0.51182   0.00000  Uiso   1.00
C325   C     0.05317   0.10226   0.42377   0.00000  Uiso   1.00
C326   C     0.14238   0.08576   0.38168   0.00000  Uiso   1.00
C327   C     0.26382   0.05421   0.28387   0.00000  Uiso   1.00
C328   C     0.00495   0.19450   0.59621   0.00000  Uiso   1.00
C329   C     0.94735   0.23697   0.57911   0.00000  Uiso   1.00
C330   C     0.98816   0.28208   0.60807   0.00000  Uiso   1.00
C331   C     0.02033   0.36414   0.64133   0.00000  Uiso   1.00
C332   C     0.97724   0.11156   0.65938   0.00000  Uiso   1.00
C333   C     0.89633   0.08430   0.69542   0.00000  Uiso   1.00
C334   C     0.91381   0.05959   0.77758   0.00000  Uiso   1.00
C335   C     0.90294   0.01288   0.90894   0.00000  Uiso   1.00
C336   C     0.14983   0.14601   0.65229   0.00000  Uiso   1.00
C337   C     0.15744   0.12382   0.55628   0.00000  Uiso   1.00
C338   C     0.24669   0.10735   0.51431   0.00000  Uiso   1.00
C339   C     0.23755   0.08826   0.42621   0.00000  Uiso   1.00
C340   C     0.09995   0.19700   0.64066   0.00000  Uiso   1.00
C341   C     0.14086   0.24206   0.66966   0.00000  Uiso   1.00
C342   C     0.08334   0.28458   0.65260   0.00000  Uiso   1.00
C343   C     0.07224   0.11406   0.70384   0.00000  Uiso   1.00
C344   C     0.08985   0.08939   0.78597   0.00000  Uiso   1.00
C345   C     0.00898   0.06210   0.82212   0.00000  Uiso   1.00
H346   H     0.90096   0.13947   0.53584   0.00000  Uiso   1.00
H347   H     0.97964   0.10033   0.38938   0.00000  Uiso   1.00
H348   H     0.87383   0.23502   0.54471   0.00000  Uiso   1.00
H349   H     0.82282   0.08238   0.66100   0.00000  Uiso   1.00
H350   H     0.10877   0.05806   0.24660   0.00000  Uiso   1.00
H351   H     0.88564   0.34206   0.57415   0.00000  Uiso   1.00
H352   H     0.77808   0.02018   0.81937   0.00000  Uiso   1.00
H353   H     0.22379   0.14796   0.68690   0.00000  Uiso   1.00
H354   H     0.32019   0.10929   0.54873   0.00000  Uiso   1.00
H355   H     0.21438   0.24398   0.70406   0.00000  Uiso   1.00
H356   H     0.16337   0.09133   0.82035   0.00000  Uiso   1.00
H357   H     0.38518   0.06533   0.37593   0.00000  Uiso   1.00
H358   H     0.16205   0.34934   0.70349   0.00000  Uiso   1.00
H359   H     0.05449   0.02745   0.94870   0.00000  Uiso   1.00
O360   O     0.30457   0.03612   0.21764   0.00000  Uiso   1.00
O361   O     0.01182   0.40872   0.64739   0.00000  Uiso   1.00
O362   O     0.87071   0.98642   0.96910   0.00000  Uiso   1.00
N363   N     0.16059   0.06507   0.29601   0.00000  Uiso   1.00
N364   N     0.95199   0.33060   0.60224   0.00000  Uiso   1.00
N365   N     0.85142   0.02968   0.83151   0.00000  Uiso   1.00
N366   N     0.30932   0.06898   0.36560   0.00000  Uiso   1.00
N367   N     0.10072   0.33451   0.67183   0.00000  Uiso   1.00
N368   N     0.00015   0.03359   0.90110   0.00000  Uiso   1.00
