data_job_02012
_audit_creation_date              2018-12-19
_audit_creation_method            'Materials Studio'
_symmetry_space_group_name_H-M    'P1'
_symmetry_Int_Tables_number       1
_symmetry_cell_setting            triclinic
loop_
_symmetry_equiv_pos_as_xyz
  x,y,z
_cell_length_a                    25.3230
_cell_length_b                    12.5548
_cell_length_c                    19.8796
_cell_angle_alpha                 90.0000
_cell_angle_beta                  153.0722
_cell_angle_gamma                 90.0000
loop_
_atom_site_label
_atom_site_type_symbol
_atom_site_fract_x
_atom_site_fract_y
_atom_site_fract_z
_atom_site_U_iso_or_equiv
_atom_site_adp_type
_atom_site_occupancy
C1     C     0.45408   0.45340   0.77999   0.00000  Uiso   1.00
C2     C     0.35880   0.46172   0.61853   0.00000  Uiso   1.00
C3     C     0.26023   0.39792   0.50257   0.00000  Uiso   1.00
C4     C     0.18349   0.41819   0.36293   0.00000  Uiso   1.00
C5     C     0.03235   0.41874   0.11569   0.00000  Uiso   1.00
C6     C     0.56802   0.43777   0.87110   0.00000  Uiso   1.00
C7     C     0.64536   0.35383   0.96750   0.00000  Uiso   1.00
C8     C     0.74475   0.35395   0.04049   0.00000  Uiso   1.00
C9     C     0.91847   0.31735   0.18545   0.00000  Uiso   1.00
C10    C     0.46215   0.56311   0.82173   0.00000  Uiso   1.00
C11    C     0.45051   0.58456   0.87666   0.00000  Uiso   1.00
C12    C     0.46079   0.69021   0.90812   0.00000  Uiso   1.00
C13    C     0.47014   0.84822   0.97643   0.00000  Uiso   1.00
C14    C     0.49308   0.60286   0.73824   0.00000  Uiso   1.00
C15    C     0.37999   0.54291   0.59586   0.00000  Uiso   1.00
C16    C     0.30338   0.56328   0.45636   0.00000  Uiso   1.00
C17    C     0.20470   0.49952   0.34021   0.00000  Uiso   1.00
C18    C     0.58920   0.51895   0.84842   0.00000  Uiso   1.00
C19    C     0.68851   0.51919   0.92130   0.00000  Uiso   1.00
C20    C     0.76597   0.43528   0.01777   0.00000  Uiso   1.00
C21    C     0.48333   0.64429   0.79905   0.00000  Uiso   1.00
C22    C     0.49365   0.74993   0.83045   0.00000  Uiso   1.00
C23    C     0.48202   0.77154   0.88541   0.00000  Uiso   1.00
H24    H     0.43759   0.39019   0.79766   0.00000  Uiso   1.00
H25    H     0.24387   0.33510   0.52017   0.00000  Uiso   1.00
H26    H     0.62894   0.29102   0.98504   0.00000  Uiso   1.00
H27    H     0.43411   0.52172   0.89420   0.00000  Uiso   1.00
H28    H     0.03845   0.30979   0.20252   0.00000  Uiso   1.00
H29    H     0.85043   0.21688   0.18277   0.00000  Uiso   1.00
H30    H     0.43960   0.70335   0.99123   0.00000  Uiso   1.00
H31    H     0.50958   0.66606   0.72058   0.00000  Uiso   1.00
H32    H     0.31979   0.62611   0.43885   0.00000  Uiso   1.00
H33    H     0.70487   0.58203   0.90372   0.00000  Uiso   1.00
H34    H     0.51004   0.81273   0.81289   0.00000  Uiso   1.00
H35    H     0.10008   0.54599   0.13652   0.00000  Uiso   1.00
H36    H     0.91206   0.45307   0.11678   0.00000  Uiso   1.00
H37    H     0.50122   0.93954   0.92523   0.00000  Uiso   1.00
O38    O     0.94314   0.39661   0.98559   0.00000  Uiso   1.00
O39    O     0.00843   0.27472   0.27166   0.00000  Uiso   1.00
O40    O     0.46942   0.91295   0.02035   0.00000  Uiso   1.00
N41    N     0.07899   0.37088   0.22565   0.00000  Uiso   1.00
N42    N     0.83813   0.28400   0.14210   0.00000  Uiso   1.00
N43    N     0.45407   0.73880   0.96306   0.00000  Uiso   1.00
N44    N     0.11215   0.49797   0.19013   0.00000  Uiso   1.00
N45    N     0.87129   0.41109   0.10659   0.00000  Uiso   1.00
N46    N     0.48723   0.86590   0.92755   0.00000  Uiso   1.00
C47    C     0.54592   0.95340   0.72001   0.00000  Uiso   1.00
C48    C     0.64120   0.96172   0.88147   0.00000  Uiso   1.00
C49    C     0.73977   0.89792   0.99743   0.00000  Uiso   1.00
C50    C     0.81651   0.91819   0.13707   0.00000  Uiso   1.00
C51    C     0.96765   0.91874   0.38431   0.00000  Uiso   1.00
C52    C     0.43198   0.93777   0.62890   0.00000  Uiso   1.00
C53    C     0.35464   0.85383   0.53250   0.00000  Uiso   1.00
C54    C     0.25525   0.85395   0.45951   0.00000  Uiso   1.00
C55    C     0.08153   0.81735   0.31455   0.00000  Uiso   1.00
C56    C     0.53785   0.06311   0.67827   0.00000  Uiso   1.00
C57    C     0.54949   0.08456   0.62334   0.00000  Uiso   1.00
C58    C     0.53921   0.19021   0.59188   0.00000  Uiso   1.00
C59    C     0.52986   0.34822   0.52357   0.00000  Uiso   1.00
C60    C     0.50692   0.10286   0.76176   0.00000  Uiso   1.00
C61    C     0.62001   0.04291   0.90414   0.00000  Uiso   1.00
C62    C     0.69662   0.06328   0.04364   0.00000  Uiso   1.00
C63    C     0.79530   0.99952   0.15979   0.00000  Uiso   1.00
C64    C     0.41080   0.01895   0.65158   0.00000  Uiso   1.00
C65    C     0.31149   0.01919   0.57870   0.00000  Uiso   1.00
C66    C     0.23403   0.93528   0.48223   0.00000  Uiso   1.00
C67    C     0.51667   0.14429   0.70095   0.00000  Uiso   1.00
C68    C     0.50635   0.24993   0.66955   0.00000  Uiso   1.00
C69    C     0.51798   0.27154   0.61459   0.00000  Uiso   1.00
H70    H     0.56241   0.89019   0.70234   0.00000  Uiso   1.00
H71    H     0.75613   0.83510   0.97983   0.00000  Uiso   1.00
H72    H     0.37106   0.79102   0.51496   0.00000  Uiso   1.00
H73    H     0.56589   0.02172   0.60580   0.00000  Uiso   1.00
H74    H     0.96155   0.80979   0.29748   0.00000  Uiso   1.00
H75    H     0.14957   0.71688   0.31723   0.00000  Uiso   1.00
H76    H     0.56040   0.20335   0.50877   0.00000  Uiso   1.00
H77    H     0.49042   0.16606   0.77942   0.00000  Uiso   1.00
H78    H     0.68021   0.12611   0.06115   0.00000  Uiso   1.00
H79    H     0.29513   0.08203   0.59628   0.00000  Uiso   1.00
H80    H     0.48996   0.31273   0.68711   0.00000  Uiso   1.00
H81    H     0.89992   0.04599   0.36348   0.00000  Uiso   1.00
H82    H     0.08794   0.95307   0.38322   0.00000  Uiso   1.00
H83    H     0.49878   0.43954   0.57477   0.00000  Uiso   1.00
O84    O     0.05686   0.89661   0.51441   0.00000  Uiso   1.00
O85    O     0.99157   0.77472   0.22834   0.00000  Uiso   1.00
O86    O     0.53058   0.41295   0.47965   0.00000  Uiso   1.00
N87    N     0.92101   0.87088   0.27435   0.00000  Uiso   1.00
N88    N     0.16187   0.78400   0.35790   0.00000  Uiso   1.00
N89    N     0.54593   0.23880   0.53694   0.00000  Uiso   1.00
N90    N     0.88785   0.99797   0.30987   0.00000  Uiso   1.00
N91    N     0.12871   0.91109   0.39341   0.00000  Uiso   1.00
N92    N     0.51277   0.36590   0.57245   0.00000  Uiso   1.00
C93    C     0.54592   0.54660   0.22001   0.00000  Uiso   1.00
C94    C     0.64120   0.53828   0.38147   0.00000  Uiso   1.00
C95    C     0.73977   0.60208   0.49743   0.00000  Uiso   1.00
C96    C     0.81651   0.58181   0.63707   0.00000  Uiso   1.00
C97    C     0.96765   0.58126   0.88431   0.00000  Uiso   1.00
C98    C     0.43198   0.56223   0.12890   0.00000  Uiso   1.00
C99    C     0.35464   0.64617   0.03250   0.00000  Uiso   1.00
C100   C     0.25525   0.64605   0.95951   0.00000  Uiso   1.00
C101   C     0.08153   0.68265   0.81455   0.00000  Uiso   1.00
C102   C     0.53785   0.43689   0.17827   0.00000  Uiso   1.00
C103   C     0.54949   0.41544   0.12334   0.00000  Uiso   1.00
C104   C     0.53921   0.30979   0.09188   0.00000  Uiso   1.00
C105   C     0.52986   0.15178   0.02357   0.00000  Uiso   1.00
C106   C     0.50692   0.39714   0.26176   0.00000  Uiso   1.00
C107   C     0.62001   0.45709   0.40414   0.00000  Uiso   1.00
C108   C     0.69662   0.43672   0.54364   0.00000  Uiso   1.00
C109   C     0.79530   0.50048   0.65979   0.00000  Uiso   1.00
C110   C     0.41080   0.48105   0.15158   0.00000  Uiso   1.00
C111   C     0.31149   0.48081   0.07870   0.00000  Uiso   1.00
C112   C     0.23403   0.56472   0.98223   0.00000  Uiso   1.00
C113   C     0.51667   0.35571   0.20095   0.00000  Uiso   1.00
C114   C     0.50635   0.25007   0.16955   0.00000  Uiso   1.00
C115   C     0.51798   0.22846   0.11459   0.00000  Uiso   1.00
H116   H     0.56241   0.60981   0.20234   0.00000  Uiso   1.00
H117   H     0.75613   0.66490   0.47983   0.00000  Uiso   1.00
H118   H     0.37106   0.70898   0.01496   0.00000  Uiso   1.00
H119   H     0.56589   0.47828   0.10580   0.00000  Uiso   1.00
H120   H     0.96155   0.69021   0.79748   0.00000  Uiso   1.00
H121   H     0.14957   0.78312   0.81723   0.00000  Uiso   1.00
H122   H     0.56040   0.29665   0.00877   0.00000  Uiso   1.00
H123   H     0.49042   0.33394   0.27942   0.00000  Uiso   1.00
H124   H     0.68021   0.37389   0.56115   0.00000  Uiso   1.00
H125   H     0.29513   0.41797   0.09628   0.00000  Uiso   1.00
H126   H     0.48996   0.18727   0.18711   0.00000  Uiso   1.00
H127   H     0.89992   0.45401   0.86348   0.00000  Uiso   1.00
H128   H     0.08794   0.54693   0.88322   0.00000  Uiso   1.00
H129   H     0.49878   0.06046   0.07477   0.00000  Uiso   1.00
O130   O     0.05686   0.60339   0.01441   0.00000  Uiso   1.00
O131   O     0.99157   0.72528   0.72834   0.00000  Uiso   1.00
O132   O     0.53058   0.08705   0.97965   0.00000  Uiso   1.00
N133   N     0.92101   0.62912   0.77435   0.00000  Uiso   1.00
N134   N     0.16187   0.71600   0.85790   0.00000  Uiso   1.00
N135   N     0.54593   0.26120   0.03694   0.00000  Uiso   1.00
N136   N     0.88785   0.50203   0.80987   0.00000  Uiso   1.00
N137   N     0.12871   0.58891   0.89341   0.00000  Uiso   1.00
N138   N     0.51277   0.13410   0.07245   0.00000  Uiso   1.00
C139   C     0.45408   0.04660   0.27999   0.00000  Uiso   1.00
C140   C     0.35880   0.03828   0.11853   0.00000  Uiso   1.00
C141   C     0.26023   0.10208   0.00257   0.00000  Uiso   1.00
C142   C     0.18349   0.08181   0.86293   0.00000  Uiso   1.00
C143   C     0.03235   0.08126   0.61569   0.00000  Uiso   1.00
C144   C     0.56802   0.06223   0.37110   0.00000  Uiso   1.00
C145   C     0.64536   0.14617   0.46750   0.00000  Uiso   1.00
C146   C     0.74475   0.14605   0.54049   0.00000  Uiso   1.00
C147   C     0.91847   0.18265   0.68545   0.00000  Uiso   1.00
C148   C     0.46215   0.93689   0.32173   0.00000  Uiso   1.00
C149   C     0.45051   0.91544   0.37666   0.00000  Uiso   1.00
C150   C     0.46079   0.80979   0.40812   0.00000  Uiso   1.00
C151   C     0.47014   0.65178   0.47643   0.00000  Uiso   1.00
C152   C     0.49308   0.89714   0.23824   0.00000  Uiso   1.00
C153   C     0.37999   0.95709   0.09586   0.00000  Uiso   1.00
C154   C     0.30338   0.93672   0.95636   0.00000  Uiso   1.00
C155   C     0.20470   0.00048   0.84021   0.00000  Uiso   1.00
C156   C     0.58920   0.98105   0.34842   0.00000  Uiso   1.00
C157   C     0.68851   0.98081   0.42130   0.00000  Uiso   1.00
C158   C     0.76597   0.06472   0.51777   0.00000  Uiso   1.00
C159   C     0.48333   0.85571   0.29905   0.00000  Uiso   1.00
C160   C     0.49365   0.75007   0.33045   0.00000  Uiso   1.00
C161   C     0.48202   0.72846   0.38541   0.00000  Uiso   1.00
H162   H     0.43759   0.10981   0.29766   0.00000  Uiso   1.00
H163   H     0.24387   0.16490   0.02017   0.00000  Uiso   1.00
H164   H     0.62894   0.20898   0.48504   0.00000  Uiso   1.00
H165   H     0.43411   0.97828   0.39420   0.00000  Uiso   1.00
H166   H     0.03845   0.19021   0.70252   0.00000  Uiso   1.00
H167   H     0.85043   0.28312   0.68277   0.00000  Uiso   1.00
H168   H     0.43960   0.79665   0.49123   0.00000  Uiso   1.00
H169   H     0.50958   0.83394   0.22058   0.00000  Uiso   1.00
H170   H     0.31979   0.87389   0.93885   0.00000  Uiso   1.00
H171   H     0.70487   0.91797   0.40372   0.00000  Uiso   1.00
H172   H     0.51004   0.68727   0.31289   0.00000  Uiso   1.00
H173   H     0.10008   0.95401   0.63652   0.00000  Uiso   1.00
H174   H     0.91206   0.04693   0.61678   0.00000  Uiso   1.00
H175   H     0.50122   0.56046   0.42523   0.00000  Uiso   1.00
O176   O     0.94314   0.10339   0.48559   0.00000  Uiso   1.00
O177   O     0.00843   0.22528   0.77166   0.00000  Uiso   1.00
O178   O     0.46942   0.58705   0.52035   0.00000  Uiso   1.00
N179   N     0.07899   0.12912   0.72565   0.00000  Uiso   1.00
N180   N     0.83813   0.21600   0.64210   0.00000  Uiso   1.00
N181   N     0.45407   0.76120   0.46306   0.00000  Uiso   1.00
N182   N     0.11215   0.00203   0.69013   0.00000  Uiso   1.00
N183   N     0.87129   0.08891   0.60659   0.00000  Uiso   1.00
N184   N     0.48723   0.63410   0.42755   0.00000  Uiso   1.00
