data_job_00514
_audit_creation_date              2018-12-19
_audit_creation_method            'Materials Studio'
_symmetry_space_group_name_H-M    'P1'
_symmetry_Int_Tables_number       1
_symmetry_cell_setting            triclinic
loop_
_symmetry_equiv_pos_as_xyz
  x,y,z
_cell_length_a                    11.5502
_cell_length_b                    12.3032
_cell_length_c                    16.5018
_cell_angle_alpha                 90.0000
_cell_angle_beta                  112.7260
_cell_angle_gamma                 90.0000
loop_
_atom_site_label
_atom_site_type_symbol
_atom_site_fract_x
_atom_site_fract_y
_atom_site_fract_z
_atom_site_U_iso_or_equiv
_atom_site_adp_type
_atom_site_occupancy
C1     C     0.17107   0.96005   0.34646   0.00000  Uiso   1.00
C2     C     0.17956   0.94460   0.25723   0.00000  Uiso   1.00
C3     C     0.23555   0.85741   0.23313   0.00000  Uiso   1.00
C4     C     0.23356   0.85832   0.14847   0.00000  Uiso   1.00
C5     C     0.25532   0.82140   0.01882   0.00000  Uiso   1.00
C6     C     0.23116   0.07000   0.38048   0.00000  Uiso   1.00
C7     C     0.33052   0.08824   0.46002   0.00000  Uiso   1.00
C8     C     0.37195   0.19471   0.47911   0.00000  Uiso   1.00
C9     C     0.47375   0.35249   0.54084   0.00000  Uiso   1.00
C10    C     0.03185   0.97293   0.32801   0.00000  Uiso   1.00
C11    C     0.96363   0.90958   0.36343   0.00000  Uiso   1.00
C12    C     0.83726   0.93435   0.33836   0.00000  Uiso   1.00
C13    C     0.62961   0.94141   0.31861   0.00000  Uiso   1.00
C14    C     0.06796   0.11672   0.23897   0.00000  Uiso   1.00
C15    C     0.12356   0.02970   0.19885   0.00000  Uiso   1.00
C16    C     0.12148   0.03074   0.11420   0.00000  Uiso   1.00
C17    C     0.17745   0.94356   0.08997   0.00000  Uiso   1.00
C18    C     0.17516   0.15509   0.32210   0.00000  Uiso   1.00
C19    C     0.21644   0.26156   0.34108   0.00000  Uiso   1.00
C20    C     0.31585   0.27996   0.42062   0.00000  Uiso   1.00
C21    C     0.97584   0.05802   0.26962   0.00000  Uiso   1.00
C22    C     0.84956   0.08290   0.24450   0.00000  Uiso   1.00
C23    C     0.78116   0.01959   0.27987   0.00000  Uiso   1.00
H24    H     0.21468   0.89381   0.39192   0.00000  Uiso   1.00
H25    H     0.27889   0.79158   0.27834   0.00000  Uiso   1.00
H26    H     0.37383   0.02237   0.50519   0.00000  Uiso   1.00
H27    H     0.00700   0.84374   0.40862   0.00000  Uiso   1.00
H28    H     0.32543   0.71578   0.12667   0.00000  Uiso   1.00
H29    H     0.52559   0.20242   0.60501   0.00000  Uiso   1.00
H30    H     0.75206   0.82574   0.40137   0.00000  Uiso   1.00
H31    H     0.02436   0.18297   0.19351   0.00000  Uiso   1.00
H32    H     0.07813   0.09660   0.06903   0.00000  Uiso   1.00
H33    H     0.17308   0.32739   0.29589   0.00000  Uiso   1.00
H34    H     0.80625   0.14876   0.19931   0.00000  Uiso   1.00
H35    H     0.16249   0.96334   0.95679   0.00000  Uiso   1.00
H36    H     0.36265   0.44999   0.43514   0.00000  Uiso   1.00
H37    H     0.58912   0.07330   0.23149   0.00000  Uiso   1.00
O38    O     0.28281   0.77754   0.96343   0.00000  Uiso   1.00
O39    O     0.54538   0.41600   0.59101   0.00000  Uiso   1.00
O40    O     0.53054   0.92180   0.32383   0.00000  Uiso   1.00
N41    N     0.27968   0.78588   0.10377   0.00000  Uiso   1.00
N42    N     0.46683   0.24087   0.55098   0.00000  Uiso   1.00
N43    N     0.74366   0.88871   0.36061   0.00000  Uiso   1.00
N44    N     0.19200   0.91910   0.01235   0.00000  Uiso   1.00
N45    N     0.37915   0.37408   0.45957   0.00000  Uiso   1.00
N46    N     0.65598   0.02193   0.26920   0.00000  Uiso   1.00
C47    C     0.82893   0.46005   0.15354   0.00000  Uiso   1.00
C48    C     0.82044   0.44460   0.24277   0.00000  Uiso   1.00
C49    C     0.76445   0.35741   0.26687   0.00000  Uiso   1.00
C50    C     0.76644   0.35832   0.35153   0.00000  Uiso   1.00
C51    C     0.74468   0.32140   0.48118   0.00000  Uiso   1.00
C52    C     0.76884   0.57000   0.11952   0.00000  Uiso   1.00
C53    C     0.66948   0.58824   0.03998   0.00000  Uiso   1.00
C54    C     0.62805   0.69471   0.02089   0.00000  Uiso   1.00
C55    C     0.52625   0.85249   0.95916   0.00000  Uiso   1.00
C56    C     0.96815   0.47293   0.17199   0.00000  Uiso   1.00
C57    C     0.03637   0.40958   0.13657   0.00000  Uiso   1.00
C58    C     0.16274   0.43435   0.16164   0.00000  Uiso   1.00
C59    C     0.37039   0.44141   0.18139   0.00000  Uiso   1.00
C60    C     0.93204   0.61672   0.26103   0.00000  Uiso   1.00
C61    C     0.87644   0.52970   0.30115   0.00000  Uiso   1.00
C62    C     0.87852   0.53074   0.38580   0.00000  Uiso   1.00
C63    C     0.82255   0.44356   0.41003   0.00000  Uiso   1.00
C64    C     0.82484   0.65509   0.17790   0.00000  Uiso   1.00
C65    C     0.78356   0.76156   0.15892   0.00000  Uiso   1.00
C66    C     0.68415   0.77996   0.07938   0.00000  Uiso   1.00
C67    C     0.02416   0.55802   0.23038   0.00000  Uiso   1.00
C68    C     0.15044   0.58290   0.25550   0.00000  Uiso   1.00
C69    C     0.21884   0.51959   0.22013   0.00000  Uiso   1.00
H70    H     0.78532   0.39381   0.10808   0.00000  Uiso   1.00
H71    H     0.72111   0.29158   0.22166   0.00000  Uiso   1.00
H72    H     0.62617   0.52237   0.99481   0.00000  Uiso   1.00
H73    H     0.99300   0.34374   0.09138   0.00000  Uiso   1.00
H74    H     0.67457   0.21578   0.37333   0.00000  Uiso   1.00
H75    H     0.47441   0.70242   0.89499   0.00000  Uiso   1.00
H76    H     0.24794   0.32574   0.09863   0.00000  Uiso   1.00
H77    H     0.97564   0.68297   0.30649   0.00000  Uiso   1.00
H78    H     0.92187   0.59660   0.43097   0.00000  Uiso   1.00
H79    H     0.82692   0.82739   0.20411   0.00000  Uiso   1.00
H80    H     0.19375   0.64876   0.30069   0.00000  Uiso   1.00
H81    H     0.83751   0.46334   0.54321   0.00000  Uiso   1.00
H82    H     0.63735   0.94999   0.06486   0.00000  Uiso   1.00
H83    H     0.41088   0.57330   0.26851   0.00000  Uiso   1.00
O84    O     0.71719   0.27754   0.53657   0.00000  Uiso   1.00
O85    O     0.45462   0.91600   0.90899   0.00000  Uiso   1.00
O86    O     0.46946   0.42180   0.17617   0.00000  Uiso   1.00
N87    N     0.72032   0.28588   0.39623   0.00000  Uiso   1.00
N88    N     0.53317   0.74087   0.94902   0.00000  Uiso   1.00
N89    N     0.25634   0.38871   0.13939   0.00000  Uiso   1.00
N90    N     0.80800   0.41910   0.48765   0.00000  Uiso   1.00
N91    N     0.62085   0.87408   0.04043   0.00000  Uiso   1.00
N92    N     0.34402   0.52193   0.23080   0.00000  Uiso   1.00
C93    C     0.82893   0.03995   0.65354   0.00000  Uiso   1.00
C94    C     0.82044   0.05540   0.74277   0.00000  Uiso   1.00
C95    C     0.76445   0.14259   0.76687   0.00000  Uiso   1.00
C96    C     0.76644   0.14168   0.85153   0.00000  Uiso   1.00
C97    C     0.74468   0.17860   0.98118   0.00000  Uiso   1.00
C98    C     0.76884   0.93000   0.61952   0.00000  Uiso   1.00
C99    C     0.66948   0.91176   0.53998   0.00000  Uiso   1.00
C100   C     0.62805   0.80529   0.52089   0.00000  Uiso   1.00
C101   C     0.52625   0.64751   0.45916   0.00000  Uiso   1.00
C102   C     0.96815   0.02707   0.67199   0.00000  Uiso   1.00
C103   C     0.03637   0.09042   0.63657   0.00000  Uiso   1.00
C104   C     0.16274   0.06565   0.66164   0.00000  Uiso   1.00
C105   C     0.37039   0.05859   0.68139   0.00000  Uiso   1.00
C106   C     0.93204   0.88328   0.76103   0.00000  Uiso   1.00
C107   C     0.87644   0.97030   0.80115   0.00000  Uiso   1.00
C108   C     0.87852   0.96926   0.88580   0.00000  Uiso   1.00
C109   C     0.82255   0.05644   0.91003   0.00000  Uiso   1.00
C110   C     0.82484   0.84491   0.67790   0.00000  Uiso   1.00
C111   C     0.78356   0.73844   0.65892   0.00000  Uiso   1.00
C112   C     0.68415   0.72004   0.57938   0.00000  Uiso   1.00
C113   C     0.02416   0.94198   0.73038   0.00000  Uiso   1.00
C114   C     0.15044   0.91710   0.75550   0.00000  Uiso   1.00
C115   C     0.21884   0.98041   0.72013   0.00000  Uiso   1.00
H116   H     0.78532   0.10619   0.60808   0.00000  Uiso   1.00
H117   H     0.72111   0.20842   0.72166   0.00000  Uiso   1.00
H118   H     0.62617   0.97763   0.49481   0.00000  Uiso   1.00
H119   H     0.99300   0.15626   0.59138   0.00000  Uiso   1.00
H120   H     0.67457   0.28422   0.87333   0.00000  Uiso   1.00
H121   H     0.47441   0.79758   0.39499   0.00000  Uiso   1.00
H122   H     0.24794   0.17426   0.59863   0.00000  Uiso   1.00
H123   H     0.97564   0.81703   0.80649   0.00000  Uiso   1.00
H124   H     0.92187   0.90340   0.93097   0.00000  Uiso   1.00
H125   H     0.82692   0.67261   0.70411   0.00000  Uiso   1.00
H126   H     0.19375   0.85124   0.80069   0.00000  Uiso   1.00
H127   H     0.83751   0.03666   0.04321   0.00000  Uiso   1.00
H128   H     0.63735   0.55001   0.56486   0.00000  Uiso   1.00
H129   H     0.41088   0.92670   0.76851   0.00000  Uiso   1.00
O130   O     0.71719   0.22246   0.03657   0.00000  Uiso   1.00
O131   O     0.45462   0.58400   0.40899   0.00000  Uiso   1.00
O132   O     0.46946   0.07820   0.67617   0.00000  Uiso   1.00
N133   N     0.72032   0.21412   0.89623   0.00000  Uiso   1.00
N134   N     0.53317   0.75913   0.44902   0.00000  Uiso   1.00
N135   N     0.25634   0.11129   0.63939   0.00000  Uiso   1.00
N136   N     0.80800   0.08090   0.98765   0.00000  Uiso   1.00
N137   N     0.62085   0.62592   0.54043   0.00000  Uiso   1.00
N138   N     0.34402   0.97807   0.73080   0.00000  Uiso   1.00
C139   C     0.17107   0.53995   0.84646   0.00000  Uiso   1.00
C140   C     0.17956   0.55540   0.75723   0.00000  Uiso   1.00
C141   C     0.23555   0.64259   0.73313   0.00000  Uiso   1.00
C142   C     0.23356   0.64168   0.64847   0.00000  Uiso   1.00
C143   C     0.25532   0.67860   0.51882   0.00000  Uiso   1.00
C144   C     0.23116   0.43000   0.88048   0.00000  Uiso   1.00
C145   C     0.33052   0.41176   0.96002   0.00000  Uiso   1.00
C146   C     0.37195   0.30529   0.97911   0.00000  Uiso   1.00
C147   C     0.47375   0.14751   0.04084   0.00000  Uiso   1.00
C148   C     0.03185   0.52707   0.82801   0.00000  Uiso   1.00
C149   C     0.96363   0.59042   0.86343   0.00000  Uiso   1.00
C150   C     0.83726   0.56565   0.83836   0.00000  Uiso   1.00
C151   C     0.62961   0.55859   0.81861   0.00000  Uiso   1.00
C152   C     0.06796   0.38328   0.73897   0.00000  Uiso   1.00
C153   C     0.12356   0.47030   0.69885   0.00000  Uiso   1.00
C154   C     0.12148   0.46926   0.61420   0.00000  Uiso   1.00
C155   C     0.17745   0.55644   0.58997   0.00000  Uiso   1.00
C156   C     0.17516   0.34491   0.82210   0.00000  Uiso   1.00
C157   C     0.21644   0.23844   0.84108   0.00000  Uiso   1.00
C158   C     0.31585   0.22004   0.92062   0.00000  Uiso   1.00
C159   C     0.97584   0.44198   0.76962   0.00000  Uiso   1.00
C160   C     0.84956   0.41710   0.74450   0.00000  Uiso   1.00
C161   C     0.78116   0.48041   0.77987   0.00000  Uiso   1.00
H162   H     0.21468   0.60619   0.89192   0.00000  Uiso   1.00
H163   H     0.27889   0.70842   0.77834   0.00000  Uiso   1.00
H164   H     0.37383   0.47763   0.00519   0.00000  Uiso   1.00
H165   H     0.00700   0.65626   0.90862   0.00000  Uiso   1.00
H166   H     0.32543   0.78422   0.62667   0.00000  Uiso   1.00
H167   H     0.52559   0.29758   0.10501   0.00000  Uiso   1.00
H168   H     0.75206   0.67426   0.90137   0.00000  Uiso   1.00
H169   H     0.02436   0.31703   0.69351   0.00000  Uiso   1.00
H170   H     0.07813   0.40340   0.56903   0.00000  Uiso   1.00
H171   H     0.17308   0.17261   0.79589   0.00000  Uiso   1.00
H172   H     0.80625   0.35124   0.69931   0.00000  Uiso   1.00
H173   H     0.16249   0.53666   0.45679   0.00000  Uiso   1.00
H174   H     0.36265   0.05001   0.93514   0.00000  Uiso   1.00
H175   H     0.58912   0.42670   0.73149   0.00000  Uiso   1.00
O176   O     0.28281   0.72246   0.46343   0.00000  Uiso   1.00
O177   O     0.54538   0.08400   0.09101   0.00000  Uiso   1.00
O178   O     0.53054   0.57820   0.82383   0.00000  Uiso   1.00
N179   N     0.27968   0.71412   0.60377   0.00000  Uiso   1.00
N180   N     0.46683   0.25913   0.05098   0.00000  Uiso   1.00
N181   N     0.74366   0.61129   0.86061   0.00000  Uiso   1.00
N182   N     0.19200   0.58090   0.51235   0.00000  Uiso   1.00
N183   N     0.37915   0.12592   0.95957   0.00000  Uiso   1.00
N184   N     0.65598   0.47807   0.76920   0.00000  Uiso   1.00
