data_job_01065
_audit_creation_date              2018-12-19
_audit_creation_method            'Materials Studio'
_symmetry_space_group_name_H-M    'P1'
_symmetry_Int_Tables_number       1
_symmetry_cell_setting            triclinic
loop_
_symmetry_equiv_pos_as_xyz
  x,y,z
_cell_length_a                    15.9967
_cell_length_b                    13.7076
_cell_length_c                    10.1478
_cell_angle_alpha                 90.0000
_cell_angle_beta                  99.2937
_cell_angle_gamma                 90.0000
loop_
_atom_site_label
_atom_site_type_symbol
_atom_site_fract_x
_atom_site_fract_y
_atom_site_fract_z
_atom_site_U_iso_or_equiv
_atom_site_adp_type
_atom_site_occupancy
C1     C     0.27245   0.55716   0.87065   0.00000  Uiso   1.00
C2     C     0.27388   0.55252   0.02114   0.00000  Uiso   1.00
C3     C     0.30786   0.62274   0.11291   0.00000  Uiso   1.00
C4     C     0.30293   0.60493   0.24612   0.00000  Uiso   1.00
C5     C     0.31091   0.61063   0.47374   0.00000  Uiso   1.00
C6     C     0.31633   0.46458   0.83403   0.00000  Uiso   1.00
C7     C     0.38599   0.46088   0.76848   0.00000  Uiso   1.00
C8     C     0.41678   0.36904   0.74417   0.00000  Uiso   1.00
C9     C     0.49062   0.23821   0.68121   0.00000  Uiso   1.00
C10    C     0.17975   0.54712   0.80706   0.00000  Uiso   1.00
C11    C     0.13457   0.61280   0.71879   0.00000  Uiso   1.00
C12    C     0.05039   0.59043   0.67175   0.00000  Uiso   1.00
C13    C     0.91217   0.58776   0.56691   0.00000  Uiso   1.00
C14    C     0.20329   0.40065   0.94402   0.00000  Uiso   1.00
C15    C     0.23632   0.46750   0.06099   0.00000  Uiso   1.00
C16    C     0.23134   0.44958   0.19410   0.00000  Uiso   1.00
C17    C     0.26530   0.51977   0.28605   0.00000  Uiso   1.00
C18    C     0.27877   0.37957   0.87389   0.00000  Uiso   1.00
C19    C     0.30946   0.28771   0.84966   0.00000  Uiso   1.00
C20    C     0.37915   0.28387   0.78409   0.00000  Uiso   1.00
C21    C     0.14218   0.46211   0.84691   0.00000  Uiso   1.00
C22    C     0.05805   0.43963   0.79999   0.00000  Uiso   1.00
C23    C     0.01275   0.50527   0.71167   0.00000  Uiso   1.00
H24    H     0.30170   0.62334   0.83961   0.00000  Uiso   1.00
H25    H     0.33693   0.68852   0.08203   0.00000  Uiso   1.00
H26    H     0.41504   0.52668   0.73764   0.00000  Uiso   1.00
H27    H     0.16366   0.67858   0.68797   0.00000  Uiso   1.00
H28    H     0.35945   0.72327   0.36837   0.00000  Uiso   1.00
H29    H     0.52413   0.38202   0.64216   0.00000  Uiso   1.00
H30    H     0.99406   0.70233   0.53742   0.00000  Uiso   1.00
H31    H     0.17404   0.33446   0.97505   0.00000  Uiso   1.00
H32    H     0.20226   0.38378   0.22491   0.00000  Uiso   1.00
H33    H     0.28037   0.22194   0.88051   0.00000  Uiso   1.00
H34    H     0.02900   0.37384   0.83085   0.00000  Uiso   1.00
H35    H     0.25015   0.47593   0.48434   0.00000  Uiso   1.00
H36    H     0.41483   0.13468   0.75812   0.00000  Uiso   1.00
H37    H     0.88476   0.45499   0.65339   0.00000  Uiso   1.00
O38    O     0.32570   0.63725   0.58828   0.00000  Uiso   1.00
O39    O     0.54174   0.18954   0.63549   0.00000  Uiso   1.00
O40    O     0.84630   0.60978   0.49809   0.00000  Uiso   1.00
N41    N     0.32984   0.65830   0.36137   0.00000  Uiso   1.00
N42    N     0.48381   0.33925   0.68243   0.00000  Uiso   1.00
N43    N     0.98825   0.63870   0.58448   0.00000  Uiso   1.00
N44    N     0.27103   0.52521   0.42377   0.00000  Uiso   1.00
N45    N     0.42500   0.20616   0.74483   0.00000  Uiso   1.00
N46    N     0.92943   0.50561   0.64688   0.00000  Uiso   1.00
C47    C     0.72755   0.05716   0.62935   0.00000  Uiso   1.00
C48    C     0.72612   0.05252   0.47886   0.00000  Uiso   1.00
C49    C     0.69214   0.12274   0.38709   0.00000  Uiso   1.00
C50    C     0.69707   0.10493   0.25388   0.00000  Uiso   1.00
C51    C     0.68909   0.11063   0.02626   0.00000  Uiso   1.00
C52    C     0.68367   0.96458   0.66597   0.00000  Uiso   1.00
C53    C     0.61401   0.96088   0.73152   0.00000  Uiso   1.00
C54    C     0.58322   0.86904   0.75583   0.00000  Uiso   1.00
C55    C     0.50938   0.73821   0.81879   0.00000  Uiso   1.00
C56    C     0.82025   0.04712   0.69294   0.00000  Uiso   1.00
C57    C     0.86543   0.11280   0.78121   0.00000  Uiso   1.00
C58    C     0.94961   0.09043   0.82825   0.00000  Uiso   1.00
C59    C     0.08783   0.08776   0.93309   0.00000  Uiso   1.00
C60    C     0.79671   0.90065   0.55598   0.00000  Uiso   1.00
C61    C     0.76368   0.96750   0.43901   0.00000  Uiso   1.00
C62    C     0.76866   0.94958   0.30590   0.00000  Uiso   1.00
C63    C     0.73470   0.01977   0.21395   0.00000  Uiso   1.00
C64    C     0.72123   0.87957   0.62611   0.00000  Uiso   1.00
C65    C     0.69054   0.78771   0.65034   0.00000  Uiso   1.00
C66    C     0.62085   0.78387   0.71591   0.00000  Uiso   1.00
C67    C     0.85782   0.96211   0.65309   0.00000  Uiso   1.00
C68    C     0.94195   0.93963   0.70001   0.00000  Uiso   1.00
C69    C     0.98725   0.00527   0.78833   0.00000  Uiso   1.00
H70    H     0.69830   0.12334   0.66039   0.00000  Uiso   1.00
H71    H     0.66307   0.18852   0.41797   0.00000  Uiso   1.00
H72    H     0.58496   0.02668   0.76236   0.00000  Uiso   1.00
H73    H     0.83634   0.17858   0.81203   0.00000  Uiso   1.00
H74    H     0.64055   0.22327   0.13163   0.00000  Uiso   1.00
H75    H     0.47587   0.88202   0.85784   0.00000  Uiso   1.00
H76    H     0.00594   0.20233   0.96258   0.00000  Uiso   1.00
H77    H     0.82596   0.83446   0.52495   0.00000  Uiso   1.00
H78    H     0.79774   0.88378   0.27509   0.00000  Uiso   1.00
H79    H     0.71963   0.72194   0.61949   0.00000  Uiso   1.00
H80    H     0.97100   0.87384   0.66915   0.00000  Uiso   1.00
H81    H     0.74985   0.97593   0.01566   0.00000  Uiso   1.00
H82    H     0.58517   0.63468   0.74188   0.00000  Uiso   1.00
H83    H     0.11524   0.95499   0.84661   0.00000  Uiso   1.00
O84    O     0.67430   0.13725   0.91172   0.00000  Uiso   1.00
O85    O     0.45826   0.68954   0.86451   0.00000  Uiso   1.00
O86    O     0.15370   0.10978   0.00191   0.00000  Uiso   1.00
N87    N     0.67016   0.15830   0.13863   0.00000  Uiso   1.00
N88    N     0.51619   0.83925   0.81757   0.00000  Uiso   1.00
N89    N     0.01175   0.13870   0.91552   0.00000  Uiso   1.00
N90    N     0.72897   0.02521   0.07623   0.00000  Uiso   1.00
N91    N     0.57500   0.70616   0.75517   0.00000  Uiso   1.00
N92    N     0.07057   0.00561   0.85312   0.00000  Uiso   1.00
C93    C     0.72755   0.44284   0.12935   0.00000  Uiso   1.00
C94    C     0.72612   0.44748   0.97886   0.00000  Uiso   1.00
C95    C     0.69214   0.37726   0.88709   0.00000  Uiso   1.00
C96    C     0.69707   0.39507   0.75388   0.00000  Uiso   1.00
C97    C     0.68909   0.38937   0.52626   0.00000  Uiso   1.00
C98    C     0.68367   0.53542   0.16597   0.00000  Uiso   1.00
C99    C     0.61401   0.53912   0.23152   0.00000  Uiso   1.00
C100   C     0.58322   0.63096   0.25583   0.00000  Uiso   1.00
C101   C     0.50938   0.76179   0.31879   0.00000  Uiso   1.00
C102   C     0.82025   0.45288   0.19294   0.00000  Uiso   1.00
C103   C     0.86543   0.38720   0.28121   0.00000  Uiso   1.00
C104   C     0.94961   0.40957   0.32825   0.00000  Uiso   1.00
C105   C     0.08783   0.41224   0.43309   0.00000  Uiso   1.00
C106   C     0.79671   0.59935   0.05598   0.00000  Uiso   1.00
C107   C     0.76368   0.53250   0.93901   0.00000  Uiso   1.00
C108   C     0.76866   0.55042   0.80590   0.00000  Uiso   1.00
C109   C     0.73470   0.48023   0.71395   0.00000  Uiso   1.00
C110   C     0.72123   0.62043   0.12611   0.00000  Uiso   1.00
C111   C     0.69054   0.71229   0.15034   0.00000  Uiso   1.00
C112   C     0.62085   0.71613   0.21591   0.00000  Uiso   1.00
C113   C     0.85782   0.53789   0.15309   0.00000  Uiso   1.00
C114   C     0.94195   0.56037   0.20001   0.00000  Uiso   1.00
C115   C     0.98725   0.49473   0.28833   0.00000  Uiso   1.00
H116   H     0.69830   0.37666   0.16039   0.00000  Uiso   1.00
H117   H     0.66307   0.31148   0.91797   0.00000  Uiso   1.00
H118   H     0.58496   0.47332   0.26236   0.00000  Uiso   1.00
H119   H     0.83634   0.32142   0.31203   0.00000  Uiso   1.00
H120   H     0.64055   0.27673   0.63163   0.00000  Uiso   1.00
H121   H     0.47587   0.61798   0.35784   0.00000  Uiso   1.00
H122   H     0.00594   0.29767   0.46258   0.00000  Uiso   1.00
H123   H     0.82596   0.66554   0.02495   0.00000  Uiso   1.00
H124   H     0.79774   0.61622   0.77509   0.00000  Uiso   1.00
H125   H     0.71963   0.77806   0.11949   0.00000  Uiso   1.00
H126   H     0.97100   0.62616   0.16915   0.00000  Uiso   1.00
H127   H     0.74985   0.52407   0.51566   0.00000  Uiso   1.00
H128   H     0.58517   0.86532   0.24188   0.00000  Uiso   1.00
H129   H     0.11524   0.54501   0.34661   0.00000  Uiso   1.00
O130   O     0.67430   0.36275   0.41172   0.00000  Uiso   1.00
O131   O     0.45826   0.81046   0.36451   0.00000  Uiso   1.00
O132   O     0.15370   0.39022   0.50191   0.00000  Uiso   1.00
N133   N     0.67016   0.34170   0.63863   0.00000  Uiso   1.00
N134   N     0.51619   0.66075   0.31757   0.00000  Uiso   1.00
N135   N     0.01175   0.36130   0.41552   0.00000  Uiso   1.00
N136   N     0.72897   0.47479   0.57623   0.00000  Uiso   1.00
N137   N     0.57500   0.79384   0.25517   0.00000  Uiso   1.00
N138   N     0.07057   0.49439   0.35312   0.00000  Uiso   1.00
C139   C     0.27245   0.94284   0.37065   0.00000  Uiso   1.00
C140   C     0.27388   0.94748   0.52114   0.00000  Uiso   1.00
C141   C     0.30786   0.87726   0.61291   0.00000  Uiso   1.00
C142   C     0.30293   0.89507   0.74612   0.00000  Uiso   1.00
C143   C     0.31091   0.88937   0.97374   0.00000  Uiso   1.00
C144   C     0.31633   0.03542   0.33403   0.00000  Uiso   1.00
C145   C     0.38599   0.03912   0.26848   0.00000  Uiso   1.00
C146   C     0.41678   0.13096   0.24417   0.00000  Uiso   1.00
C147   C     0.49062   0.26179   0.18121   0.00000  Uiso   1.00
C148   C     0.17975   0.95288   0.30706   0.00000  Uiso   1.00
C149   C     0.13457   0.88720   0.21879   0.00000  Uiso   1.00
C150   C     0.05039   0.90957   0.17175   0.00000  Uiso   1.00
C151   C     0.91217   0.91224   0.06691   0.00000  Uiso   1.00
C152   C     0.20329   0.09935   0.44402   0.00000  Uiso   1.00
C153   C     0.23632   0.03250   0.56099   0.00000  Uiso   1.00
C154   C     0.23134   0.05042   0.69410   0.00000  Uiso   1.00
C155   C     0.26530   0.98023   0.78605   0.00000  Uiso   1.00
C156   C     0.27877   0.12043   0.37389   0.00000  Uiso   1.00
C157   C     0.30946   0.21229   0.34966   0.00000  Uiso   1.00
C158   C     0.37915   0.21613   0.28409   0.00000  Uiso   1.00
C159   C     0.14218   0.03789   0.34691   0.00000  Uiso   1.00
C160   C     0.05805   0.06037   0.29999   0.00000  Uiso   1.00
C161   C     0.01275   0.99473   0.21167   0.00000  Uiso   1.00
H162   H     0.30170   0.87666   0.33961   0.00000  Uiso   1.00
H163   H     0.33693   0.81148   0.58203   0.00000  Uiso   1.00
H164   H     0.41504   0.97332   0.23764   0.00000  Uiso   1.00
H165   H     0.16366   0.82142   0.18797   0.00000  Uiso   1.00
H166   H     0.35945   0.77673   0.86837   0.00000  Uiso   1.00
H167   H     0.52413   0.11798   0.14216   0.00000  Uiso   1.00
H168   H     0.99406   0.79767   0.03742   0.00000  Uiso   1.00
H169   H     0.17404   0.16554   0.47505   0.00000  Uiso   1.00
H170   H     0.20226   0.11622   0.72491   0.00000  Uiso   1.00
H171   H     0.28037   0.27806   0.38051   0.00000  Uiso   1.00
H172   H     0.02900   0.12616   0.33085   0.00000  Uiso   1.00
H173   H     0.25015   0.02407   0.98434   0.00000  Uiso   1.00
H174   H     0.41483   0.36532   0.25812   0.00000  Uiso   1.00
H175   H     0.88476   0.04501   0.15339   0.00000  Uiso   1.00
O176   O     0.32570   0.86275   0.08828   0.00000  Uiso   1.00
O177   O     0.54174   0.31046   0.13549   0.00000  Uiso   1.00
O178   O     0.84630   0.89022   0.99809   0.00000  Uiso   1.00
N179   N     0.32984   0.84170   0.86137   0.00000  Uiso   1.00
N180   N     0.48381   0.16075   0.18243   0.00000  Uiso   1.00
N181   N     0.98825   0.86130   0.08448   0.00000  Uiso   1.00
N182   N     0.27103   0.97479   0.92377   0.00000  Uiso   1.00
N183   N     0.42500   0.29384   0.24483   0.00000  Uiso   1.00
N184   N     0.92943   0.99439   0.14688   0.00000  Uiso   1.00
