data_job_02753
_audit_creation_date              2018-12-19
_audit_creation_method            'Materials Studio'
_symmetry_space_group_name_H-M    'P1'
_symmetry_Int_Tables_number       1
_symmetry_cell_setting            triclinic
loop_
_symmetry_equiv_pos_as_xyz
  x,y,z
_cell_length_a                    9.4020
_cell_length_b                    29.7883
_cell_length_c                    13.3038
_cell_angle_alpha                 90.0000
_cell_angle_beta                  97.8980
_cell_angle_gamma                 90.0000
loop_
_atom_site_label
_atom_site_type_symbol
_atom_site_fract_x
_atom_site_fract_y
_atom_site_fract_z
_atom_site_U_iso_or_equiv
_atom_site_adp_type
_atom_site_occupancy
C1     C     0.13396   0.63657   0.93552   0.00000  Uiso   1.00
C2     C     0.11528   0.66021   0.03453   0.00000  Uiso   1.00
C3     C     0.98982   0.68007   0.05688   0.00000  Uiso   1.00
C4     C     0.99467   0.69998   0.15165   0.00000  Uiso   1.00
C5     C     0.94654   0.73669   0.29475   0.00000  Uiso   1.00
C6     C     0.25847   0.66018   0.89518   0.00000  Uiso   1.00
C7     C     0.25341   0.68001   0.80035   0.00000  Uiso   1.00
C8     C     0.37882   0.69988   0.77782   0.00000  Uiso   1.00
C9     C     0.55302   0.73652   0.70455   0.00000  Uiso   1.00
C10    C     0.18692   0.58937   0.96494   0.00000  Uiso   1.00
C11    C     0.12173   0.54965   0.92875   0.00000  Uiso   1.00
C12    C     0.18692   0.50990   0.96493   0.00000  Uiso   1.00
C13    C     0.25003   0.43660   0.99998   0.00000  Uiso   1.00
C14    C     0.36567   0.63661   0.06410   0.00000  Uiso   1.00
C15    C     0.24113   0.66023   0.10437   0.00000  Uiso   1.00
C16    C     0.24617   0.68011   0.19913   0.00000  Uiso   1.00
C17    C     0.12075   0.70000   0.22162   0.00000  Uiso   1.00
C18    C     0.38432   0.66020   0.96502   0.00000  Uiso   1.00
C19    C     0.50977   0.68005   0.94261   0.00000  Uiso   1.00
C20    C     0.50490   0.69991   0.84778   0.00000  Uiso   1.00
C21    C     0.31278   0.58939   0.03478   0.00000  Uiso   1.00
C22    C     0.37808   0.54970   0.07102   0.00000  Uiso   1.00
C23    C     0.31300   0.50993   0.03489   0.00000  Uiso   1.00
H24    H     0.03599   0.63656   0.88114   0.00000  Uiso   1.00
H25    H     0.89245   0.68005   0.00281   0.00000  Uiso   1.00
H26    H     0.15601   0.67998   0.74632   0.00000  Uiso   1.00
H27    H     0.02434   0.54965   0.87471   0.00000  Uiso   1.00
H28    H     0.78883   0.72829   0.16848   0.00000  Uiso   1.00
H29    H     0.34457   0.72813   0.62766   0.00000  Uiso   1.00
H30    H     0.06693   0.45329   0.89838   0.00000  Uiso   1.00
H31    H     0.46365   0.63663   0.11847   0.00000  Uiso   1.00
H32    H     0.34358   0.68013   0.25316   0.00000  Uiso   1.00
H33    H     0.60714   0.68006   0.99667   0.00000  Uiso   1.00
H34    H     0.47547   0.54973   0.12506   0.00000  Uiso   1.00
H35    H     0.15499   0.72835   0.37168   0.00000  Uiso   1.00
H36    H     0.71073   0.72820   0.83085   0.00000  Uiso   1.00
H37    H     0.43309   0.45336   0.10157   0.00000  Uiso   1.00
O38    O     0.88522   0.75695   0.35439   0.00000  Uiso   1.00
O39    O     0.61433   0.75673   0.64484   0.00000  Uiso   1.00
O40    O     0.25007   0.39615   0.00003   0.00000  Uiso   1.00
N41    N     0.89148   0.72233   0.19782   0.00000  Uiso   1.00
N42    N     0.41105   0.72219   0.69219   0.00000  Uiso   1.00
N43    N     0.15150   0.46524   0.94527   0.00000  Uiso   1.00
N44    N     0.08850   0.72236   0.30716   0.00000  Uiso   1.00
N45    N     0.60808   0.72222   0.80153   0.00000  Uiso   1.00
N46    N     0.34853   0.46527   0.05461   0.00000  Uiso   1.00
C47    C     0.86604   0.13657   0.56448   0.00000  Uiso   1.00
C48    C     0.88472   0.16021   0.46547   0.00000  Uiso   1.00
C49    C     0.01018   0.18007   0.44312   0.00000  Uiso   1.00
C50    C     0.00533   0.19998   0.34835   0.00000  Uiso   1.00
C51    C     0.05346   0.23669   0.20525   0.00000  Uiso   1.00
C52    C     0.74153   0.16018   0.60482   0.00000  Uiso   1.00
C53    C     0.74659   0.18001   0.69965   0.00000  Uiso   1.00
C54    C     0.62118   0.19988   0.72218   0.00000  Uiso   1.00
C55    C     0.44698   0.23652   0.79545   0.00000  Uiso   1.00
C56    C     0.81308   0.08937   0.53506   0.00000  Uiso   1.00
C57    C     0.87827   0.04965   0.57125   0.00000  Uiso   1.00
C58    C     0.81308   0.00990   0.53507   0.00000  Uiso   1.00
C59    C     0.74997   0.93660   0.50002   0.00000  Uiso   1.00
C60    C     0.63433   0.13661   0.43590   0.00000  Uiso   1.00
C61    C     0.75887   0.16023   0.39563   0.00000  Uiso   1.00
C62    C     0.75383   0.18011   0.30087   0.00000  Uiso   1.00
C63    C     0.87925   0.20000   0.27838   0.00000  Uiso   1.00
C64    C     0.61568   0.16020   0.53498   0.00000  Uiso   1.00
C65    C     0.49023   0.18005   0.55739   0.00000  Uiso   1.00
C66    C     0.49510   0.19991   0.65222   0.00000  Uiso   1.00
C67    C     0.68722   0.08939   0.46522   0.00000  Uiso   1.00
C68    C     0.62192   0.04970   0.42898   0.00000  Uiso   1.00
C69    C     0.68700   0.00993   0.46511   0.00000  Uiso   1.00
H70    H     0.96401   0.13656   0.61886   0.00000  Uiso   1.00
H71    H     0.10755   0.18005   0.49719   0.00000  Uiso   1.00
H72    H     0.84399   0.17998   0.75368   0.00000  Uiso   1.00
H73    H     0.97566   0.04965   0.62529   0.00000  Uiso   1.00
H74    H     0.21117   0.22829   0.33152   0.00000  Uiso   1.00
H75    H     0.65543   0.22813   0.87234   0.00000  Uiso   1.00
H76    H     0.93307   0.95329   0.60162   0.00000  Uiso   1.00
H77    H     0.53635   0.13663   0.38153   0.00000  Uiso   1.00
H78    H     0.65642   0.18013   0.24684   0.00000  Uiso   1.00
H79    H     0.39286   0.18006   0.50333   0.00000  Uiso   1.00
H80    H     0.52453   0.04973   0.37494   0.00000  Uiso   1.00
H81    H     0.84501   0.22835   0.12832   0.00000  Uiso   1.00
H82    H     0.28927   0.22820   0.66915   0.00000  Uiso   1.00
H83    H     0.56691   0.95336   0.39843   0.00000  Uiso   1.00
O84    O     0.11478   0.25695   0.14561   0.00000  Uiso   1.00
O85    O     0.38567   0.25673   0.85516   0.00000  Uiso   1.00
O86    O     0.74993   0.89615   0.49997   0.00000  Uiso   1.00
N87    N     0.10852   0.22233   0.30218   0.00000  Uiso   1.00
N88    N     0.58895   0.22219   0.80781   0.00000  Uiso   1.00
N89    N     0.84850   0.96524   0.55473   0.00000  Uiso   1.00
N90    N     0.91150   0.22236   0.19284   0.00000  Uiso   1.00
N91    N     0.39192   0.22222   0.69847   0.00000  Uiso   1.00
N92    N     0.65147   0.96527   0.44539   0.00000  Uiso   1.00
C93    C     0.86604   0.36343   0.06448   0.00000  Uiso   1.00
C94    C     0.88472   0.33979   0.96547   0.00000  Uiso   1.00
C95    C     0.01018   0.31993   0.94312   0.00000  Uiso   1.00
C96    C     0.00533   0.30002   0.84835   0.00000  Uiso   1.00
C97    C     0.05346   0.26331   0.70525   0.00000  Uiso   1.00
C98    C     0.74153   0.33982   0.10482   0.00000  Uiso   1.00
C99    C     0.74659   0.31999   0.19965   0.00000  Uiso   1.00
C100   C     0.62118   0.30012   0.22218   0.00000  Uiso   1.00
C101   C     0.44698   0.26348   0.29545   0.00000  Uiso   1.00
C102   C     0.81308   0.41063   0.03506   0.00000  Uiso   1.00
C103   C     0.87827   0.45035   0.07125   0.00000  Uiso   1.00
C104   C     0.81308   0.49010   0.03507   0.00000  Uiso   1.00
C105   C     0.74997   0.56340   0.00002   0.00000  Uiso   1.00
C106   C     0.63433   0.36339   0.93590   0.00000  Uiso   1.00
C107   C     0.75887   0.33977   0.89563   0.00000  Uiso   1.00
C108   C     0.75383   0.31989   0.80087   0.00000  Uiso   1.00
C109   C     0.87925   0.30000   0.77838   0.00000  Uiso   1.00
C110   C     0.61568   0.33980   0.03498   0.00000  Uiso   1.00
C111   C     0.49023   0.31995   0.05739   0.00000  Uiso   1.00
C112   C     0.49510   0.30009   0.15222   0.00000  Uiso   1.00
C113   C     0.68722   0.41061   0.96522   0.00000  Uiso   1.00
C114   C     0.62192   0.45030   0.92898   0.00000  Uiso   1.00
C115   C     0.68700   0.49007   0.96511   0.00000  Uiso   1.00
H116   H     0.96401   0.36344   0.11886   0.00000  Uiso   1.00
H117   H     0.10755   0.31995   0.99719   0.00000  Uiso   1.00
H118   H     0.84399   0.32002   0.25368   0.00000  Uiso   1.00
H119   H     0.97566   0.45035   0.12529   0.00000  Uiso   1.00
H120   H     0.21117   0.27171   0.83152   0.00000  Uiso   1.00
H121   H     0.65543   0.27187   0.37234   0.00000  Uiso   1.00
H122   H     0.93307   0.54671   0.10162   0.00000  Uiso   1.00
H123   H     0.53635   0.36337   0.88153   0.00000  Uiso   1.00
H124   H     0.65642   0.31987   0.74684   0.00000  Uiso   1.00
H125   H     0.39286   0.31994   0.00333   0.00000  Uiso   1.00
H126   H     0.52453   0.45027   0.87494   0.00000  Uiso   1.00
H127   H     0.84501   0.27165   0.62832   0.00000  Uiso   1.00
H128   H     0.28927   0.27180   0.16915   0.00000  Uiso   1.00
H129   H     0.56691   0.54664   0.89843   0.00000  Uiso   1.00
O130   O     0.11478   0.24305   0.64561   0.00000  Uiso   1.00
O131   O     0.38567   0.24327   0.35516   0.00000  Uiso   1.00
O132   O     0.74993   0.60385   0.99997   0.00000  Uiso   1.00
N133   N     0.10852   0.27767   0.80218   0.00000  Uiso   1.00
N134   N     0.58895   0.27781   0.30781   0.00000  Uiso   1.00
N135   N     0.84850   0.53476   0.05473   0.00000  Uiso   1.00
N136   N     0.91150   0.27764   0.69284   0.00000  Uiso   1.00
N137   N     0.39192   0.27778   0.19847   0.00000  Uiso   1.00
N138   N     0.65147   0.53473   0.94539   0.00000  Uiso   1.00
C139   C     0.13396   0.86343   0.43552   0.00000  Uiso   1.00
C140   C     0.11528   0.83979   0.53453   0.00000  Uiso   1.00
C141   C     0.98982   0.81993   0.55688   0.00000  Uiso   1.00
C142   C     0.99467   0.80002   0.65165   0.00000  Uiso   1.00
C143   C     0.94654   0.76331   0.79475   0.00000  Uiso   1.00
C144   C     0.25847   0.83982   0.39518   0.00000  Uiso   1.00
C145   C     0.25341   0.81999   0.30035   0.00000  Uiso   1.00
C146   C     0.37882   0.80012   0.27782   0.00000  Uiso   1.00
C147   C     0.55302   0.76348   0.20455   0.00000  Uiso   1.00
C148   C     0.18692   0.91063   0.46494   0.00000  Uiso   1.00
C149   C     0.12173   0.95035   0.42875   0.00000  Uiso   1.00
C150   C     0.18692   0.99010   0.46493   0.00000  Uiso   1.00
C151   C     0.25003   0.06340   0.49998   0.00000  Uiso   1.00
C152   C     0.36567   0.86339   0.56410   0.00000  Uiso   1.00
C153   C     0.24113   0.83977   0.60437   0.00000  Uiso   1.00
C154   C     0.24617   0.81989   0.69913   0.00000  Uiso   1.00
C155   C     0.12075   0.80000   0.72162   0.00000  Uiso   1.00
C156   C     0.38432   0.83980   0.46502   0.00000  Uiso   1.00
C157   C     0.50977   0.81995   0.44261   0.00000  Uiso   1.00
C158   C     0.50490   0.80009   0.34778   0.00000  Uiso   1.00
C159   C     0.31278   0.91061   0.53478   0.00000  Uiso   1.00
C160   C     0.37808   0.95030   0.57102   0.00000  Uiso   1.00
C161   C     0.31300   0.99007   0.53489   0.00000  Uiso   1.00
H162   H     0.03599   0.86344   0.38114   0.00000  Uiso   1.00
H163   H     0.89245   0.81995   0.50281   0.00000  Uiso   1.00
H164   H     0.15601   0.82002   0.24632   0.00000  Uiso   1.00
H165   H     0.02434   0.95035   0.37471   0.00000  Uiso   1.00
H166   H     0.78883   0.77171   0.66848   0.00000  Uiso   1.00
H167   H     0.34457   0.77187   0.12766   0.00000  Uiso   1.00
H168   H     0.06693   0.04671   0.39838   0.00000  Uiso   1.00
H169   H     0.46365   0.86337   0.61847   0.00000  Uiso   1.00
H170   H     0.34358   0.81987   0.75316   0.00000  Uiso   1.00
H171   H     0.60714   0.81994   0.49667   0.00000  Uiso   1.00
H172   H     0.47547   0.95027   0.62506   0.00000  Uiso   1.00
H173   H     0.15499   0.77165   0.87168   0.00000  Uiso   1.00
H174   H     0.71073   0.77180   0.33085   0.00000  Uiso   1.00
H175   H     0.43309   0.04664   0.60157   0.00000  Uiso   1.00
O176   O     0.88522   0.74305   0.85439   0.00000  Uiso   1.00
O177   O     0.61433   0.74327   0.14484   0.00000  Uiso   1.00
O178   O     0.25007   0.10385   0.50003   0.00000  Uiso   1.00
N179   N     0.89148   0.77767   0.69782   0.00000  Uiso   1.00
N180   N     0.41105   0.77781   0.19219   0.00000  Uiso   1.00
N181   N     0.15150   0.03476   0.44527   0.00000  Uiso   1.00
N182   N     0.08850   0.77764   0.80716   0.00000  Uiso   1.00
N183   N     0.60808   0.77778   0.30153   0.00000  Uiso   1.00
N184   N     0.34853   0.03473   0.55461   0.00000  Uiso   1.00
