data_job_04777
_audit_creation_date              2018-12-19
_audit_creation_method            'Materials Studio'
_symmetry_space_group_name_H-M    'P1'
_symmetry_Int_Tables_number       1
_symmetry_cell_setting            triclinic
loop_
_symmetry_equiv_pos_as_xyz
  x,y,z
_cell_length_a                    13.7019
_cell_length_b                    27.0004
_cell_length_c                    12.5647
_cell_angle_alpha                 90.0000
_cell_angle_beta                  90.0000
_cell_angle_gamma                 90.0000
loop_
_atom_site_label
_atom_site_type_symbol
_atom_site_fract_x
_atom_site_fract_y
_atom_site_fract_z
_atom_site_U_iso_or_equiv
_atom_site_adp_type
_atom_site_occupancy
C1     C     0.94549   0.83760   0.45657   0.00000  Uiso   1.00
C2     C     0.01212   0.86399   0.53553   0.00000  Uiso   1.00
C3     C     0.04971   0.84366   0.62832   0.00000  Uiso   1.00
C4     C     0.10925   0.87385   0.68985   0.00000  Uiso   1.00
C5     C     0.20946   0.90742   0.81709   0.00000  Uiso   1.00
C6     C     0.85433   0.86969   0.44700   0.00000  Uiso   1.00
C7     C     0.75925   0.85416   0.46535   0.00000  Uiso   1.00
C8     C     0.68596   0.88915   0.45234   0.00000  Uiso   1.00
C9     C     0.54119   0.93156   0.44205   0.00000  Uiso   1.00
C10    C     0.99665   0.84063   0.34899   0.00000  Uiso   1.00
C11    C     0.02123   0.80066   0.28492   0.00000  Uiso   1.00
C12    C     0.06774   0.81118   0.18938   0.00000  Uiso   1.00
C13    C     0.14396   0.80847   0.02693   0.00000  Uiso   1.00
C14    C     0.98438   0.92735   0.40083   0.00000  Uiso   1.00
C15    C     0.03324   0.91274   0.50525   0.00000  Uiso   1.00
C16    C     0.09274   0.94297   0.56665   0.00000  Uiso   1.00
C17    C     0.13042   0.92269   0.65952   0.00000  Uiso   1.00
C18    C     0.87545   0.91844   0.41672   0.00000  Uiso   1.00
C19    C     0.80228   0.95346   0.40368   0.00000  Uiso   1.00
C20    C     0.70712   0.93799   0.42201   0.00000  Uiso   1.00
C21    C     0.01778   0.88938   0.31872   0.00000  Uiso   1.00
C22    C     0.06426   0.89997   0.22326   0.00000  Uiso   1.00
C23    C     0.08890   0.86002   0.15905   0.00000  Uiso   1.00
H24    H     0.92904   0.79964   0.48014   0.00000  Uiso   1.00
H25    H     0.03334   0.80593   0.65173   0.00000  Uiso   1.00
H26    H     0.74293   0.81643   0.48876   0.00000  Uiso   1.00
H27    H     0.00487   0.76294   0.30837   0.00000  Uiso   1.00
H28    H     0.15827   0.83441   0.82864   0.00000  Uiso   1.00
H29    H     0.54591   0.85653   0.48498   0.00000  Uiso   1.00
H30    H     0.09826   0.74374   0.10459   0.00000  Uiso   1.00
H31    H     0.00082   0.96531   0.37726   0.00000  Uiso   1.00
H32    H     0.10907   0.98069   0.54320   0.00000  Uiso   1.00
H33    H     0.81865   0.99119   0.38024   0.00000  Uiso   1.00
H34    H     0.08059   0.93770   0.19985   0.00000  Uiso   1.00
H35    H     0.21973   0.97625   0.74056   0.00000  Uiso   1.00
H36    H     0.60737   0.99837   0.39690   0.00000  Uiso   1.00
H37    H     0.15972   0.88558   0.01651   0.00000  Uiso   1.00
O38    O     0.25889   0.91247   0.89564   0.00000  Uiso   1.00
O39    O     0.45550   0.94149   0.44476   0.00000  Uiso   1.00
O40    O     0.18017   0.79351   0.94570   0.00000  Uiso   1.00
N41    N     0.15789   0.86568   0.78512   0.00000  Uiso   1.00
N42    N     0.58538   0.88636   0.46384   0.00000  Uiso   1.00
N43    N     0.10175   0.78091   0.10819   0.00000  Uiso   1.00
N44    N     0.19097   0.94200   0.73773   0.00000  Uiso   1.00
N45    N     0.61845   0.96269   0.41645   0.00000  Uiso   1.00
N46    N     0.13483   0.85724   0.06080   0.00000  Uiso   1.00
C47    C     0.94549   0.33760   0.95657   0.00000  Uiso   1.00
C48    C     0.01212   0.36399   0.03553   0.00000  Uiso   1.00
C49    C     0.04971   0.34366   0.12832   0.00000  Uiso   1.00
C50    C     0.10925   0.37385   0.18985   0.00000  Uiso   1.00
C51    C     0.20946   0.40742   0.31709   0.00000  Uiso   1.00
C52    C     0.85433   0.36969   0.94700   0.00000  Uiso   1.00
C53    C     0.75925   0.35416   0.96535   0.00000  Uiso   1.00
C54    C     0.68596   0.38915   0.95234   0.00000  Uiso   1.00
C55    C     0.54119   0.43156   0.94205   0.00000  Uiso   1.00
C56    C     0.99665   0.34063   0.84899   0.00000  Uiso   1.00
C57    C     0.02123   0.30066   0.78492   0.00000  Uiso   1.00
C58    C     0.06774   0.31118   0.68938   0.00000  Uiso   1.00
C59    C     0.14396   0.30847   0.52693   0.00000  Uiso   1.00
C60    C     0.98438   0.42735   0.90083   0.00000  Uiso   1.00
C61    C     0.03324   0.41274   0.00525   0.00000  Uiso   1.00
C62    C     0.09274   0.44297   0.06665   0.00000  Uiso   1.00
C63    C     0.13042   0.42269   0.15952   0.00000  Uiso   1.00
C64    C     0.87545   0.41844   0.91672   0.00000  Uiso   1.00
C65    C     0.80228   0.45346   0.90368   0.00000  Uiso   1.00
C66    C     0.70712   0.43799   0.92201   0.00000  Uiso   1.00
C67    C     0.01778   0.38938   0.81872   0.00000  Uiso   1.00
C68    C     0.06426   0.39997   0.72326   0.00000  Uiso   1.00
C69    C     0.08890   0.36002   0.65905   0.00000  Uiso   1.00
H70    H     0.92904   0.29964   0.98014   0.00000  Uiso   1.00
H71    H     0.03334   0.30593   0.15173   0.00000  Uiso   1.00
H72    H     0.74293   0.31643   0.98876   0.00000  Uiso   1.00
H73    H     0.00487   0.26294   0.80837   0.00000  Uiso   1.00
H74    H     0.15827   0.33441   0.32864   0.00000  Uiso   1.00
H75    H     0.54591   0.35653   0.98498   0.00000  Uiso   1.00
H76    H     0.09826   0.24374   0.60459   0.00000  Uiso   1.00
H77    H     0.00082   0.46531   0.87726   0.00000  Uiso   1.00
H78    H     0.10907   0.48069   0.04320   0.00000  Uiso   1.00
H79    H     0.81865   0.49119   0.88024   0.00000  Uiso   1.00
H80    H     0.08059   0.43770   0.69985   0.00000  Uiso   1.00
H81    H     0.21973   0.47625   0.24056   0.00000  Uiso   1.00
H82    H     0.60737   0.49837   0.89690   0.00000  Uiso   1.00
H83    H     0.15972   0.38558   0.51651   0.00000  Uiso   1.00
O84    O     0.25889   0.41247   0.39564   0.00000  Uiso   1.00
O85    O     0.45550   0.44149   0.94476   0.00000  Uiso   1.00
O86    O     0.18017   0.29351   0.44570   0.00000  Uiso   1.00
N87    N     0.15789   0.36568   0.28512   0.00000  Uiso   1.00
N88    N     0.58538   0.38636   0.96384   0.00000  Uiso   1.00
N89    N     0.10175   0.28091   0.60819   0.00000  Uiso   1.00
N90    N     0.19097   0.44200   0.23773   0.00000  Uiso   1.00
N91    N     0.61845   0.46269   0.91645   0.00000  Uiso   1.00
N92    N     0.13483   0.35724   0.56080   0.00000  Uiso   1.00
C93    C     0.05451   0.16240   0.45657   0.00000  Uiso   1.00
C94    C     0.98788   0.13601   0.53553   0.00000  Uiso   1.00
C95    C     0.95029   0.15634   0.62832   0.00000  Uiso   1.00
C96    C     0.89075   0.12615   0.68985   0.00000  Uiso   1.00
C97    C     0.79054   0.09258   0.81709   0.00000  Uiso   1.00
C98    C     0.14567   0.13031   0.44700   0.00000  Uiso   1.00
C99    C     0.24075   0.14584   0.46535   0.00000  Uiso   1.00
C100   C     0.31404   0.11085   0.45234   0.00000  Uiso   1.00
C101   C     0.45881   0.06844   0.44205   0.00000  Uiso   1.00
C102   C     0.00335   0.15937   0.34899   0.00000  Uiso   1.00
C103   C     0.97877   0.19934   0.28492   0.00000  Uiso   1.00
C104   C     0.93226   0.18882   0.18938   0.00000  Uiso   1.00
C105   C     0.85604   0.19153   0.02693   0.00000  Uiso   1.00
C106   C     0.01562   0.07265   0.40083   0.00000  Uiso   1.00
C107   C     0.96676   0.08726   0.50525   0.00000  Uiso   1.00
C108   C     0.90726   0.05703   0.56665   0.00000  Uiso   1.00
C109   C     0.86958   0.07731   0.65952   0.00000  Uiso   1.00
C110   C     0.12455   0.08156   0.41672   0.00000  Uiso   1.00
C111   C     0.19772   0.04654   0.40368   0.00000  Uiso   1.00
C112   C     0.29288   0.06201   0.42201   0.00000  Uiso   1.00
C113   C     0.98222   0.11062   0.31872   0.00000  Uiso   1.00
C114   C     0.93574   0.10003   0.22326   0.00000  Uiso   1.00
C115   C     0.91110   0.13998   0.15905   0.00000  Uiso   1.00
H116   H     0.07096   0.20036   0.48014   0.00000  Uiso   1.00
H117   H     0.96666   0.19407   0.65173   0.00000  Uiso   1.00
H118   H     0.25707   0.18357   0.48876   0.00000  Uiso   1.00
H119   H     0.99513   0.23706   0.30837   0.00000  Uiso   1.00
H120   H     0.84173   0.16559   0.82864   0.00000  Uiso   1.00
H121   H     0.45409   0.14347   0.48498   0.00000  Uiso   1.00
H122   H     0.90174   0.25626   0.10459   0.00000  Uiso   1.00
H123   H     0.99918   0.03469   0.37726   0.00000  Uiso   1.00
H124   H     0.89093   0.01931   0.54320   0.00000  Uiso   1.00
H125   H     0.18135   0.00881   0.38024   0.00000  Uiso   1.00
H126   H     0.91941   0.06230   0.19985   0.00000  Uiso   1.00
H127   H     0.78027   0.02375   0.74056   0.00000  Uiso   1.00
H128   H     0.39263   0.00163   0.39690   0.00000  Uiso   1.00
H129   H     0.84028   0.11442   0.01651   0.00000  Uiso   1.00
O130   O     0.74111   0.08753   0.89564   0.00000  Uiso   1.00
O131   O     0.54450   0.05851   0.44476   0.00000  Uiso   1.00
O132   O     0.81983   0.20649   0.94570   0.00000  Uiso   1.00
N133   N     0.84211   0.13432   0.78512   0.00000  Uiso   1.00
N134   N     0.41462   0.11364   0.46384   0.00000  Uiso   1.00
N135   N     0.89825   0.21909   0.10819   0.00000  Uiso   1.00
N136   N     0.80903   0.05800   0.73773   0.00000  Uiso   1.00
N137   N     0.38155   0.03731   0.41645   0.00000  Uiso   1.00
N138   N     0.86517   0.14276   0.06080   0.00000  Uiso   1.00
C139   C     0.05451   0.66240   0.95657   0.00000  Uiso   1.00
C140   C     0.98788   0.63601   0.03553   0.00000  Uiso   1.00
C141   C     0.95029   0.65634   0.12832   0.00000  Uiso   1.00
C142   C     0.89075   0.62615   0.18985   0.00000  Uiso   1.00
C143   C     0.79054   0.59258   0.31709   0.00000  Uiso   1.00
C144   C     0.14567   0.63031   0.94700   0.00000  Uiso   1.00
C145   C     0.24075   0.64584   0.96535   0.00000  Uiso   1.00
C146   C     0.31404   0.61085   0.95234   0.00000  Uiso   1.00
C147   C     0.45881   0.56844   0.94205   0.00000  Uiso   1.00
C148   C     0.00335   0.65937   0.84899   0.00000  Uiso   1.00
C149   C     0.97877   0.69934   0.78492   0.00000  Uiso   1.00
C150   C     0.93226   0.68882   0.68938   0.00000  Uiso   1.00
C151   C     0.85604   0.69153   0.52693   0.00000  Uiso   1.00
C152   C     0.01562   0.57265   0.90083   0.00000  Uiso   1.00
C153   C     0.96676   0.58726   0.00525   0.00000  Uiso   1.00
C154   C     0.90726   0.55703   0.06665   0.00000  Uiso   1.00
C155   C     0.86958   0.57731   0.15952   0.00000  Uiso   1.00
C156   C     0.12455   0.58156   0.91672   0.00000  Uiso   1.00
C157   C     0.19772   0.54654   0.90368   0.00000  Uiso   1.00
C158   C     0.29288   0.56201   0.92201   0.00000  Uiso   1.00
C159   C     0.98222   0.61062   0.81872   0.00000  Uiso   1.00
C160   C     0.93574   0.60003   0.72326   0.00000  Uiso   1.00
C161   C     0.91110   0.63998   0.65905   0.00000  Uiso   1.00
H162   H     0.07096   0.70036   0.98014   0.00000  Uiso   1.00
H163   H     0.96666   0.69407   0.15173   0.00000  Uiso   1.00
H164   H     0.25707   0.68357   0.98876   0.00000  Uiso   1.00
H165   H     0.99513   0.73706   0.80837   0.00000  Uiso   1.00
H166   H     0.84173   0.66559   0.32864   0.00000  Uiso   1.00
H167   H     0.45409   0.64347   0.98498   0.00000  Uiso   1.00
H168   H     0.90174   0.75626   0.60459   0.00000  Uiso   1.00
H169   H     0.99918   0.53469   0.87726   0.00000  Uiso   1.00
H170   H     0.89093   0.51931   0.04320   0.00000  Uiso   1.00
H171   H     0.18135   0.50881   0.88024   0.00000  Uiso   1.00
H172   H     0.91941   0.56230   0.69985   0.00000  Uiso   1.00
H173   H     0.78027   0.52375   0.24056   0.00000  Uiso   1.00
H174   H     0.39263   0.50163   0.89690   0.00000  Uiso   1.00
H175   H     0.84028   0.61442   0.51651   0.00000  Uiso   1.00
O176   O     0.74111   0.58753   0.39564   0.00000  Uiso   1.00
O177   O     0.54450   0.55851   0.94476   0.00000  Uiso   1.00
O178   O     0.81983   0.70649   0.44570   0.00000  Uiso   1.00
N179   N     0.84211   0.63432   0.28512   0.00000  Uiso   1.00
N180   N     0.41462   0.61364   0.96384   0.00000  Uiso   1.00
N181   N     0.89825   0.71909   0.60819   0.00000  Uiso   1.00
N182   N     0.80903   0.55800   0.23773   0.00000  Uiso   1.00
N183   N     0.38155   0.53731   0.91645   0.00000  Uiso   1.00
N184   N     0.86517   0.64276   0.56080   0.00000  Uiso   1.00
C185   C     0.44549   0.66240   0.45657   0.00000  Uiso   1.00
C186   C     0.51212   0.63601   0.53553   0.00000  Uiso   1.00
C187   C     0.54971   0.65634   0.62832   0.00000  Uiso   1.00
C188   C     0.60925   0.62615   0.68985   0.00000  Uiso   1.00
C189   C     0.70946   0.59258   0.81709   0.00000  Uiso   1.00
C190   C     0.35433   0.63031   0.44700   0.00000  Uiso   1.00
C191   C     0.25925   0.64584   0.46535   0.00000  Uiso   1.00
C192   C     0.18596   0.61085   0.45234   0.00000  Uiso   1.00
C193   C     0.04119   0.56844   0.44205   0.00000  Uiso   1.00
C194   C     0.49665   0.65937   0.34899   0.00000  Uiso   1.00
C195   C     0.52123   0.69934   0.28492   0.00000  Uiso   1.00
C196   C     0.56774   0.68882   0.18938   0.00000  Uiso   1.00
C197   C     0.64396   0.69153   0.02693   0.00000  Uiso   1.00
C198   C     0.48438   0.57265   0.40083   0.00000  Uiso   1.00
C199   C     0.53324   0.58726   0.50525   0.00000  Uiso   1.00
C200   C     0.59274   0.55703   0.56665   0.00000  Uiso   1.00
C201   C     0.63042   0.57731   0.65952   0.00000  Uiso   1.00
C202   C     0.37545   0.58156   0.41672   0.00000  Uiso   1.00
C203   C     0.30228   0.54654   0.40368   0.00000  Uiso   1.00
C204   C     0.20712   0.56201   0.42201   0.00000  Uiso   1.00
C205   C     0.51778   0.61062   0.31872   0.00000  Uiso   1.00
C206   C     0.56426   0.60003   0.22326   0.00000  Uiso   1.00
C207   C     0.58890   0.63998   0.15905   0.00000  Uiso   1.00
H208   H     0.42904   0.70036   0.48014   0.00000  Uiso   1.00
H209   H     0.53334   0.69407   0.65173   0.00000  Uiso   1.00
H210   H     0.24293   0.68357   0.48876   0.00000  Uiso   1.00
H211   H     0.50487   0.73706   0.30837   0.00000  Uiso   1.00
H212   H     0.65827   0.66559   0.82864   0.00000  Uiso   1.00
H213   H     0.04591   0.64347   0.48498   0.00000  Uiso   1.00
H214   H     0.59826   0.75626   0.10459   0.00000  Uiso   1.00
H215   H     0.50082   0.53469   0.37726   0.00000  Uiso   1.00
H216   H     0.60907   0.51931   0.54320   0.00000  Uiso   1.00
H217   H     0.31865   0.50881   0.38024   0.00000  Uiso   1.00
H218   H     0.58059   0.56230   0.19985   0.00000  Uiso   1.00
H219   H     0.71973   0.52375   0.74056   0.00000  Uiso   1.00
H220   H     0.10737   0.50163   0.39690   0.00000  Uiso   1.00
H221   H     0.65972   0.61442   0.01651   0.00000  Uiso   1.00
O222   O     0.75889   0.58753   0.89564   0.00000  Uiso   1.00
O223   O     0.95550   0.55851   0.44476   0.00000  Uiso   1.00
O224   O     0.68017   0.70649   0.94570   0.00000  Uiso   1.00
N225   N     0.65789   0.63432   0.78512   0.00000  Uiso   1.00
N226   N     0.08538   0.61364   0.46384   0.00000  Uiso   1.00
N227   N     0.60175   0.71909   0.10819   0.00000  Uiso   1.00
N228   N     0.69097   0.55800   0.73773   0.00000  Uiso   1.00
N229   N     0.11845   0.53731   0.41645   0.00000  Uiso   1.00
N230   N     0.63483   0.64276   0.06080   0.00000  Uiso   1.00
C231   C     0.44549   0.16240   0.95657   0.00000  Uiso   1.00
C232   C     0.51212   0.13601   0.03553   0.00000  Uiso   1.00
C233   C     0.54971   0.15634   0.12832   0.00000  Uiso   1.00
C234   C     0.60925   0.12615   0.18985   0.00000  Uiso   1.00
C235   C     0.70946   0.09258   0.31709   0.00000  Uiso   1.00
C236   C     0.35433   0.13031   0.94700   0.00000  Uiso   1.00
C237   C     0.25925   0.14584   0.96535   0.00000  Uiso   1.00
C238   C     0.18596   0.11085   0.95234   0.00000  Uiso   1.00
C239   C     0.04119   0.06844   0.94205   0.00000  Uiso   1.00
C240   C     0.49665   0.15937   0.84899   0.00000  Uiso   1.00
C241   C     0.52123   0.19934   0.78492   0.00000  Uiso   1.00
C242   C     0.56774   0.18882   0.68938   0.00000  Uiso   1.00
C243   C     0.64396   0.19153   0.52693   0.00000  Uiso   1.00
C244   C     0.48438   0.07265   0.90083   0.00000  Uiso   1.00
C245   C     0.53324   0.08726   0.00525   0.00000  Uiso   1.00
C246   C     0.59274   0.05703   0.06665   0.00000  Uiso   1.00
C247   C     0.63042   0.07731   0.15952   0.00000  Uiso   1.00
C248   C     0.37545   0.08156   0.91672   0.00000  Uiso   1.00
C249   C     0.30228   0.04654   0.90368   0.00000  Uiso   1.00
C250   C     0.20712   0.06201   0.92201   0.00000  Uiso   1.00
C251   C     0.51778   0.11062   0.81872   0.00000  Uiso   1.00
C252   C     0.56426   0.10003   0.72326   0.00000  Uiso   1.00
C253   C     0.58890   0.13998   0.65905   0.00000  Uiso   1.00
H254   H     0.42904   0.20036   0.98014   0.00000  Uiso   1.00
H255   H     0.53334   0.19407   0.15173   0.00000  Uiso   1.00
H256   H     0.24293   0.18357   0.98876   0.00000  Uiso   1.00
H257   H     0.50487   0.23706   0.80837   0.00000  Uiso   1.00
H258   H     0.65827   0.16559   0.32864   0.00000  Uiso   1.00
H259   H     0.04591   0.14347   0.98498   0.00000  Uiso   1.00
H260   H     0.59826   0.25626   0.60459   0.00000  Uiso   1.00
H261   H     0.50082   0.03469   0.87726   0.00000  Uiso   1.00
H262   H     0.60907   0.01931   0.04320   0.00000  Uiso   1.00
H263   H     0.31865   0.00881   0.88024   0.00000  Uiso   1.00
H264   H     0.58059   0.06230   0.69985   0.00000  Uiso   1.00
H265   H     0.71973   0.02375   0.24056   0.00000  Uiso   1.00
H266   H     0.10737   0.00163   0.89690   0.00000  Uiso   1.00
H267   H     0.65972   0.11442   0.51651   0.00000  Uiso   1.00
O268   O     0.75889   0.08753   0.39564   0.00000  Uiso   1.00
O269   O     0.95550   0.05851   0.94476   0.00000  Uiso   1.00
O270   O     0.68017   0.20649   0.44570   0.00000  Uiso   1.00
N271   N     0.65789   0.13432   0.28512   0.00000  Uiso   1.00
N272   N     0.08538   0.11364   0.96384   0.00000  Uiso   1.00
N273   N     0.60175   0.21909   0.60819   0.00000  Uiso   1.00
N274   N     0.69097   0.05800   0.23773   0.00000  Uiso   1.00
N275   N     0.11845   0.03731   0.91645   0.00000  Uiso   1.00
N276   N     0.63483   0.14276   0.56080   0.00000  Uiso   1.00
C277   C     0.55451   0.33760   0.45657   0.00000  Uiso   1.00
C278   C     0.48788   0.36399   0.53553   0.00000  Uiso   1.00
C279   C     0.45029   0.34366   0.62832   0.00000  Uiso   1.00
C280   C     0.39075   0.37385   0.68985   0.00000  Uiso   1.00
C281   C     0.29054   0.40742   0.81709   0.00000  Uiso   1.00
C282   C     0.64567   0.36969   0.44700   0.00000  Uiso   1.00
C283   C     0.74075   0.35416   0.46535   0.00000  Uiso   1.00
C284   C     0.81404   0.38915   0.45234   0.00000  Uiso   1.00
C285   C     0.95881   0.43156   0.44205   0.00000  Uiso   1.00
C286   C     0.50335   0.34063   0.34899   0.00000  Uiso   1.00
C287   C     0.47877   0.30066   0.28492   0.00000  Uiso   1.00
C288   C     0.43226   0.31118   0.18938   0.00000  Uiso   1.00
C289   C     0.35604   0.30847   0.02693   0.00000  Uiso   1.00
C290   C     0.51562   0.42735   0.40083   0.00000  Uiso   1.00
C291   C     0.46676   0.41274   0.50525   0.00000  Uiso   1.00
C292   C     0.40726   0.44297   0.56665   0.00000  Uiso   1.00
C293   C     0.36958   0.42269   0.65952   0.00000  Uiso   1.00
C294   C     0.62455   0.41844   0.41672   0.00000  Uiso   1.00
C295   C     0.69772   0.45346   0.40368   0.00000  Uiso   1.00
C296   C     0.79288   0.43799   0.42201   0.00000  Uiso   1.00
C297   C     0.48222   0.38938   0.31872   0.00000  Uiso   1.00
C298   C     0.43574   0.39997   0.22326   0.00000  Uiso   1.00
C299   C     0.41110   0.36002   0.15905   0.00000  Uiso   1.00
H300   H     0.57096   0.29964   0.48014   0.00000  Uiso   1.00
H301   H     0.46666   0.30593   0.65173   0.00000  Uiso   1.00
H302   H     0.75707   0.31643   0.48876   0.00000  Uiso   1.00
H303   H     0.49513   0.26294   0.30837   0.00000  Uiso   1.00
H304   H     0.34173   0.33441   0.82864   0.00000  Uiso   1.00
H305   H     0.95409   0.35653   0.48498   0.00000  Uiso   1.00
H306   H     0.40174   0.24374   0.10459   0.00000  Uiso   1.00
H307   H     0.49918   0.46531   0.37726   0.00000  Uiso   1.00
H308   H     0.39093   0.48069   0.54320   0.00000  Uiso   1.00
H309   H     0.68135   0.49119   0.38024   0.00000  Uiso   1.00
H310   H     0.41941   0.43770   0.19985   0.00000  Uiso   1.00
H311   H     0.28027   0.47625   0.74056   0.00000  Uiso   1.00
H312   H     0.89263   0.49837   0.39690   0.00000  Uiso   1.00
H313   H     0.34028   0.38558   0.01651   0.00000  Uiso   1.00
O314   O     0.24111   0.41247   0.89564   0.00000  Uiso   1.00
O315   O     0.04450   0.44149   0.44476   0.00000  Uiso   1.00
O316   O     0.31983   0.29351   0.94570   0.00000  Uiso   1.00
N317   N     0.34211   0.36568   0.78512   0.00000  Uiso   1.00
N318   N     0.91462   0.38636   0.46384   0.00000  Uiso   1.00
N319   N     0.39825   0.28091   0.10819   0.00000  Uiso   1.00
N320   N     0.30903   0.44200   0.73773   0.00000  Uiso   1.00
N321   N     0.88155   0.46269   0.41645   0.00000  Uiso   1.00
N322   N     0.36517   0.35724   0.06080   0.00000  Uiso   1.00
C323   C     0.55451   0.83760   0.95657   0.00000  Uiso   1.00
C324   C     0.48788   0.86399   0.03553   0.00000  Uiso   1.00
C325   C     0.45029   0.84366   0.12832   0.00000  Uiso   1.00
C326   C     0.39075   0.87385   0.18985   0.00000  Uiso   1.00
C327   C     0.29054   0.90742   0.31709   0.00000  Uiso   1.00
C328   C     0.64567   0.86969   0.94700   0.00000  Uiso   1.00
C329   C     0.74075   0.85416   0.96535   0.00000  Uiso   1.00
C330   C     0.81404   0.88915   0.95234   0.00000  Uiso   1.00
C331   C     0.95881   0.93156   0.94205   0.00000  Uiso   1.00
C332   C     0.50335   0.84063   0.84899   0.00000  Uiso   1.00
C333   C     0.47877   0.80066   0.78492   0.00000  Uiso   1.00
C334   C     0.43226   0.81118   0.68938   0.00000  Uiso   1.00
C335   C     0.35604   0.80847   0.52693   0.00000  Uiso   1.00
C336   C     0.51562   0.92735   0.90083   0.00000  Uiso   1.00
C337   C     0.46676   0.91274   0.00525   0.00000  Uiso   1.00
C338   C     0.40726   0.94297   0.06665   0.00000  Uiso   1.00
C339   C     0.36958   0.92269   0.15952   0.00000  Uiso   1.00
C340   C     0.62455   0.91844   0.91672   0.00000  Uiso   1.00
C341   C     0.69772   0.95346   0.90368   0.00000  Uiso   1.00
C342   C     0.79288   0.93799   0.92201   0.00000  Uiso   1.00
C343   C     0.48222   0.88938   0.81872   0.00000  Uiso   1.00
C344   C     0.43574   0.89997   0.72326   0.00000  Uiso   1.00
C345   C     0.41110   0.86002   0.65905   0.00000  Uiso   1.00
H346   H     0.57096   0.79964   0.98014   0.00000  Uiso   1.00
H347   H     0.46666   0.80593   0.15173   0.00000  Uiso   1.00
H348   H     0.75707   0.81643   0.98876   0.00000  Uiso   1.00
H349   H     0.49513   0.76294   0.80837   0.00000  Uiso   1.00
H350   H     0.34173   0.83441   0.32864   0.00000  Uiso   1.00
H351   H     0.95409   0.85653   0.98498   0.00000  Uiso   1.00
H352   H     0.40174   0.74374   0.60459   0.00000  Uiso   1.00
H353   H     0.49918   0.96531   0.87726   0.00000  Uiso   1.00
H354   H     0.39093   0.98069   0.04320   0.00000  Uiso   1.00
H355   H     0.68135   0.99119   0.88024   0.00000  Uiso   1.00
H356   H     0.41941   0.93770   0.69985   0.00000  Uiso   1.00
H357   H     0.28027   0.97625   0.24056   0.00000  Uiso   1.00
H358   H     0.89263   0.99837   0.89690   0.00000  Uiso   1.00
H359   H     0.34028   0.88558   0.51651   0.00000  Uiso   1.00
O360   O     0.24111   0.91247   0.39564   0.00000  Uiso   1.00
O361   O     0.04450   0.94149   0.94476   0.00000  Uiso   1.00
O362   O     0.31983   0.79351   0.44570   0.00000  Uiso   1.00
N363   N     0.34211   0.86568   0.28512   0.00000  Uiso   1.00
N364   N     0.91462   0.88636   0.96384   0.00000  Uiso   1.00
N365   N     0.39825   0.78091   0.60819   0.00000  Uiso   1.00
N366   N     0.30903   0.94200   0.23773   0.00000  Uiso   1.00
N367   N     0.88155   0.96269   0.91645   0.00000  Uiso   1.00
N368   N     0.36517   0.85724   0.56080   0.00000  Uiso   1.00
