data_job_00498
_audit_creation_date              2018-12-19
_audit_creation_method            'Materials Studio'
_symmetry_space_group_name_H-M    'P1'
_symmetry_Int_Tables_number       1
_symmetry_cell_setting            triclinic
loop_
_symmetry_equiv_pos_as_xyz
  x,y,z
_cell_length_a                    25.1813
_cell_length_b                    11.1314
_cell_length_c                    33.9773
_cell_angle_alpha                 90.0000
_cell_angle_beta                  148.5850
_cell_angle_gamma                 90.0000
loop_
_atom_site_label
_atom_site_type_symbol
_atom_site_fract_x
_atom_site_fract_y
_atom_site_fract_z
_atom_site_U_iso_or_equiv
_atom_site_adp_type
_atom_site_occupancy
C1     C     0.73911   0.65361   0.81007   0.00000  Uiso   1.00
C2     C     0.70554   0.58730   0.82590   0.00000  Uiso   1.00
C3     C     0.68210   0.46596   0.81349   0.00000  Uiso   1.00
C4     C     0.65292   0.42243   0.83163   0.00000  Uiso   1.00
C5     C     0.60157   0.30803   0.85169   0.00000  Uiso   1.00
C6     C     0.66377   0.75658   0.75699   0.00000  Uiso   1.00
C7     C     0.60524   0.77756   0.68665   0.00000  Uiso   1.00
C8     C     0.54090   0.87654   0.64679   0.00000  Uiso   1.00
C9     C     0.42477   0.02500   0.55990   0.00000  Uiso   1.00
C10    C     0.84106   0.71187   0.88449   0.00000  Uiso   1.00
C11    C     0.93159   0.69530   0.92136   0.00000  Uiso   1.00
C12    C     0.01651   0.75666   0.98883   0.00000  Uiso   1.00
C13    C     0.17565   0.83571   0.09991   0.00000  Uiso   1.00
C14    C     0.72896   0.79210   0.86434   0.00000  Uiso   1.00
C15    C     0.70002   0.66253   0.85538   0.00000  Uiso   1.00
C16    C     0.67087   0.61917   0.87354   0.00000  Uiso   1.00
C17    C     0.64740   0.49778   0.86116   0.00000  Uiso   1.00
C18    C     0.65825   0.83180   0.78647   0.00000  Uiso   1.00
C19    C     0.59400   0.93078   0.74670   0.00000  Uiso   1.00
C20    C     0.53537   0.95190   0.67632   0.00000  Uiso   1.00
C21    C     0.83554   0.78709   0.91398   0.00000  Uiso   1.00
C22    C     0.92034   0.84851   0.98140   0.00000  Uiso   1.00
C23    C     0.01098   0.83202   0.01836   0.00000  Uiso   1.00
H24    H     0.74340   0.59506   0.78711   0.00000  Uiso   1.00
H25    H     0.68637   0.40777   0.79067   0.00000  Uiso   1.00
H26    H     0.60953   0.71934   0.66386   0.00000  Uiso   1.00
H27    H     0.93582   0.63708   0.89853   0.00000  Uiso   1.00
H28    H     0.62068   0.23332   0.80759   0.00000  Uiso   1.00
H29    H     0.45867   0.89029   0.54021   0.00000  Uiso   1.00
H30    H     0.14673   0.71683   0.03505   0.00000  Uiso   1.00
H31    H     0.72466   0.85067   0.88729   0.00000  Uiso   1.00
H32    H     0.66660   0.67741   0.89635   0.00000  Uiso   1.00
H33    H     0.58975   0.98897   0.76953   0.00000  Uiso   1.00
H34    H     0.91605   0.90671   0.00420   0.00000  Uiso   1.00
H35    H     0.60462   0.45216   0.89336   0.00000  Uiso   1.00
H36    H     0.44262   0.10914   0.62598   0.00000  Uiso   1.00
H37    H     0.13068   0.93568   0.12082   0.00000  Uiso   1.00
O38    O     0.57476   0.22416   0.85461   0.00000  Uiso   1.00
O39    O     0.36223   0.08609   0.50382   0.00000  Uiso   1.00
O40    O     0.26495   0.85851   0.15304   0.00000  Uiso   1.00
N41    N     0.62489   0.30860   0.82655   0.00000  Uiso   1.00
N42    N     0.47340   0.92281   0.57656   0.00000  Uiso   1.00
N43    N     0.11668   0.76067   0.03918   0.00000  Uiso   1.00
N44    N     0.61625   0.42635   0.87270   0.00000  Uiso   1.00
N45    N     0.46477   0.04057   0.62271   0.00000  Uiso   1.00
N46    N     0.10804   0.87843   0.08534   0.00000  Uiso   1.00
C47    C     0.23911   0.15361   0.81007   0.00000  Uiso   1.00
C48    C     0.20554   0.08730   0.82590   0.00000  Uiso   1.00
C49    C     0.18210   0.96596   0.81349   0.00000  Uiso   1.00
C50    C     0.15292   0.92243   0.83163   0.00000  Uiso   1.00
C51    C     0.10157   0.80803   0.85169   0.00000  Uiso   1.00
C52    C     0.16377   0.25658   0.75699   0.00000  Uiso   1.00
C53    C     0.10524   0.27756   0.68665   0.00000  Uiso   1.00
C54    C     0.04090   0.37654   0.64679   0.00000  Uiso   1.00
C55    C     0.92477   0.52500   0.55990   0.00000  Uiso   1.00
C56    C     0.34106   0.21187   0.88449   0.00000  Uiso   1.00
C57    C     0.43159   0.19530   0.92136   0.00000  Uiso   1.00
C58    C     0.51651   0.25666   0.98883   0.00000  Uiso   1.00
C59    C     0.67565   0.33571   0.09991   0.00000  Uiso   1.00
C60    C     0.22896   0.29210   0.86434   0.00000  Uiso   1.00
C61    C     0.20002   0.16253   0.85538   0.00000  Uiso   1.00
C62    C     0.17087   0.11917   0.87354   0.00000  Uiso   1.00
C63    C     0.14740   0.99778   0.86116   0.00000  Uiso   1.00
C64    C     0.15825   0.33180   0.78647   0.00000  Uiso   1.00
C65    C     0.09400   0.43078   0.74670   0.00000  Uiso   1.00
C66    C     0.03537   0.45190   0.67632   0.00000  Uiso   1.00
C67    C     0.33554   0.28709   0.91398   0.00000  Uiso   1.00
C68    C     0.42034   0.34851   0.98140   0.00000  Uiso   1.00
C69    C     0.51098   0.33202   0.01836   0.00000  Uiso   1.00
H70    H     0.24340   0.09506   0.78711   0.00000  Uiso   1.00
H71    H     0.18637   0.90777   0.79067   0.00000  Uiso   1.00
H72    H     0.10953   0.21934   0.66386   0.00000  Uiso   1.00
H73    H     0.43582   0.13708   0.89853   0.00000  Uiso   1.00
H74    H     0.12068   0.73332   0.80759   0.00000  Uiso   1.00
H75    H     0.95867   0.39029   0.54021   0.00000  Uiso   1.00
H76    H     0.64673   0.21683   0.03505   0.00000  Uiso   1.00
H77    H     0.22466   0.35067   0.88729   0.00000  Uiso   1.00
H78    H     0.16660   0.17741   0.89635   0.00000  Uiso   1.00
H79    H     0.08975   0.48897   0.76953   0.00000  Uiso   1.00
H80    H     0.41605   0.40671   0.00420   0.00000  Uiso   1.00
H81    H     0.10462   0.95216   0.89336   0.00000  Uiso   1.00
H82    H     0.94262   0.60914   0.62598   0.00000  Uiso   1.00
H83    H     0.63068   0.43568   0.12082   0.00000  Uiso   1.00
O84    O     0.07476   0.72416   0.85461   0.00000  Uiso   1.00
O85    O     0.86223   0.58609   0.50382   0.00000  Uiso   1.00
O86    O     0.76495   0.35851   0.15304   0.00000  Uiso   1.00
N87    N     0.12489   0.80860   0.82655   0.00000  Uiso   1.00
N88    N     0.97340   0.42281   0.57656   0.00000  Uiso   1.00
N89    N     0.61668   0.26067   0.03918   0.00000  Uiso   1.00
N90    N     0.11625   0.92635   0.87270   0.00000  Uiso   1.00
N91    N     0.96477   0.54057   0.62271   0.00000  Uiso   1.00
N92    N     0.60804   0.37843   0.08534   0.00000  Uiso   1.00
C93    C     0.26089   0.65361   0.68993   0.00000  Uiso   1.00
C94    C     0.29446   0.58730   0.67410   0.00000  Uiso   1.00
C95    C     0.31790   0.46596   0.68651   0.00000  Uiso   1.00
C96    C     0.34708   0.42243   0.66837   0.00000  Uiso   1.00
C97    C     0.39843   0.30803   0.64831   0.00000  Uiso   1.00
C98    C     0.33623   0.75658   0.74301   0.00000  Uiso   1.00
C99    C     0.39476   0.77756   0.81335   0.00000  Uiso   1.00
C100   C     0.45910   0.87654   0.85321   0.00000  Uiso   1.00
C101   C     0.57523   0.02500   0.94010   0.00000  Uiso   1.00
C102   C     0.15894   0.71187   0.61551   0.00000  Uiso   1.00
C103   C     0.06841   0.69530   0.57864   0.00000  Uiso   1.00
C104   C     0.98349   0.75666   0.51117   0.00000  Uiso   1.00
C105   C     0.82435   0.83571   0.40009   0.00000  Uiso   1.00
C106   C     0.27104   0.79210   0.63566   0.00000  Uiso   1.00
C107   C     0.29998   0.66253   0.64462   0.00000  Uiso   1.00
C108   C     0.32913   0.61917   0.62646   0.00000  Uiso   1.00
C109   C     0.35260   0.49778   0.63884   0.00000  Uiso   1.00
C110   C     0.34175   0.83180   0.71353   0.00000  Uiso   1.00
C111   C     0.40600   0.93078   0.75330   0.00000  Uiso   1.00
C112   C     0.46463   0.95190   0.82368   0.00000  Uiso   1.00
C113   C     0.16446   0.78709   0.58602   0.00000  Uiso   1.00
C114   C     0.07966   0.84851   0.51860   0.00000  Uiso   1.00
C115   C     0.98902   0.83202   0.48164   0.00000  Uiso   1.00
H116   H     0.25660   0.59506   0.71289   0.00000  Uiso   1.00
H117   H     0.31363   0.40777   0.70933   0.00000  Uiso   1.00
H118   H     0.39047   0.71934   0.83614   0.00000  Uiso   1.00
H119   H     0.06418   0.63708   0.60147   0.00000  Uiso   1.00
H120   H     0.37932   0.23332   0.69241   0.00000  Uiso   1.00
H121   H     0.54133   0.89029   0.95979   0.00000  Uiso   1.00
H122   H     0.85327   0.71683   0.46495   0.00000  Uiso   1.00
H123   H     0.27534   0.85067   0.61271   0.00000  Uiso   1.00
H124   H     0.33340   0.67741   0.60365   0.00000  Uiso   1.00
H125   H     0.41025   0.98897   0.73047   0.00000  Uiso   1.00
H126   H     0.08395   0.90671   0.49580   0.00000  Uiso   1.00
H127   H     0.39538   0.45216   0.60664   0.00000  Uiso   1.00
H128   H     0.55738   0.10914   0.87402   0.00000  Uiso   1.00
H129   H     0.86932   0.93568   0.37918   0.00000  Uiso   1.00
O130   O     0.42524   0.22416   0.64539   0.00000  Uiso   1.00
O131   O     0.63777   0.08609   0.99618   0.00000  Uiso   1.00
O132   O     0.73505   0.85851   0.34696   0.00000  Uiso   1.00
N133   N     0.37511   0.30860   0.67345   0.00000  Uiso   1.00
N134   N     0.52660   0.92281   0.92344   0.00000  Uiso   1.00
N135   N     0.88332   0.76067   0.46082   0.00000  Uiso   1.00
N136   N     0.38375   0.42635   0.62730   0.00000  Uiso   1.00
N137   N     0.53523   0.04057   0.87729   0.00000  Uiso   1.00
N138   N     0.89196   0.87843   0.41466   0.00000  Uiso   1.00
C139   C     0.76089   0.15361   0.68993   0.00000  Uiso   1.00
C140   C     0.79446   0.08730   0.67410   0.00000  Uiso   1.00
C141   C     0.81790   0.96596   0.68651   0.00000  Uiso   1.00
C142   C     0.84708   0.92243   0.66837   0.00000  Uiso   1.00
C143   C     0.89843   0.80803   0.64831   0.00000  Uiso   1.00
C144   C     0.83623   0.25658   0.74301   0.00000  Uiso   1.00
C145   C     0.89476   0.27756   0.81335   0.00000  Uiso   1.00
C146   C     0.95910   0.37654   0.85321   0.00000  Uiso   1.00
C147   C     0.07523   0.52500   0.94010   0.00000  Uiso   1.00
C148   C     0.65894   0.21187   0.61551   0.00000  Uiso   1.00
C149   C     0.56841   0.19530   0.57864   0.00000  Uiso   1.00
C150   C     0.48349   0.25666   0.51117   0.00000  Uiso   1.00
C151   C     0.32435   0.33571   0.40009   0.00000  Uiso   1.00
C152   C     0.77104   0.29210   0.63566   0.00000  Uiso   1.00
C153   C     0.79998   0.16253   0.64462   0.00000  Uiso   1.00
C154   C     0.82913   0.11917   0.62646   0.00000  Uiso   1.00
C155   C     0.85260   0.99778   0.63884   0.00000  Uiso   1.00
C156   C     0.84175   0.33180   0.71353   0.00000  Uiso   1.00
C157   C     0.90600   0.43078   0.75330   0.00000  Uiso   1.00
C158   C     0.96463   0.45190   0.82368   0.00000  Uiso   1.00
C159   C     0.66446   0.28709   0.58602   0.00000  Uiso   1.00
C160   C     0.57966   0.34851   0.51860   0.00000  Uiso   1.00
C161   C     0.48902   0.33202   0.48164   0.00000  Uiso   1.00
H162   H     0.75660   0.09506   0.71289   0.00000  Uiso   1.00
H163   H     0.81363   0.90777   0.70933   0.00000  Uiso   1.00
H164   H     0.89047   0.21934   0.83614   0.00000  Uiso   1.00
H165   H     0.56418   0.13708   0.60147   0.00000  Uiso   1.00
H166   H     0.87932   0.73332   0.69241   0.00000  Uiso   1.00
H167   H     0.04133   0.39029   0.95979   0.00000  Uiso   1.00
H168   H     0.35327   0.21683   0.46495   0.00000  Uiso   1.00
H169   H     0.77534   0.35067   0.61271   0.00000  Uiso   1.00
H170   H     0.83340   0.17741   0.60365   0.00000  Uiso   1.00
H171   H     0.91025   0.48897   0.73047   0.00000  Uiso   1.00
H172   H     0.58395   0.40671   0.49580   0.00000  Uiso   1.00
H173   H     0.89538   0.95216   0.60664   0.00000  Uiso   1.00
H174   H     0.05738   0.60914   0.87402   0.00000  Uiso   1.00
H175   H     0.36932   0.43568   0.37918   0.00000  Uiso   1.00
O176   O     0.92524   0.72416   0.64539   0.00000  Uiso   1.00
O177   O     0.13777   0.58609   0.99618   0.00000  Uiso   1.00
O178   O     0.23505   0.35851   0.34696   0.00000  Uiso   1.00
N179   N     0.87511   0.80860   0.67345   0.00000  Uiso   1.00
N180   N     0.02660   0.42281   0.92344   0.00000  Uiso   1.00
N181   N     0.38332   0.26067   0.46082   0.00000  Uiso   1.00
N182   N     0.88375   0.92635   0.62730   0.00000  Uiso   1.00
N183   N     0.03523   0.54057   0.87729   0.00000  Uiso   1.00
N184   N     0.39196   0.37843   0.41466   0.00000  Uiso   1.00
C185   C     0.26089   0.34639   0.18993   0.00000  Uiso   1.00
C186   C     0.29446   0.41270   0.17410   0.00000  Uiso   1.00
C187   C     0.31790   0.53404   0.18651   0.00000  Uiso   1.00
C188   C     0.34708   0.57757   0.16837   0.00000  Uiso   1.00
C189   C     0.39843   0.69197   0.14831   0.00000  Uiso   1.00
C190   C     0.33623   0.24342   0.24301   0.00000  Uiso   1.00
C191   C     0.39476   0.22244   0.31335   0.00000  Uiso   1.00
C192   C     0.45910   0.12346   0.35321   0.00000  Uiso   1.00
C193   C     0.57523   0.97500   0.44010   0.00000  Uiso   1.00
C194   C     0.15894   0.28813   0.11551   0.00000  Uiso   1.00
C195   C     0.06841   0.30470   0.07864   0.00000  Uiso   1.00
C196   C     0.98349   0.24334   0.01117   0.00000  Uiso   1.00
C197   C     0.82435   0.16429   0.90009   0.00000  Uiso   1.00
C198   C     0.27104   0.20790   0.13566   0.00000  Uiso   1.00
C199   C     0.29998   0.33747   0.14462   0.00000  Uiso   1.00
C200   C     0.32913   0.38083   0.12646   0.00000  Uiso   1.00
C201   C     0.35260   0.50222   0.13884   0.00000  Uiso   1.00
C202   C     0.34175   0.16820   0.21353   0.00000  Uiso   1.00
C203   C     0.40600   0.06922   0.25330   0.00000  Uiso   1.00
C204   C     0.46463   0.04810   0.32368   0.00000  Uiso   1.00
C205   C     0.16446   0.21291   0.08602   0.00000  Uiso   1.00
C206   C     0.07966   0.15149   0.01860   0.00000  Uiso   1.00
C207   C     0.98902   0.16798   0.98164   0.00000  Uiso   1.00
H208   H     0.25660   0.40494   0.21289   0.00000  Uiso   1.00
H209   H     0.31363   0.59223   0.20933   0.00000  Uiso   1.00
H210   H     0.39047   0.28066   0.33614   0.00000  Uiso   1.00
H211   H     0.06418   0.36292   0.10147   0.00000  Uiso   1.00
H212   H     0.37932   0.76668   0.19241   0.00000  Uiso   1.00
H213   H     0.54133   0.10971   0.45979   0.00000  Uiso   1.00
H214   H     0.85327   0.28317   0.96495   0.00000  Uiso   1.00
H215   H     0.27534   0.14933   0.11271   0.00000  Uiso   1.00
H216   H     0.33340   0.32259   0.10365   0.00000  Uiso   1.00
H217   H     0.41025   0.01103   0.23047   0.00000  Uiso   1.00
H218   H     0.08395   0.09329   0.99580   0.00000  Uiso   1.00
H219   H     0.39538   0.54784   0.10664   0.00000  Uiso   1.00
H220   H     0.55738   0.89086   0.37402   0.00000  Uiso   1.00
H221   H     0.86932   0.06432   0.87918   0.00000  Uiso   1.00
O222   O     0.42524   0.77584   0.14539   0.00000  Uiso   1.00
O223   O     0.63777   0.91391   0.49618   0.00000  Uiso   1.00
O224   O     0.73505   0.14149   0.84696   0.00000  Uiso   1.00
N225   N     0.37511   0.69140   0.17345   0.00000  Uiso   1.00
N226   N     0.52660   0.07719   0.42344   0.00000  Uiso   1.00
N227   N     0.88332   0.23933   0.96082   0.00000  Uiso   1.00
N228   N     0.38375   0.57365   0.12730   0.00000  Uiso   1.00
N229   N     0.53523   0.95943   0.37729   0.00000  Uiso   1.00
N230   N     0.89196   0.12157   0.91466   0.00000  Uiso   1.00
C231   C     0.76089   0.84639   0.18993   0.00000  Uiso   1.00
C232   C     0.79446   0.91270   0.17410   0.00000  Uiso   1.00
C233   C     0.81790   0.03404   0.18651   0.00000  Uiso   1.00
C234   C     0.84708   0.07757   0.16837   0.00000  Uiso   1.00
C235   C     0.89843   0.19197   0.14831   0.00000  Uiso   1.00
C236   C     0.83623   0.74342   0.24301   0.00000  Uiso   1.00
C237   C     0.89476   0.72244   0.31335   0.00000  Uiso   1.00
C238   C     0.95910   0.62346   0.35321   0.00000  Uiso   1.00
C239   C     0.07523   0.47500   0.44010   0.00000  Uiso   1.00
C240   C     0.65894   0.78813   0.11551   0.00000  Uiso   1.00
C241   C     0.56841   0.80470   0.07864   0.00000  Uiso   1.00
C242   C     0.48349   0.74334   0.01117   0.00000  Uiso   1.00
C243   C     0.32435   0.66429   0.90009   0.00000  Uiso   1.00
C244   C     0.77104   0.70790   0.13566   0.00000  Uiso   1.00
C245   C     0.79998   0.83747   0.14462   0.00000  Uiso   1.00
C246   C     0.82913   0.88083   0.12646   0.00000  Uiso   1.00
C247   C     0.85260   0.00222   0.13884   0.00000  Uiso   1.00
C248   C     0.84175   0.66820   0.21353   0.00000  Uiso   1.00
C249   C     0.90600   0.56922   0.25330   0.00000  Uiso   1.00
C250   C     0.96463   0.54810   0.32368   0.00000  Uiso   1.00
C251   C     0.66446   0.71291   0.08602   0.00000  Uiso   1.00
C252   C     0.57966   0.65149   0.01860   0.00000  Uiso   1.00
C253   C     0.48902   0.66798   0.98164   0.00000  Uiso   1.00
H254   H     0.75660   0.90494   0.21289   0.00000  Uiso   1.00
H255   H     0.81363   0.09223   0.20933   0.00000  Uiso   1.00
H256   H     0.89047   0.78066   0.33614   0.00000  Uiso   1.00
H257   H     0.56418   0.86292   0.10147   0.00000  Uiso   1.00
H258   H     0.87932   0.26668   0.19241   0.00000  Uiso   1.00
H259   H     0.04133   0.60971   0.45979   0.00000  Uiso   1.00
H260   H     0.35327   0.78317   0.96495   0.00000  Uiso   1.00
H261   H     0.77534   0.64933   0.11271   0.00000  Uiso   1.00
H262   H     0.83340   0.82259   0.10365   0.00000  Uiso   1.00
H263   H     0.91025   0.51103   0.23047   0.00000  Uiso   1.00
H264   H     0.58395   0.59329   0.99580   0.00000  Uiso   1.00
H265   H     0.89538   0.04784   0.10664   0.00000  Uiso   1.00
H266   H     0.05738   0.39086   0.37402   0.00000  Uiso   1.00
H267   H     0.36932   0.56432   0.87918   0.00000  Uiso   1.00
O268   O     0.92524   0.27584   0.14539   0.00000  Uiso   1.00
O269   O     0.13777   0.41391   0.49618   0.00000  Uiso   1.00
O270   O     0.23505   0.64149   0.84696   0.00000  Uiso   1.00
N271   N     0.87511   0.19140   0.17345   0.00000  Uiso   1.00
N272   N     0.02660   0.57719   0.42344   0.00000  Uiso   1.00
N273   N     0.38332   0.73933   0.96082   0.00000  Uiso   1.00
N274   N     0.88375   0.07365   0.12730   0.00000  Uiso   1.00
N275   N     0.03523   0.45943   0.37729   0.00000  Uiso   1.00
N276   N     0.39196   0.62157   0.91466   0.00000  Uiso   1.00
C277   C     0.73911   0.34639   0.31007   0.00000  Uiso   1.00
C278   C     0.70554   0.41270   0.32590   0.00000  Uiso   1.00
C279   C     0.68210   0.53404   0.31349   0.00000  Uiso   1.00
C280   C     0.65292   0.57757   0.33163   0.00000  Uiso   1.00
C281   C     0.60157   0.69197   0.35169   0.00000  Uiso   1.00
C282   C     0.66377   0.24342   0.25699   0.00000  Uiso   1.00
C283   C     0.60524   0.22244   0.18665   0.00000  Uiso   1.00
C284   C     0.54090   0.12346   0.14679   0.00000  Uiso   1.00
C285   C     0.42477   0.97500   0.05990   0.00000  Uiso   1.00
C286   C     0.84106   0.28813   0.38449   0.00000  Uiso   1.00
C287   C     0.93159   0.30470   0.42136   0.00000  Uiso   1.00
C288   C     0.01651   0.24334   0.48883   0.00000  Uiso   1.00
C289   C     0.17565   0.16429   0.59991   0.00000  Uiso   1.00
C290   C     0.72896   0.20790   0.36434   0.00000  Uiso   1.00
C291   C     0.70002   0.33747   0.35538   0.00000  Uiso   1.00
C292   C     0.67087   0.38083   0.37354   0.00000  Uiso   1.00
C293   C     0.64740   0.50222   0.36116   0.00000  Uiso   1.00
C294   C     0.65825   0.16820   0.28647   0.00000  Uiso   1.00
C295   C     0.59400   0.06922   0.24670   0.00000  Uiso   1.00
C296   C     0.53537   0.04810   0.17632   0.00000  Uiso   1.00
C297   C     0.83554   0.21291   0.41398   0.00000  Uiso   1.00
C298   C     0.92034   0.15149   0.48140   0.00000  Uiso   1.00
C299   C     0.01098   0.16798   0.51836   0.00000  Uiso   1.00
H300   H     0.74340   0.40494   0.28711   0.00000  Uiso   1.00
H301   H     0.68637   0.59223   0.29067   0.00000  Uiso   1.00
H302   H     0.60953   0.28066   0.16386   0.00000  Uiso   1.00
H303   H     0.93582   0.36292   0.39853   0.00000  Uiso   1.00
H304   H     0.62068   0.76668   0.30759   0.00000  Uiso   1.00
H305   H     0.45867   0.10971   0.04021   0.00000  Uiso   1.00
H306   H     0.14673   0.28317   0.53505   0.00000  Uiso   1.00
H307   H     0.72466   0.14933   0.38729   0.00000  Uiso   1.00
H308   H     0.66660   0.32259   0.39635   0.00000  Uiso   1.00
H309   H     0.58975   0.01103   0.26953   0.00000  Uiso   1.00
H310   H     0.91605   0.09329   0.50420   0.00000  Uiso   1.00
H311   H     0.60462   0.54784   0.39336   0.00000  Uiso   1.00
H312   H     0.44262   0.89086   0.12598   0.00000  Uiso   1.00
H313   H     0.13068   0.06432   0.62082   0.00000  Uiso   1.00
O314   O     0.57476   0.77584   0.35461   0.00000  Uiso   1.00
O315   O     0.36223   0.91391   0.00382   0.00000  Uiso   1.00
O316   O     0.26495   0.14149   0.65304   0.00000  Uiso   1.00
N317   N     0.62489   0.69140   0.32655   0.00000  Uiso   1.00
N318   N     0.47340   0.07719   0.07656   0.00000  Uiso   1.00
N319   N     0.11668   0.23933   0.53918   0.00000  Uiso   1.00
N320   N     0.61625   0.57365   0.37270   0.00000  Uiso   1.00
N321   N     0.46477   0.95943   0.12271   0.00000  Uiso   1.00
N322   N     0.10804   0.12157   0.58534   0.00000  Uiso   1.00
C323   C     0.23911   0.84639   0.31007   0.00000  Uiso   1.00
C324   C     0.20554   0.91270   0.32590   0.00000  Uiso   1.00
C325   C     0.18210   0.03404   0.31349   0.00000  Uiso   1.00
C326   C     0.15292   0.07757   0.33163   0.00000  Uiso   1.00
C327   C     0.10157   0.19197   0.35169   0.00000  Uiso   1.00
C328   C     0.16377   0.74342   0.25699   0.00000  Uiso   1.00
C329   C     0.10524   0.72244   0.18665   0.00000  Uiso   1.00
C330   C     0.04090   0.62346   0.14679   0.00000  Uiso   1.00
C331   C     0.92477   0.47500   0.05990   0.00000  Uiso   1.00
C332   C     0.34106   0.78813   0.38449   0.00000  Uiso   1.00
C333   C     0.43159   0.80470   0.42136   0.00000  Uiso   1.00
C334   C     0.51651   0.74334   0.48883   0.00000  Uiso   1.00
C335   C     0.67565   0.66429   0.59991   0.00000  Uiso   1.00
C336   C     0.22896   0.70790   0.36434   0.00000  Uiso   1.00
C337   C     0.20002   0.83747   0.35538   0.00000  Uiso   1.00
C338   C     0.17087   0.88083   0.37354   0.00000  Uiso   1.00
C339   C     0.14740   0.00222   0.36116   0.00000  Uiso   1.00
C340   C     0.15825   0.66820   0.28647   0.00000  Uiso   1.00
C341   C     0.09400   0.56922   0.24670   0.00000  Uiso   1.00
C342   C     0.03537   0.54810   0.17632   0.00000  Uiso   1.00
C343   C     0.33554   0.71291   0.41398   0.00000  Uiso   1.00
C344   C     0.42034   0.65149   0.48140   0.00000  Uiso   1.00
C345   C     0.51098   0.66798   0.51836   0.00000  Uiso   1.00
H346   H     0.24340   0.90494   0.28711   0.00000  Uiso   1.00
H347   H     0.18637   0.09223   0.29067   0.00000  Uiso   1.00
H348   H     0.10953   0.78066   0.16386   0.00000  Uiso   1.00
H349   H     0.43582   0.86292   0.39853   0.00000  Uiso   1.00
H350   H     0.12068   0.26668   0.30759   0.00000  Uiso   1.00
H351   H     0.95867   0.60971   0.04021   0.00000  Uiso   1.00
H352   H     0.64673   0.78317   0.53505   0.00000  Uiso   1.00
H353   H     0.22466   0.64933   0.38729   0.00000  Uiso   1.00
H354   H     0.16660   0.82259   0.39635   0.00000  Uiso   1.00
H355   H     0.08975   0.51103   0.26953   0.00000  Uiso   1.00
H356   H     0.41605   0.59329   0.50420   0.00000  Uiso   1.00
H357   H     0.10462   0.04784   0.39336   0.00000  Uiso   1.00
H358   H     0.94262   0.39086   0.12598   0.00000  Uiso   1.00
H359   H     0.63068   0.56432   0.62082   0.00000  Uiso   1.00
O360   O     0.07476   0.27584   0.35461   0.00000  Uiso   1.00
O361   O     0.86223   0.41391   0.00382   0.00000  Uiso   1.00
O362   O     0.76495   0.64149   0.65304   0.00000  Uiso   1.00
N363   N     0.12489   0.19140   0.32655   0.00000  Uiso   1.00
N364   N     0.97340   0.57719   0.07656   0.00000  Uiso   1.00
N365   N     0.61668   0.73933   0.53918   0.00000  Uiso   1.00
N366   N     0.11625   0.07365   0.37270   0.00000  Uiso   1.00
N367   N     0.96477   0.45943   0.12271   0.00000  Uiso   1.00
N368   N     0.60804   0.62157   0.58534   0.00000  Uiso   1.00
