data_job_03345
_audit_creation_date              2018-12-19
_audit_creation_method            'Materials Studio'
_symmetry_space_group_name_H-M    'P1'
_symmetry_Int_Tables_number       1
_symmetry_cell_setting            triclinic
loop_
_symmetry_equiv_pos_as_xyz
  x,y,z
_cell_length_a                    21.1115
_cell_length_b                    21.1115
_cell_length_c                    12.2222
_cell_angle_alpha                 90.0000
_cell_angle_beta                  90.0000
_cell_angle_gamma                 120.0000
loop_
_atom_site_label
_atom_site_type_symbol
_atom_site_fract_x
_atom_site_fract_y
_atom_site_fract_z
_atom_site_U_iso_or_equiv
_atom_site_adp_type
_atom_site_occupancy
C1     C     0.53095   0.27640   0.61677   0.00000  Uiso   1.00
C2     C     0.49290   0.21194   0.69530   0.00000  Uiso   1.00
C3     C     0.49588   0.14779   0.69059   0.00000  Uiso   1.00
C4     C     0.45727   0.09538   0.76995   0.00000  Uiso   1.00
C5     C     0.40426   0.99354   0.87952   0.00000  Uiso   1.00
C6     C     0.47096   0.28854   0.56971   0.00000  Uiso   1.00
C7     C     0.45549   0.28882   0.45941   0.00000  Uiso   1.00
C8     C     0.39842   0.30090   0.43305   0.00000  Uiso   1.00
C9     C     0.31138   0.31805   0.34764   0.00000  Uiso   1.00
C10    C     0.57839   0.34309   0.68762   0.00000  Uiso   1.00
C11    C     0.65326   0.38926   0.67643   0.00000  Uiso   1.00
C12    C     0.68664   0.44728   0.74933   0.00000  Uiso   1.00
C13    C     0.76640   0.54913   0.84698   0.00000  Uiso   1.00
C14    C     0.45712   0.29738   0.76610   0.00000  Uiso   1.00
C15    C     0.45279   0.22333   0.77641   0.00000  Uiso   1.00
C16    C     0.41418   0.17101   0.85580   0.00000  Uiso   1.00
C17    C     0.41710   0.10680   0.85121   0.00000  Uiso   1.00
C18    C     0.43085   0.29994   0.65082   0.00000  Uiso   1.00
C19    C     0.37380   0.31203   0.62462   0.00000  Uiso   1.00
C20    C     0.35824   0.31232   0.51431   0.00000  Uiso   1.00
C21    C     0.53829   0.35449   0.76873   0.00000  Uiso   1.00
C22    C     0.57156   0.41246   0.84165   0.00000  Uiso   1.00
C23    C     0.64646   0.45870   0.83058   0.00000  Uiso   1.00
H24    H     0.56218   0.26753   0.55362   0.00000  Uiso   1.00
H25    H     0.52692   0.13899   0.62780   0.00000  Uiso   1.00
H26    H     0.48654   0.28001   0.39666   0.00000  Uiso   1.00
H27    H     0.68428   0.38042   0.61366   0.00000  Uiso   1.00
H28    H     0.47011   0.00150   0.74579   0.00000  Uiso   1.00
H29    H     0.38500   0.29886   0.25842   0.00000  Uiso   1.00
H30    H     0.80196   0.51061   0.71599   0.00000  Uiso   1.00
H31    H     0.42589   0.30625   0.82924   0.00000  Uiso   1.00
H32    H     0.38315   0.17984   0.91856   0.00000  Uiso   1.00
H33    H     0.34277   0.32085   0.68741   0.00000  Uiso   1.00
H34    H     0.54051   0.42127   0.90441   0.00000  Uiso   1.00
H35    H     0.35342   0.03465   0.98178   0.00000  Uiso   1.00
H36    H     0.26831   0.33201   0.49439   0.00000  Uiso   1.00
H37    H     0.68527   0.54376   0.95197   0.00000  Uiso   1.00
O38    O     0.38609   0.93421   0.91754   0.00000  Uiso   1.00
O39    O     0.27444   0.32434   0.27812   0.00000  Uiso   1.00
O40    O     0.82148   0.60215   0.87845   0.00000  Uiso   1.00
N41    N     0.44853   0.02666   0.78909   0.00000  Uiso   1.00
N42    N     0.36894   0.30466   0.33342   0.00000  Uiso   1.00
N43    N     0.75876   0.50263   0.76119   0.00000  Uiso   1.00
N44    N     0.38574   0.04450   0.91607   0.00000  Uiso   1.00
N45    N     0.30616   0.32249   0.46040   0.00000  Uiso   1.00
N46    N     0.69598   0.52047   0.88818   0.00000  Uiso   1.00
C47    C     0.72360   0.25456   0.95010   0.00000  Uiso   1.00
C48    C     0.78806   0.28097   0.02863   0.00000  Uiso   1.00
C49    C     0.85221   0.34808   0.02392   0.00000  Uiso   1.00
C50    C     0.90462   0.36189   0.10329   0.00000  Uiso   1.00
C51    C     0.00646   0.41072   0.21286   0.00000  Uiso   1.00
C52    C     0.71146   0.18242   0.90305   0.00000  Uiso   1.00
C53    C     0.71118   0.16667   0.79274   0.00000  Uiso   1.00
C54    C     0.69910   0.09752   0.76639   0.00000  Uiso   1.00
C55    C     0.68195   0.99333   0.68098   0.00000  Uiso   1.00
C56    C     0.65691   0.23530   0.02095   0.00000  Uiso   1.00
C57    C     0.61074   0.26400   0.00976   0.00000  Uiso   1.00
C58    C     0.55272   0.23936   0.08266   0.00000  Uiso   1.00
C59    C     0.45087   0.21728   0.18031   0.00000  Uiso   1.00
C60    C     0.70262   0.15974   0.09943   0.00000  Uiso   1.00
C61    C     0.77667   0.22946   0.10974   0.00000  Uiso   1.00
C62    C     0.82899   0.24318   0.18914   0.00000  Uiso   1.00
C63    C     0.89320   0.31030   0.18454   0.00000  Uiso   1.00
C64    C     0.70006   0.13092   0.98415   0.00000  Uiso   1.00
C65    C     0.68797   0.06177   0.95795   0.00000  Uiso   1.00
C66    C     0.68768   0.04592   0.84764   0.00000  Uiso   1.00
C67    C     0.64551   0.18380   0.10206   0.00000  Uiso   1.00
C68    C     0.58754   0.15910   0.17498   0.00000  Uiso   1.00
C69    C     0.54130   0.18776   0.16392   0.00000  Uiso   1.00
H70    H     0.73247   0.29465   0.88695   0.00000  Uiso   1.00
H71    H     0.86101   0.38792   0.96113   0.00000  Uiso   1.00
H72    H     0.71999   0.20654   0.72999   0.00000  Uiso   1.00
H73    H     0.61958   0.30386   0.94699   0.00000  Uiso   1.00
H74    H     0.99850   0.46861   0.07913   0.00000  Uiso   1.00
H75    H     0.70114   0.08614   0.59175   0.00000  Uiso   1.00
H76    H     0.48939   0.29135   0.04932   0.00000  Uiso   1.00
H77    H     0.69375   0.11964   0.16258   0.00000  Uiso   1.00
H78    H     0.82016   0.20331   0.25189   0.00000  Uiso   1.00
H79    H     0.67915   0.02192   0.02074   0.00000  Uiso   1.00
H80    H     0.57873   0.11924   0.23774   0.00000  Uiso   1.00
H81    H     0.96535   0.31877   0.31511   0.00000  Uiso   1.00
H82    H     0.66799   0.93630   0.82773   0.00000  Uiso   1.00
H83    H     0.45624   0.14152   0.28531   0.00000  Uiso   1.00
O84    O     0.06579   0.45188   0.25088   0.00000  Uiso   1.00
O85    O     0.67566   0.95010   0.61145   0.00000  Uiso   1.00
O86    O     0.39785   0.21933   0.21178   0.00000  Uiso   1.00
N87    N     0.97334   0.42187   0.12242   0.00000  Uiso   1.00
N88    N     0.69534   0.06429   0.66675   0.00000  Uiso   1.00
N89    N     0.49737   0.25613   0.09453   0.00000  Uiso   1.00
N90    N     0.95550   0.34124   0.24940   0.00000  Uiso   1.00
N91    N     0.67751   0.98366   0.79373   0.00000  Uiso   1.00
N92    N     0.47953   0.17550   0.22151   0.00000  Uiso   1.00
C93    C     0.74544   0.46905   0.28344   0.00000  Uiso   1.00
C94    C     0.71903   0.50710   0.36197   0.00000  Uiso   1.00
C95    C     0.65192   0.50412   0.35726   0.00000  Uiso   1.00
C96    C     0.63811   0.54273   0.43662   0.00000  Uiso   1.00
C97    C     0.58928   0.59574   0.54619   0.00000  Uiso   1.00
C98    C     0.81758   0.52904   0.23638   0.00000  Uiso   1.00
C99    C     0.83333   0.54451   0.12607   0.00000  Uiso   1.00
C100   C     0.90248   0.60158   0.09972   0.00000  Uiso   1.00
C101   C     0.00667   0.68862   0.01431   0.00000  Uiso   1.00
C102   C     0.76470   0.42161   0.35428   0.00000  Uiso   1.00
C103   C     0.73600   0.34674   0.34310   0.00000  Uiso   1.00
C104   C     0.76064   0.31336   0.41600   0.00000  Uiso   1.00
C105   C     0.78272   0.23360   0.51365   0.00000  Uiso   1.00
C106   C     0.84026   0.54288   0.43276   0.00000  Uiso   1.00
C107   C     0.77054   0.54721   0.44307   0.00000  Uiso   1.00
C108   C     0.75682   0.58582   0.52247   0.00000  Uiso   1.00
C109   C     0.68970   0.58290   0.51788   0.00000  Uiso   1.00
C110   C     0.86908   0.56915   0.31748   0.00000  Uiso   1.00
C111   C     0.93823   0.62620   0.29129   0.00000  Uiso   1.00
C112   C     0.95408   0.64176   0.18097   0.00000  Uiso   1.00
C113   C     0.81620   0.46171   0.43540   0.00000  Uiso   1.00
C114   C     0.84090   0.42844   0.50832   0.00000  Uiso   1.00
C115   C     0.81224   0.35354   0.49725   0.00000  Uiso   1.00
H116   H     0.70535   0.43782   0.22028   0.00000  Uiso   1.00
H117   H     0.61208   0.47308   0.29447   0.00000  Uiso   1.00
H118   H     0.79346   0.51346   0.06333   0.00000  Uiso   1.00
H119   H     0.69614   0.31572   0.28032   0.00000  Uiso   1.00
H120   H     0.53139   0.52989   0.41246   0.00000  Uiso   1.00
H121   H     0.91386   0.61500   0.92508   0.00000  Uiso   1.00
H122   H     0.70865   0.19804   0.38265   0.00000  Uiso   1.00
H123   H     0.88036   0.57411   0.49591   0.00000  Uiso   1.00
H124   H     0.79669   0.61685   0.58523   0.00000  Uiso   1.00
H125   H     0.97808   0.65723   0.35408   0.00000  Uiso   1.00
H126   H     0.88076   0.45949   0.57107   0.00000  Uiso   1.00
H127   H     0.68123   0.64658   0.64844   0.00000  Uiso   1.00
H128   H     0.06370   0.73169   0.16106   0.00000  Uiso   1.00
H129   H     0.85848   0.31473   0.61864   0.00000  Uiso   1.00
O130   O     0.54812   0.61391   0.58421   0.00000  Uiso   1.00
O131   O     0.04990   0.72556   0.94479   0.00000  Uiso   1.00
O132   O     0.78067   0.17852   0.54512   0.00000  Uiso   1.00
N133   N     0.57813   0.55147   0.45576   0.00000  Uiso   1.00
N134   N     0.93571   0.63106   0.00008   0.00000  Uiso   1.00
N135   N     0.74387   0.24124   0.42786   0.00000  Uiso   1.00
N136   N     0.65876   0.61426   0.58274   0.00000  Uiso   1.00
N137   N     0.01634   0.69384   0.12707   0.00000  Uiso   1.00
N138   N     0.82450   0.30402   0.55484   0.00000  Uiso   1.00
C139   C     0.46905   0.72360   0.11677   0.00000  Uiso   1.00
C140   C     0.50710   0.78806   0.19530   0.00000  Uiso   1.00
C141   C     0.50412   0.85221   0.19059   0.00000  Uiso   1.00
C142   C     0.54273   0.90462   0.26995   0.00000  Uiso   1.00
C143   C     0.59574   0.00646   0.37952   0.00000  Uiso   1.00
C144   C     0.52904   0.71146   0.06971   0.00000  Uiso   1.00
C145   C     0.54451   0.71118   0.95941   0.00000  Uiso   1.00
C146   C     0.60158   0.69910   0.93305   0.00000  Uiso   1.00
C147   C     0.68862   0.68195   0.84764   0.00000  Uiso   1.00
C148   C     0.42161   0.65691   0.18762   0.00000  Uiso   1.00
C149   C     0.34674   0.61074   0.17643   0.00000  Uiso   1.00
C150   C     0.31336   0.55272   0.24933   0.00000  Uiso   1.00
C151   C     0.23360   0.45087   0.34698   0.00000  Uiso   1.00
C152   C     0.54288   0.70262   0.26610   0.00000  Uiso   1.00
C153   C     0.54721   0.77667   0.27641   0.00000  Uiso   1.00
C154   C     0.58582   0.82899   0.35580   0.00000  Uiso   1.00
C155   C     0.58290   0.89320   0.35121   0.00000  Uiso   1.00
C156   C     0.56915   0.70006   0.15082   0.00000  Uiso   1.00
C157   C     0.62620   0.68797   0.12462   0.00000  Uiso   1.00
C158   C     0.64176   0.68768   0.01431   0.00000  Uiso   1.00
C159   C     0.46171   0.64551   0.26873   0.00000  Uiso   1.00
C160   C     0.42844   0.58754   0.34165   0.00000  Uiso   1.00
C161   C     0.35354   0.54130   0.33058   0.00000  Uiso   1.00
H162   H     0.43782   0.73247   0.05362   0.00000  Uiso   1.00
H163   H     0.47308   0.86101   0.12780   0.00000  Uiso   1.00
H164   H     0.51346   0.71999   0.89666   0.00000  Uiso   1.00
H165   H     0.31572   0.61958   0.11366   0.00000  Uiso   1.00
H166   H     0.52989   0.99850   0.24579   0.00000  Uiso   1.00
H167   H     0.61500   0.70114   0.75842   0.00000  Uiso   1.00
H168   H     0.19804   0.48939   0.21599   0.00000  Uiso   1.00
H169   H     0.57411   0.69375   0.32924   0.00000  Uiso   1.00
H170   H     0.61685   0.82016   0.41856   0.00000  Uiso   1.00
H171   H     0.65723   0.67915   0.18741   0.00000  Uiso   1.00
H172   H     0.45949   0.57873   0.40441   0.00000  Uiso   1.00
H173   H     0.64658   0.96535   0.48178   0.00000  Uiso   1.00
H174   H     0.73169   0.66799   0.99439   0.00000  Uiso   1.00
H175   H     0.31473   0.45624   0.45197   0.00000  Uiso   1.00
O176   O     0.61391   0.06579   0.41754   0.00000  Uiso   1.00
O177   O     0.72556   0.67566   0.77812   0.00000  Uiso   1.00
O178   O     0.17852   0.39785   0.37845   0.00000  Uiso   1.00
N179   N     0.55147   0.97334   0.28909   0.00000  Uiso   1.00
N180   N     0.63106   0.69534   0.83342   0.00000  Uiso   1.00
N181   N     0.24124   0.49737   0.26119   0.00000  Uiso   1.00
N182   N     0.61426   0.95550   0.41607   0.00000  Uiso   1.00
N183   N     0.69384   0.67751   0.96040   0.00000  Uiso   1.00
N184   N     0.30402   0.47953   0.38818   0.00000  Uiso   1.00
C185   C     0.27640   0.74544   0.45010   0.00000  Uiso   1.00
C186   C     0.21194   0.71903   0.52863   0.00000  Uiso   1.00
C187   C     0.14779   0.65192   0.52392   0.00000  Uiso   1.00
C188   C     0.09538   0.63811   0.60329   0.00000  Uiso   1.00
C189   C     0.99354   0.58928   0.71286   0.00000  Uiso   1.00
C190   C     0.28854   0.81758   0.40305   0.00000  Uiso   1.00
C191   C     0.28882   0.83333   0.29274   0.00000  Uiso   1.00
C192   C     0.30090   0.90248   0.26639   0.00000  Uiso   1.00
C193   C     0.31805   0.00667   0.18098   0.00000  Uiso   1.00
C194   C     0.34309   0.76470   0.52095   0.00000  Uiso   1.00
C195   C     0.38926   0.73600   0.50976   0.00000  Uiso   1.00
C196   C     0.44728   0.76064   0.58266   0.00000  Uiso   1.00
C197   C     0.54913   0.78272   0.68031   0.00000  Uiso   1.00
C198   C     0.29738   0.84026   0.59943   0.00000  Uiso   1.00
C199   C     0.22333   0.77054   0.60974   0.00000  Uiso   1.00
C200   C     0.17101   0.75682   0.68914   0.00000  Uiso   1.00
C201   C     0.10680   0.68970   0.68454   0.00000  Uiso   1.00
C202   C     0.29994   0.86908   0.48415   0.00000  Uiso   1.00
C203   C     0.31203   0.93823   0.45795   0.00000  Uiso   1.00
C204   C     0.31232   0.95408   0.34764   0.00000  Uiso   1.00
C205   C     0.35449   0.81620   0.60206   0.00000  Uiso   1.00
C206   C     0.41246   0.84090   0.67498   0.00000  Uiso   1.00
C207   C     0.45870   0.81224   0.66392   0.00000  Uiso   1.00
H208   H     0.26753   0.70535   0.38695   0.00000  Uiso   1.00
H209   H     0.13899   0.61208   0.46113   0.00000  Uiso   1.00
H210   H     0.28001   0.79346   0.22999   0.00000  Uiso   1.00
H211   H     0.38042   0.69614   0.44699   0.00000  Uiso   1.00
H212   H     0.00150   0.53139   0.57913   0.00000  Uiso   1.00
H213   H     0.29886   0.91386   0.09175   0.00000  Uiso   1.00
H214   H     0.51061   0.70865   0.54932   0.00000  Uiso   1.00
H215   H     0.30625   0.88036   0.66258   0.00000  Uiso   1.00
H216   H     0.17984   0.79669   0.75189   0.00000  Uiso   1.00
H217   H     0.32085   0.97808   0.52074   0.00000  Uiso   1.00
H218   H     0.42127   0.88076   0.73774   0.00000  Uiso   1.00
H219   H     0.03465   0.68123   0.81511   0.00000  Uiso   1.00
H220   H     0.33201   0.06370   0.32773   0.00000  Uiso   1.00
H221   H     0.54376   0.85848   0.78531   0.00000  Uiso   1.00
O222   O     0.93421   0.54812   0.75088   0.00000  Uiso   1.00
O223   O     0.32434   0.04990   0.11145   0.00000  Uiso   1.00
O224   O     0.60215   0.78067   0.71178   0.00000  Uiso   1.00
N225   N     0.02666   0.57813   0.62242   0.00000  Uiso   1.00
N226   N     0.30466   0.93571   0.16675   0.00000  Uiso   1.00
N227   N     0.50263   0.74387   0.59453   0.00000  Uiso   1.00
N228   N     0.04450   0.65876   0.74940   0.00000  Uiso   1.00
N229   N     0.32249   0.01634   0.29373   0.00000  Uiso   1.00
N230   N     0.52047   0.82450   0.72151   0.00000  Uiso   1.00
C231   C     0.25456   0.53095   0.78344   0.00000  Uiso   1.00
C232   C     0.28097   0.49290   0.86197   0.00000  Uiso   1.00
C233   C     0.34808   0.49588   0.85726   0.00000  Uiso   1.00
C234   C     0.36189   0.45727   0.93662   0.00000  Uiso   1.00
C235   C     0.41072   0.40426   0.04619   0.00000  Uiso   1.00
C236   C     0.18242   0.47096   0.73638   0.00000  Uiso   1.00
C237   C     0.16667   0.45549   0.62607   0.00000  Uiso   1.00
C238   C     0.09752   0.39842   0.59972   0.00000  Uiso   1.00
C239   C     0.99333   0.31138   0.51431   0.00000  Uiso   1.00
C240   C     0.23530   0.57839   0.85428   0.00000  Uiso   1.00
C241   C     0.26400   0.65326   0.84310   0.00000  Uiso   1.00
C242   C     0.23936   0.68664   0.91600   0.00000  Uiso   1.00
C243   C     0.21728   0.76640   0.01365   0.00000  Uiso   1.00
C244   C     0.15974   0.45712   0.93276   0.00000  Uiso   1.00
C245   C     0.22946   0.45279   0.94307   0.00000  Uiso   1.00
C246   C     0.24318   0.41418   0.02247   0.00000  Uiso   1.00
C247   C     0.31030   0.41710   0.01788   0.00000  Uiso   1.00
C248   C     0.13092   0.43085   0.81748   0.00000  Uiso   1.00
C249   C     0.06177   0.37380   0.79129   0.00000  Uiso   1.00
C250   C     0.04592   0.35824   0.68097   0.00000  Uiso   1.00
C251   C     0.18380   0.53829   0.93540   0.00000  Uiso   1.00
C252   C     0.15910   0.57156   0.00832   0.00000  Uiso   1.00
C253   C     0.18776   0.64646   0.99725   0.00000  Uiso   1.00
H254   H     0.29465   0.56218   0.72028   0.00000  Uiso   1.00
H255   H     0.38792   0.52692   0.79447   0.00000  Uiso   1.00
H256   H     0.20654   0.48654   0.56333   0.00000  Uiso   1.00
H257   H     0.30386   0.68428   0.78032   0.00000  Uiso   1.00
H258   H     0.46861   0.47011   0.91246   0.00000  Uiso   1.00
H259   H     0.08614   0.38500   0.42508   0.00000  Uiso   1.00
H260   H     0.29135   0.80196   0.88265   0.00000  Uiso   1.00
H261   H     0.11964   0.42589   0.99591   0.00000  Uiso   1.00
H262   H     0.20331   0.38315   0.08523   0.00000  Uiso   1.00
H263   H     0.02192   0.34277   0.85408   0.00000  Uiso   1.00
H264   H     0.11924   0.54051   0.07107   0.00000  Uiso   1.00
H265   H     0.31877   0.35342   0.14844   0.00000  Uiso   1.00
H266   H     0.93630   0.26831   0.66106   0.00000  Uiso   1.00
H267   H     0.14152   0.68527   0.11864   0.00000  Uiso   1.00
O268   O     0.45188   0.38609   0.08421   0.00000  Uiso   1.00
O269   O     0.95010   0.27444   0.44479   0.00000  Uiso   1.00
O270   O     0.21933   0.82148   0.04512   0.00000  Uiso   1.00
N271   N     0.42187   0.44853   0.95576   0.00000  Uiso   1.00
N272   N     0.06429   0.36894   0.50008   0.00000  Uiso   1.00
N273   N     0.25613   0.75876   0.92786   0.00000  Uiso   1.00
N274   N     0.34124   0.38574   0.08274   0.00000  Uiso   1.00
N275   N     0.98366   0.30616   0.62707   0.00000  Uiso   1.00
N276   N     0.17550   0.69598   0.05484   0.00000  Uiso   1.00
