data_job_05871
_audit_creation_date              2018-12-19
_audit_creation_method            'Materials Studio'
_symmetry_space_group_name_H-M    'P1'
_symmetry_Int_Tables_number       1
_symmetry_cell_setting            triclinic
loop_
_symmetry_equiv_pos_as_xyz
  x,y,z
_cell_length_a                    22.0932
_cell_length_b                    22.0932
_cell_length_c                    13.1426
_cell_angle_alpha                 90.0000
_cell_angle_beta                  90.0000
_cell_angle_gamma                 90.0000
loop_
_atom_site_label
_atom_site_type_symbol
_atom_site_fract_x
_atom_site_fract_y
_atom_site_fract_z
_atom_site_U_iso_or_equiv
_atom_site_adp_type
_atom_site_occupancy
C1     C     0.31662   0.89311   0.88085   0.00000  Uiso   1.00
C2     C     0.37261   0.90043   0.81413   0.00000  Uiso   1.00
C3     C     0.42914   0.87552   0.83324   0.00000  Uiso   1.00
C4     C     0.47451   0.88751   0.76298   0.00000  Uiso   1.00
C5     C     0.56311   0.89347   0.67252   0.00000  Uiso   1.00
C6     C     0.29598   0.95705   0.90746   0.00000  Uiso   1.00
C7     C     0.28808   0.97974   0.00503   0.00000  Uiso   1.00
C8     C     0.26893   0.03939   0.01332   0.00000  Uiso   1.00
C9     C     0.23852   0.13325   0.06775   0.00000  Uiso   1.00
C10    C     0.26759   0.86682   0.81219   0.00000  Uiso   1.00
C11    C     0.23579   0.81365   0.82967   0.00000  Uiso   1.00
C12    C     0.19273   0.79734   0.75777   0.00000  Uiso   1.00
C13    C     0.11823   0.75110   0.66428   0.00000  Uiso   1.00
C14    C     0.29666   0.95871   0.72210   0.00000  Uiso   1.00
C15    C     0.36177   0.93606   0.72791   0.00000  Uiso   1.00
C16    C     0.40707   0.94809   0.65759   0.00000  Uiso   1.00
C17    C     0.46366   0.92320   0.67659   0.00000  Uiso   1.00
C18    C     0.28514   0.99268   0.82123   0.00000  Uiso   1.00
C19    C     0.26600   0.05231   0.82939   0.00000  Uiso   1.00
C20    C     0.25808   0.07509   0.92694   0.00000  Uiso   1.00
C21    C     0.25675   0.90245   0.72596   0.00000  Uiso   1.00
C22    C     0.21372   0.88622   0.65402   0.00000  Uiso   1.00
C23    C     0.18187   0.83304   0.67139   0.00000  Uiso   1.00
H24    H     0.32505   0.86538   0.94799   0.00000  Uiso   1.00
H25    H     0.43751   0.84795   0.89998   0.00000  Uiso   1.00
H26    H     0.29646   0.95216   0.07174   0.00000  Uiso   1.00
H27    H     0.24419   0.78609   0.89641   0.00000  Uiso   1.00
H28    H     0.55742   0.84436   0.80875   0.00000  Uiso   1.00
H29    H     0.25999   0.06407   0.17091   0.00000  Uiso   1.00
H30    H     0.14976   0.71390   0.80119   0.00000  Uiso   1.00
H31    H     0.28823   0.98645   0.65497   0.00000  Uiso   1.00
H32    H     0.39867   0.97566   0.59087   0.00000  Uiso   1.00
H33    H     0.25762   0.07987   0.76264   0.00000  Uiso   1.00
H34    H     0.20535   0.91380   0.58731   0.00000  Uiso   1.00
H35    H     0.52589   0.94801   0.55787   0.00000  Uiso   1.00
H36    H     0.22846   0.16773   0.92004   0.00000  Uiso   1.00
H37    H     0.11824   0.81755   0.55031   0.00000  Uiso   1.00
O38    O     0.61498   0.88692   0.64645   0.00000  Uiso   1.00
O39    O     0.22475   0.17518   0.12160   0.00000  Uiso   1.00
O40    O     0.08014   0.71575   0.63653   0.00000  Uiso   1.00
N41    N     0.53484   0.87022   0.75849   0.00000  Uiso   1.00
N42    N     0.25677   0.07565   0.09709   0.00000  Uiso   1.00
N43    N     0.15371   0.74827   0.75145   0.00000  Uiso   1.00
N44    N     0.51788   0.92600   0.62349   0.00000  Uiso   1.00
N45    N     0.23981   0.13143   0.96210   0.00000  Uiso   1.00
N46    N     0.13674   0.80405   0.61645   0.00000  Uiso   1.00
C47    C     0.68338   0.10689   0.88085   0.00000  Uiso   1.00
C48    C     0.62739   0.09957   0.81413   0.00000  Uiso   1.00
C49    C     0.57086   0.12448   0.83324   0.00000  Uiso   1.00
C50    C     0.52549   0.11249   0.76298   0.00000  Uiso   1.00
C51    C     0.43689   0.10653   0.67252   0.00000  Uiso   1.00
C52    C     0.70402   0.04295   0.90746   0.00000  Uiso   1.00
C53    C     0.71192   0.02026   0.00503   0.00000  Uiso   1.00
C54    C     0.73107   0.96061   0.01332   0.00000  Uiso   1.00
C55    C     0.76148   0.86675   0.06775   0.00000  Uiso   1.00
C56    C     0.73241   0.13318   0.81219   0.00000  Uiso   1.00
C57    C     0.76421   0.18635   0.82967   0.00000  Uiso   1.00
C58    C     0.80727   0.20266   0.75777   0.00000  Uiso   1.00
C59    C     0.88177   0.24890   0.66428   0.00000  Uiso   1.00
C60    C     0.70334   0.04129   0.72210   0.00000  Uiso   1.00
C61    C     0.63823   0.06394   0.72791   0.00000  Uiso   1.00
C62    C     0.59293   0.05191   0.65759   0.00000  Uiso   1.00
C63    C     0.53634   0.07680   0.67659   0.00000  Uiso   1.00
C64    C     0.71486   0.00732   0.82123   0.00000  Uiso   1.00
C65    C     0.73400   0.94769   0.82939   0.00000  Uiso   1.00
C66    C     0.74192   0.92491   0.92694   0.00000  Uiso   1.00
C67    C     0.74325   0.09755   0.72596   0.00000  Uiso   1.00
C68    C     0.78628   0.11378   0.65402   0.00000  Uiso   1.00
C69    C     0.81813   0.16696   0.67139   0.00000  Uiso   1.00
H70    H     0.67495   0.13462   0.94799   0.00000  Uiso   1.00
H71    H     0.56249   0.15205   0.89998   0.00000  Uiso   1.00
H72    H     0.70354   0.04784   0.07174   0.00000  Uiso   1.00
H73    H     0.75581   0.21391   0.89641   0.00000  Uiso   1.00
H74    H     0.44258   0.15564   0.80875   0.00000  Uiso   1.00
H75    H     0.74001   0.93593   0.17091   0.00000  Uiso   1.00
H76    H     0.85024   0.28610   0.80119   0.00000  Uiso   1.00
H77    H     0.71177   0.01355   0.65497   0.00000  Uiso   1.00
H78    H     0.60133   0.02434   0.59087   0.00000  Uiso   1.00
H79    H     0.74238   0.92013   0.76264   0.00000  Uiso   1.00
H80    H     0.79465   0.08620   0.58731   0.00000  Uiso   1.00
H81    H     0.47411   0.05199   0.55787   0.00000  Uiso   1.00
H82    H     0.77154   0.83227   0.92004   0.00000  Uiso   1.00
H83    H     0.88176   0.18245   0.55031   0.00000  Uiso   1.00
O84    O     0.38502   0.11308   0.64645   0.00000  Uiso   1.00
O85    O     0.77525   0.82482   0.12160   0.00000  Uiso   1.00
O86    O     0.91986   0.28425   0.63653   0.00000  Uiso   1.00
N87    N     0.46516   0.12978   0.75849   0.00000  Uiso   1.00
N88    N     0.74323   0.92435   0.09709   0.00000  Uiso   1.00
N89    N     0.84629   0.25173   0.75145   0.00000  Uiso   1.00
N90    N     0.48212   0.07400   0.62349   0.00000  Uiso   1.00
N91    N     0.76019   0.86857   0.96210   0.00000  Uiso   1.00
N92    N     0.86326   0.19595   0.61645   0.00000  Uiso   1.00
C93    C     0.60689   0.81662   0.38085   0.00000  Uiso   1.00
C94    C     0.59957   0.87261   0.31413   0.00000  Uiso   1.00
C95    C     0.62448   0.92914   0.33324   0.00000  Uiso   1.00
C96    C     0.61249   0.97451   0.26298   0.00000  Uiso   1.00
C97    C     0.60653   0.06311   0.17252   0.00000  Uiso   1.00
C98    C     0.54295   0.79598   0.40746   0.00000  Uiso   1.00
C99    C     0.52026   0.78808   0.50503   0.00000  Uiso   1.00
C100   C     0.46061   0.76893   0.51332   0.00000  Uiso   1.00
C101   C     0.36675   0.73852   0.56775   0.00000  Uiso   1.00
C102   C     0.63318   0.76759   0.31219   0.00000  Uiso   1.00
C103   C     0.68635   0.73579   0.32967   0.00000  Uiso   1.00
C104   C     0.70266   0.69273   0.25777   0.00000  Uiso   1.00
C105   C     0.74890   0.61823   0.16428   0.00000  Uiso   1.00
C106   C     0.54129   0.79666   0.22210   0.00000  Uiso   1.00
C107   C     0.56394   0.86177   0.22791   0.00000  Uiso   1.00
C108   C     0.55191   0.90707   0.15759   0.00000  Uiso   1.00
C109   C     0.57680   0.96366   0.17659   0.00000  Uiso   1.00
C110   C     0.50732   0.78514   0.32123   0.00000  Uiso   1.00
C111   C     0.44769   0.76600   0.32939   0.00000  Uiso   1.00
C112   C     0.42491   0.75808   0.42694   0.00000  Uiso   1.00
C113   C     0.59755   0.75675   0.22596   0.00000  Uiso   1.00
C114   C     0.61378   0.71372   0.15402   0.00000  Uiso   1.00
C115   C     0.66696   0.68187   0.17139   0.00000  Uiso   1.00
H116   H     0.63462   0.82505   0.44799   0.00000  Uiso   1.00
H117   H     0.65205   0.93751   0.39998   0.00000  Uiso   1.00
H118   H     0.54784   0.79646   0.57174   0.00000  Uiso   1.00
H119   H     0.71391   0.74419   0.39641   0.00000  Uiso   1.00
H120   H     0.65564   0.05742   0.30875   0.00000  Uiso   1.00
H121   H     0.43593   0.75999   0.67091   0.00000  Uiso   1.00
H122   H     0.78610   0.64976   0.30119   0.00000  Uiso   1.00
H123   H     0.51355   0.78823   0.15497   0.00000  Uiso   1.00
H124   H     0.52434   0.89867   0.09087   0.00000  Uiso   1.00
H125   H     0.42013   0.75762   0.26264   0.00000  Uiso   1.00
H126   H     0.58620   0.70535   0.08731   0.00000  Uiso   1.00
H127   H     0.55199   0.02589   0.05787   0.00000  Uiso   1.00
H128   H     0.33227   0.72846   0.42004   0.00000  Uiso   1.00
H129   H     0.68245   0.61824   0.05031   0.00000  Uiso   1.00
O130   O     0.61308   0.11498   0.14645   0.00000  Uiso   1.00
O131   O     0.32482   0.72475   0.62160   0.00000  Uiso   1.00
O132   O     0.78425   0.58014   0.13653   0.00000  Uiso   1.00
N133   N     0.62978   0.03484   0.25849   0.00000  Uiso   1.00
N134   N     0.42435   0.75677   0.59709   0.00000  Uiso   1.00
N135   N     0.75173   0.65371   0.25145   0.00000  Uiso   1.00
N136   N     0.57400   0.01788   0.12349   0.00000  Uiso   1.00
N137   N     0.36857   0.73981   0.46210   0.00000  Uiso   1.00
N138   N     0.69595   0.63674   0.11645   0.00000  Uiso   1.00
C139   C     0.39311   0.18338   0.38085   0.00000  Uiso   1.00
C140   C     0.40043   0.12739   0.31413   0.00000  Uiso   1.00
C141   C     0.37552   0.07086   0.33324   0.00000  Uiso   1.00
C142   C     0.38751   0.02549   0.26298   0.00000  Uiso   1.00
C143   C     0.39347   0.93689   0.17252   0.00000  Uiso   1.00
C144   C     0.45705   0.20402   0.40746   0.00000  Uiso   1.00
C145   C     0.47974   0.21192   0.50503   0.00000  Uiso   1.00
C146   C     0.53939   0.23107   0.51332   0.00000  Uiso   1.00
C147   C     0.63325   0.26148   0.56775   0.00000  Uiso   1.00
C148   C     0.36682   0.23241   0.31219   0.00000  Uiso   1.00
C149   C     0.31365   0.26421   0.32967   0.00000  Uiso   1.00
C150   C     0.29734   0.30727   0.25777   0.00000  Uiso   1.00
C151   C     0.25110   0.38177   0.16428   0.00000  Uiso   1.00
C152   C     0.45871   0.20334   0.22210   0.00000  Uiso   1.00
C153   C     0.43606   0.13823   0.22791   0.00000  Uiso   1.00
C154   C     0.44809   0.09293   0.15759   0.00000  Uiso   1.00
C155   C     0.42320   0.03634   0.17659   0.00000  Uiso   1.00
C156   C     0.49268   0.21486   0.32123   0.00000  Uiso   1.00
C157   C     0.55231   0.23400   0.32939   0.00000  Uiso   1.00
C158   C     0.57509   0.24192   0.42694   0.00000  Uiso   1.00
C159   C     0.40245   0.24325   0.22596   0.00000  Uiso   1.00
C160   C     0.38622   0.28628   0.15402   0.00000  Uiso   1.00
C161   C     0.33304   0.31813   0.17139   0.00000  Uiso   1.00
H162   H     0.36538   0.17495   0.44799   0.00000  Uiso   1.00
H163   H     0.34795   0.06249   0.39998   0.00000  Uiso   1.00
H164   H     0.45216   0.20354   0.57174   0.00000  Uiso   1.00
H165   H     0.28609   0.25581   0.39641   0.00000  Uiso   1.00
H166   H     0.34436   0.94258   0.30875   0.00000  Uiso   1.00
H167   H     0.56407   0.24001   0.67091   0.00000  Uiso   1.00
H168   H     0.21390   0.35024   0.30119   0.00000  Uiso   1.00
H169   H     0.48645   0.21177   0.15497   0.00000  Uiso   1.00
H170   H     0.47566   0.10133   0.09087   0.00000  Uiso   1.00
H171   H     0.57987   0.24238   0.26264   0.00000  Uiso   1.00
H172   H     0.41380   0.29465   0.08731   0.00000  Uiso   1.00
H173   H     0.44801   0.97411   0.05787   0.00000  Uiso   1.00
H174   H     0.66773   0.27154   0.42004   0.00000  Uiso   1.00
H175   H     0.31755   0.38176   0.05031   0.00000  Uiso   1.00
O176   O     0.38692   0.88502   0.14645   0.00000  Uiso   1.00
O177   O     0.67518   0.27525   0.62160   0.00000  Uiso   1.00
O178   O     0.21575   0.41986   0.13653   0.00000  Uiso   1.00
N179   N     0.37022   0.96516   0.25849   0.00000  Uiso   1.00
N180   N     0.57565   0.24323   0.59709   0.00000  Uiso   1.00
N181   N     0.24827   0.34629   0.25145   0.00000  Uiso   1.00
N182   N     0.42600   0.98212   0.12349   0.00000  Uiso   1.00
N183   N     0.63143   0.26019   0.46210   0.00000  Uiso   1.00
N184   N     0.30405   0.36326   0.11645   0.00000  Uiso   1.00
C185   C     0.18338   0.39311   0.61915   0.00000  Uiso   1.00
C186   C     0.12739   0.40043   0.68587   0.00000  Uiso   1.00
C187   C     0.07086   0.37552   0.66676   0.00000  Uiso   1.00
C188   C     0.02549   0.38751   0.73702   0.00000  Uiso   1.00
C189   C     0.93689   0.39347   0.82748   0.00000  Uiso   1.00
C190   C     0.20402   0.45705   0.59254   0.00000  Uiso   1.00
C191   C     0.21192   0.47974   0.49497   0.00000  Uiso   1.00
C192   C     0.23107   0.53939   0.48668   0.00000  Uiso   1.00
C193   C     0.26148   0.63325   0.43225   0.00000  Uiso   1.00
C194   C     0.23241   0.36682   0.68781   0.00000  Uiso   1.00
C195   C     0.26421   0.31365   0.67033   0.00000  Uiso   1.00
C196   C     0.30727   0.29734   0.74223   0.00000  Uiso   1.00
C197   C     0.38177   0.25110   0.83572   0.00000  Uiso   1.00
C198   C     0.20334   0.45871   0.77790   0.00000  Uiso   1.00
C199   C     0.13823   0.43606   0.77209   0.00000  Uiso   1.00
C200   C     0.09293   0.44809   0.84241   0.00000  Uiso   1.00
C201   C     0.03634   0.42320   0.82341   0.00000  Uiso   1.00
C202   C     0.21486   0.49268   0.67877   0.00000  Uiso   1.00
C203   C     0.23400   0.55231   0.67061   0.00000  Uiso   1.00
C204   C     0.24192   0.57509   0.57306   0.00000  Uiso   1.00
C205   C     0.24325   0.40245   0.77404   0.00000  Uiso   1.00
C206   C     0.28628   0.38622   0.84598   0.00000  Uiso   1.00
C207   C     0.31813   0.33304   0.82861   0.00000  Uiso   1.00
H208   H     0.17495   0.36538   0.55201   0.00000  Uiso   1.00
H209   H     0.06249   0.34795   0.60002   0.00000  Uiso   1.00
H210   H     0.20354   0.45216   0.42826   0.00000  Uiso   1.00
H211   H     0.25581   0.28609   0.60359   0.00000  Uiso   1.00
H212   H     0.94258   0.34436   0.69125   0.00000  Uiso   1.00
H213   H     0.24001   0.56407   0.32909   0.00000  Uiso   1.00
H214   H     0.35024   0.21390   0.69881   0.00000  Uiso   1.00
H215   H     0.21177   0.48645   0.84503   0.00000  Uiso   1.00
H216   H     0.10133   0.47566   0.90913   0.00000  Uiso   1.00
H217   H     0.24238   0.57987   0.73736   0.00000  Uiso   1.00
H218   H     0.29465   0.41380   0.91269   0.00000  Uiso   1.00
H219   H     0.97411   0.44801   0.94213   0.00000  Uiso   1.00
H220   H     0.27154   0.66773   0.57996   0.00000  Uiso   1.00
H221   H     0.38176   0.31755   0.94969   0.00000  Uiso   1.00
O222   O     0.88502   0.38692   0.85355   0.00000  Uiso   1.00
O223   O     0.27525   0.67518   0.37840   0.00000  Uiso   1.00
O224   O     0.41986   0.21575   0.86347   0.00000  Uiso   1.00
N225   N     0.96516   0.37022   0.74151   0.00000  Uiso   1.00
N226   N     0.24323   0.57565   0.40291   0.00000  Uiso   1.00
N227   N     0.34629   0.24827   0.74855   0.00000  Uiso   1.00
N228   N     0.98212   0.42600   0.87651   0.00000  Uiso   1.00
N229   N     0.26019   0.63143   0.53790   0.00000  Uiso   1.00
N230   N     0.36326   0.30405   0.88355   0.00000  Uiso   1.00
C231   C     0.81662   0.60689   0.61915   0.00000  Uiso   1.00
C232   C     0.87261   0.59957   0.68587   0.00000  Uiso   1.00
C233   C     0.92914   0.62448   0.66676   0.00000  Uiso   1.00
C234   C     0.97451   0.61249   0.73702   0.00000  Uiso   1.00
C235   C     0.06311   0.60653   0.82748   0.00000  Uiso   1.00
C236   C     0.79598   0.54295   0.59254   0.00000  Uiso   1.00
C237   C     0.78808   0.52026   0.49497   0.00000  Uiso   1.00
C238   C     0.76893   0.46061   0.48668   0.00000  Uiso   1.00
C239   C     0.73852   0.36675   0.43225   0.00000  Uiso   1.00
C240   C     0.76759   0.63318   0.68781   0.00000  Uiso   1.00
C241   C     0.73579   0.68635   0.67033   0.00000  Uiso   1.00
C242   C     0.69273   0.70266   0.74223   0.00000  Uiso   1.00
C243   C     0.61823   0.74890   0.83572   0.00000  Uiso   1.00
C244   C     0.79666   0.54129   0.77790   0.00000  Uiso   1.00
C245   C     0.86177   0.56394   0.77209   0.00000  Uiso   1.00
C246   C     0.90707   0.55191   0.84241   0.00000  Uiso   1.00
C247   C     0.96366   0.57680   0.82341   0.00000  Uiso   1.00
C248   C     0.78514   0.50732   0.67877   0.00000  Uiso   1.00
C249   C     0.76600   0.44769   0.67061   0.00000  Uiso   1.00
C250   C     0.75808   0.42491   0.57306   0.00000  Uiso   1.00
C251   C     0.75675   0.59755   0.77404   0.00000  Uiso   1.00
C252   C     0.71372   0.61378   0.84598   0.00000  Uiso   1.00
C253   C     0.68187   0.66696   0.82861   0.00000  Uiso   1.00
H254   H     0.82505   0.63462   0.55201   0.00000  Uiso   1.00
H255   H     0.93751   0.65205   0.60002   0.00000  Uiso   1.00
H256   H     0.79646   0.54784   0.42826   0.00000  Uiso   1.00
H257   H     0.74419   0.71391   0.60359   0.00000  Uiso   1.00
H258   H     0.05742   0.65564   0.69125   0.00000  Uiso   1.00
H259   H     0.75999   0.43593   0.32909   0.00000  Uiso   1.00
H260   H     0.64976   0.78610   0.69881   0.00000  Uiso   1.00
H261   H     0.78823   0.51355   0.84503   0.00000  Uiso   1.00
H262   H     0.89867   0.52434   0.90913   0.00000  Uiso   1.00
H263   H     0.75762   0.42013   0.73736   0.00000  Uiso   1.00
H264   H     0.70535   0.58620   0.91269   0.00000  Uiso   1.00
H265   H     0.02589   0.55199   0.94213   0.00000  Uiso   1.00
H266   H     0.72846   0.33227   0.57996   0.00000  Uiso   1.00
H267   H     0.61824   0.68245   0.94969   0.00000  Uiso   1.00
O268   O     0.11498   0.61308   0.85355   0.00000  Uiso   1.00
O269   O     0.72475   0.32482   0.37840   0.00000  Uiso   1.00
O270   O     0.58014   0.78425   0.86347   0.00000  Uiso   1.00
N271   N     0.03484   0.62978   0.74151   0.00000  Uiso   1.00
N272   N     0.75677   0.42435   0.40291   0.00000  Uiso   1.00
N273   N     0.65371   0.75173   0.74855   0.00000  Uiso   1.00
N274   N     0.01788   0.57400   0.87651   0.00000  Uiso   1.00
N275   N     0.73981   0.36857   0.53790   0.00000  Uiso   1.00
N276   N     0.63674   0.69595   0.88355   0.00000  Uiso   1.00
C277   C     0.89311   0.31662   0.11915   0.00000  Uiso   1.00
C278   C     0.90043   0.37261   0.18587   0.00000  Uiso   1.00
C279   C     0.87552   0.42914   0.16676   0.00000  Uiso   1.00
C280   C     0.88751   0.47451   0.23702   0.00000  Uiso   1.00
C281   C     0.89347   0.56311   0.32748   0.00000  Uiso   1.00
C282   C     0.95705   0.29598   0.09254   0.00000  Uiso   1.00
C283   C     0.97974   0.28808   0.99497   0.00000  Uiso   1.00
C284   C     0.03939   0.26893   0.98668   0.00000  Uiso   1.00
C285   C     0.13325   0.23852   0.93225   0.00000  Uiso   1.00
C286   C     0.86682   0.26759   0.18781   0.00000  Uiso   1.00
C287   C     0.81365   0.23579   0.17033   0.00000  Uiso   1.00
C288   C     0.79734   0.19273   0.24223   0.00000  Uiso   1.00
C289   C     0.75110   0.11823   0.33572   0.00000  Uiso   1.00
C290   C     0.95871   0.29666   0.27790   0.00000  Uiso   1.00
C291   C     0.93606   0.36177   0.27209   0.00000  Uiso   1.00
C292   C     0.94809   0.40707   0.34241   0.00000  Uiso   1.00
C293   C     0.92320   0.46366   0.32341   0.00000  Uiso   1.00
C294   C     0.99268   0.28514   0.17877   0.00000  Uiso   1.00
C295   C     0.05231   0.26600   0.17061   0.00000  Uiso   1.00
C296   C     0.07509   0.25808   0.07306   0.00000  Uiso   1.00
C297   C     0.90245   0.25675   0.27404   0.00000  Uiso   1.00
C298   C     0.88622   0.21372   0.34598   0.00000  Uiso   1.00
C299   C     0.83304   0.18187   0.32861   0.00000  Uiso   1.00
H300   H     0.86538   0.32505   0.05201   0.00000  Uiso   1.00
H301   H     0.84795   0.43751   0.10002   0.00000  Uiso   1.00
H302   H     0.95216   0.29646   0.92826   0.00000  Uiso   1.00
H303   H     0.78609   0.24419   0.10359   0.00000  Uiso   1.00
H304   H     0.84436   0.55742   0.19125   0.00000  Uiso   1.00
H305   H     0.06407   0.25999   0.82909   0.00000  Uiso   1.00
H306   H     0.71390   0.14976   0.19881   0.00000  Uiso   1.00
H307   H     0.98645   0.28823   0.34503   0.00000  Uiso   1.00
H308   H     0.97566   0.39867   0.40913   0.00000  Uiso   1.00
H309   H     0.07987   0.25762   0.23736   0.00000  Uiso   1.00
H310   H     0.91380   0.20535   0.41269   0.00000  Uiso   1.00
H311   H     0.94801   0.52589   0.44213   0.00000  Uiso   1.00
H312   H     0.16773   0.22846   0.07996   0.00000  Uiso   1.00
H313   H     0.81755   0.11824   0.44969   0.00000  Uiso   1.00
O314   O     0.88692   0.61498   0.35355   0.00000  Uiso   1.00
O315   O     0.17518   0.22475   0.87840   0.00000  Uiso   1.00
O316   O     0.71575   0.08014   0.36347   0.00000  Uiso   1.00
N317   N     0.87022   0.53484   0.24151   0.00000  Uiso   1.00
N318   N     0.07565   0.25677   0.90291   0.00000  Uiso   1.00
N319   N     0.74827   0.15371   0.24855   0.00000  Uiso   1.00
N320   N     0.92600   0.51788   0.37651   0.00000  Uiso   1.00
N321   N     0.13143   0.23981   0.03790   0.00000  Uiso   1.00
N322   N     0.80405   0.13674   0.38355   0.00000  Uiso   1.00
C323   C     0.10689   0.68338   0.11915   0.00000  Uiso   1.00
C324   C     0.09957   0.62739   0.18587   0.00000  Uiso   1.00
C325   C     0.12448   0.57086   0.16676   0.00000  Uiso   1.00
C326   C     0.11249   0.52549   0.23702   0.00000  Uiso   1.00
C327   C     0.10653   0.43689   0.32748   0.00000  Uiso   1.00
C328   C     0.04295   0.70402   0.09254   0.00000  Uiso   1.00
C329   C     0.02026   0.71192   0.99497   0.00000  Uiso   1.00
C330   C     0.96061   0.73107   0.98668   0.00000  Uiso   1.00
C331   C     0.86675   0.76148   0.93225   0.00000  Uiso   1.00
C332   C     0.13318   0.73241   0.18781   0.00000  Uiso   1.00
C333   C     0.18635   0.76421   0.17033   0.00000  Uiso   1.00
C334   C     0.20266   0.80727   0.24223   0.00000  Uiso   1.00
C335   C     0.24890   0.88177   0.33572   0.00000  Uiso   1.00
C336   C     0.04129   0.70334   0.27790   0.00000  Uiso   1.00
C337   C     0.06394   0.63823   0.27209   0.00000  Uiso   1.00
C338   C     0.05191   0.59293   0.34241   0.00000  Uiso   1.00
C339   C     0.07680   0.53634   0.32341   0.00000  Uiso   1.00
C340   C     0.00732   0.71486   0.17877   0.00000  Uiso   1.00
C341   C     0.94769   0.73400   0.17061   0.00000  Uiso   1.00
C342   C     0.92491   0.74192   0.07306   0.00000  Uiso   1.00
C343   C     0.09755   0.74325   0.27404   0.00000  Uiso   1.00
C344   C     0.11378   0.78628   0.34598   0.00000  Uiso   1.00
C345   C     0.16696   0.81813   0.32861   0.00000  Uiso   1.00
H346   H     0.13462   0.67495   0.05201   0.00000  Uiso   1.00
H347   H     0.15205   0.56249   0.10002   0.00000  Uiso   1.00
H348   H     0.04784   0.70354   0.92826   0.00000  Uiso   1.00
H349   H     0.21391   0.75581   0.10359   0.00000  Uiso   1.00
H350   H     0.15564   0.44258   0.19125   0.00000  Uiso   1.00
H351   H     0.93593   0.74001   0.82909   0.00000  Uiso   1.00
H352   H     0.28610   0.85024   0.19881   0.00000  Uiso   1.00
H353   H     0.01355   0.71177   0.34503   0.00000  Uiso   1.00
H354   H     0.02434   0.60133   0.40913   0.00000  Uiso   1.00
H355   H     0.92013   0.74238   0.23736   0.00000  Uiso   1.00
H356   H     0.08620   0.79465   0.41269   0.00000  Uiso   1.00
H357   H     0.05199   0.47411   0.44213   0.00000  Uiso   1.00
H358   H     0.83227   0.77154   0.07996   0.00000  Uiso   1.00
H359   H     0.18245   0.88176   0.44969   0.00000  Uiso   1.00
O360   O     0.11308   0.38502   0.35355   0.00000  Uiso   1.00
O361   O     0.82482   0.77525   0.87840   0.00000  Uiso   1.00
O362   O     0.28425   0.91986   0.36347   0.00000  Uiso   1.00
N363   N     0.12978   0.46516   0.24151   0.00000  Uiso   1.00
N364   N     0.92435   0.74323   0.90291   0.00000  Uiso   1.00
N365   N     0.25173   0.84629   0.24855   0.00000  Uiso   1.00
N366   N     0.07400   0.48212   0.37651   0.00000  Uiso   1.00
N367   N     0.86857   0.76019   0.03790   0.00000  Uiso   1.00
N368   N     0.19595   0.86326   0.38355   0.00000  Uiso   1.00
