data_job_03356
_audit_creation_date              2018-12-19
_audit_creation_method            'Materials Studio'
_symmetry_space_group_name_H-M    'P1'
_symmetry_Int_Tables_number       1
_symmetry_cell_setting            triclinic
loop_
_symmetry_equiv_pos_as_xyz
  x,y,z
_cell_length_a                    21.7282
_cell_length_b                    17.5524
_cell_length_c                    13.3712
_cell_angle_alpha                 90.0000
_cell_angle_beta                  90.0000
_cell_angle_gamma                 90.0000
loop_
_atom_site_label
_atom_site_type_symbol
_atom_site_fract_x
_atom_site_fract_y
_atom_site_fract_z
_atom_site_U_iso_or_equiv
_atom_site_adp_type
_atom_site_occupancy
C1     C     0.54030   0.33303   0.19877   0.00000  Uiso   1.00
C2     C     0.49594   0.35707   0.28132   0.00000  Uiso   1.00
C3     C     0.43238   0.36137   0.27272   0.00000  Uiso   1.00
C4     C     0.39996   0.38460   0.35683   0.00000  Uiso   1.00
C5     C     0.32650   0.41918   0.47138   0.00000  Uiso   1.00
C6     C     0.58576   0.39860   0.18687   0.00000  Uiso   1.00
C7     C     0.59774   0.43779   0.09885   0.00000  Uiso   1.00
C8     C     0.64093   0.49598   0.10346   0.00000  Uiso   1.00
C9     C     0.70696   0.59499   0.07136   0.00000  Uiso   1.00
C10    C     0.57719   0.26649   0.24097   0.00000  Uiso   1.00
C11    C     0.58196   0.19461   0.19843   0.00000  Uiso   1.00
C12    C     0.61795   0.14157   0.24858   0.00000  Uiso   1.00
C13    C     0.67067   0.03546   0.30048   0.00000  Uiso   1.00
C14    C     0.59573   0.36666   0.36345   0.00000  Uiso   1.00
C15    C     0.52605   0.37534   0.37076   0.00000  Uiso   1.00
C16    C     0.49371   0.39857   0.45491   0.00000  Uiso   1.00
C17    C     0.43012   0.40289   0.44644   0.00000  Uiso   1.00
C18    C     0.61587   0.41686   0.27631   0.00000  Uiso   1.00
C19    C     0.65906   0.47500   0.28105   0.00000  Uiso   1.00
C20    C     0.67110   0.51428   0.19307   0.00000  Uiso   1.00
C21    C     0.60729   0.28475   0.33042   0.00000  Uiso   1.00
C22    C     0.64329   0.23181   0.38063   0.00000  Uiso   1.00
C23    C     0.64812   0.15987   0.33818   0.00000  Uiso   1.00
H24    H     0.51686   0.31882   0.12913   0.00000  Uiso   1.00
H25    H     0.40910   0.34723   0.20348   0.00000  Uiso   1.00
H26    H     0.57443   0.42364   0.02964   0.00000  Uiso   1.00
H27    H     0.55866   0.18050   0.12921   0.00000  Uiso   1.00
H28    H     0.30290   0.38682   0.32534   0.00000  Uiso   1.00
H29    H     0.65153   0.54791   0.95879   0.00000  Uiso   1.00
H30    H     0.61828   0.03519   0.16875   0.00000  Uiso   1.00
H31    H     0.61917   0.38088   0.43309   0.00000  Uiso   1.00
H32    H     0.51702   0.41270   0.52412   0.00000  Uiso   1.00
H33    H     0.68236   0.48911   0.35028   0.00000  Uiso   1.00
H34    H     0.66658   0.24596   0.44985   0.00000  Uiso   1.00
H35    H     0.39050   0.43996   0.58558   0.00000  Uiso   1.00
H36    H     0.73913   0.60105   0.21903   0.00000  Uiso   1.00
H37    H     0.70587   0.08833   0.42899   0.00000  Uiso   1.00
O38    O     0.27766   0.43322   0.50985   0.00000  Uiso   1.00
O39    O     0.73506   0.64456   0.02895   0.00000  Uiso   1.00
O40    O     0.69142   0.97188   0.30441   0.00000  Uiso   1.00
N41    N     0.33754   0.39494   0.37410   0.00000  Uiso   1.00
N42    N     0.66348   0.54557   0.03140   0.00000  Uiso   1.00
N43    N     0.63240   0.06622   0.22768   0.00000  Uiso   1.00
N44    N     0.38467   0.42353   0.51414   0.00000  Uiso   1.00
N45    N     0.71061   0.57416   0.17144   0.00000  Uiso   1.00
N46    N     0.67953   0.09481   0.36772   0.00000  Uiso   1.00
C47    C     0.95970   0.66697   0.69877   0.00000  Uiso   1.00
C48    C     0.00406   0.64293   0.78132   0.00000  Uiso   1.00
C49    C     0.06762   0.63863   0.77272   0.00000  Uiso   1.00
C50    C     0.10004   0.61540   0.85683   0.00000  Uiso   1.00
C51    C     0.17350   0.58082   0.97138   0.00000  Uiso   1.00
C52    C     0.91424   0.60140   0.68687   0.00000  Uiso   1.00
C53    C     0.90226   0.56221   0.59885   0.00000  Uiso   1.00
C54    C     0.85907   0.50402   0.60346   0.00000  Uiso   1.00
C55    C     0.79304   0.40501   0.57136   0.00000  Uiso   1.00
C56    C     0.92281   0.73351   0.74097   0.00000  Uiso   1.00
C57    C     0.91804   0.80539   0.69843   0.00000  Uiso   1.00
C58    C     0.88205   0.85843   0.74858   0.00000  Uiso   1.00
C59    C     0.82933   0.96454   0.80048   0.00000  Uiso   1.00
C60    C     0.90427   0.63334   0.86345   0.00000  Uiso   1.00
C61    C     0.97395   0.62466   0.87076   0.00000  Uiso   1.00
C62    C     0.00629   0.60143   0.95491   0.00000  Uiso   1.00
C63    C     0.06988   0.59711   0.94644   0.00000  Uiso   1.00
C64    C     0.88413   0.58314   0.77631   0.00000  Uiso   1.00
C65    C     0.84094   0.52500   0.78105   0.00000  Uiso   1.00
C66    C     0.82890   0.48572   0.69307   0.00000  Uiso   1.00
C67    C     0.89271   0.71525   0.83042   0.00000  Uiso   1.00
C68    C     0.85671   0.76819   0.88063   0.00000  Uiso   1.00
C69    C     0.85188   0.84013   0.83818   0.00000  Uiso   1.00
H70    H     0.98314   0.68118   0.62913   0.00000  Uiso   1.00
H71    H     0.09090   0.65277   0.70348   0.00000  Uiso   1.00
H72    H     0.92557   0.57636   0.52964   0.00000  Uiso   1.00
H73    H     0.94134   0.81950   0.62921   0.00000  Uiso   1.00
H74    H     0.19710   0.61318   0.82534   0.00000  Uiso   1.00
H75    H     0.84847   0.45209   0.45879   0.00000  Uiso   1.00
H76    H     0.88172   0.96481   0.66875   0.00000  Uiso   1.00
H77    H     0.88083   0.61912   0.93309   0.00000  Uiso   1.00
H78    H     0.98298   0.58730   0.02412   0.00000  Uiso   1.00
H79    H     0.81764   0.51089   0.85028   0.00000  Uiso   1.00
H80    H     0.83342   0.75404   0.94985   0.00000  Uiso   1.00
H81    H     0.10950   0.56004   0.08558   0.00000  Uiso   1.00
H82    H     0.76087   0.39895   0.71903   0.00000  Uiso   1.00
H83    H     0.79413   0.91167   0.92899   0.00000  Uiso   1.00
O84    O     0.22234   0.56678   0.00985   0.00000  Uiso   1.00
O85    O     0.76494   0.35544   0.52895   0.00000  Uiso   1.00
O86    O     0.80858   0.02812   0.80441   0.00000  Uiso   1.00
N87    N     0.16246   0.60506   0.87410   0.00000  Uiso   1.00
N88    N     0.83652   0.45443   0.53140   0.00000  Uiso   1.00
N89    N     0.86760   0.93378   0.72768   0.00000  Uiso   1.00
N90    N     0.11533   0.57647   0.01414   0.00000  Uiso   1.00
N91    N     0.78939   0.42584   0.67144   0.00000  Uiso   1.00
N92    N     0.82047   0.90519   0.86772   0.00000  Uiso   1.00
C93    C     0.45970   0.83303   0.30123   0.00000  Uiso   1.00
C94    C     0.50406   0.85707   0.21868   0.00000  Uiso   1.00
C95    C     0.56762   0.86137   0.22728   0.00000  Uiso   1.00
C96    C     0.60004   0.88460   0.14317   0.00000  Uiso   1.00
C97    C     0.67350   0.91918   0.02862   0.00000  Uiso   1.00
C98    C     0.41424   0.89860   0.31313   0.00000  Uiso   1.00
C99    C     0.40226   0.93779   0.40115   0.00000  Uiso   1.00
C100   C     0.35907   0.99598   0.39654   0.00000  Uiso   1.00
C101   C     0.29304   0.09499   0.42864   0.00000  Uiso   1.00
C102   C     0.42281   0.76649   0.25903   0.00000  Uiso   1.00
C103   C     0.41804   0.69461   0.30157   0.00000  Uiso   1.00
C104   C     0.38205   0.64157   0.25142   0.00000  Uiso   1.00
C105   C     0.32933   0.53546   0.19952   0.00000  Uiso   1.00
C106   C     0.40427   0.86666   0.13655   0.00000  Uiso   1.00
C107   C     0.47395   0.87534   0.12924   0.00000  Uiso   1.00
C108   C     0.50629   0.89857   0.04509   0.00000  Uiso   1.00
C109   C     0.56988   0.90289   0.05356   0.00000  Uiso   1.00
C110   C     0.38413   0.91686   0.22369   0.00000  Uiso   1.00
C111   C     0.34094   0.97500   0.21895   0.00000  Uiso   1.00
C112   C     0.32890   0.01428   0.30693   0.00000  Uiso   1.00
C113   C     0.39271   0.78475   0.16958   0.00000  Uiso   1.00
C114   C     0.35671   0.73181   0.11937   0.00000  Uiso   1.00
C115   C     0.35188   0.65987   0.16182   0.00000  Uiso   1.00
H116   H     0.48314   0.81882   0.37087   0.00000  Uiso   1.00
H117   H     0.59090   0.84723   0.29652   0.00000  Uiso   1.00
H118   H     0.42557   0.92364   0.47036   0.00000  Uiso   1.00
H119   H     0.44134   0.68050   0.37079   0.00000  Uiso   1.00
H120   H     0.69710   0.88682   0.17466   0.00000  Uiso   1.00
H121   H     0.34847   0.04791   0.54121   0.00000  Uiso   1.00
H122   H     0.38172   0.53519   0.33125   0.00000  Uiso   1.00
H123   H     0.38083   0.88088   0.06691   0.00000  Uiso   1.00
H124   H     0.48298   0.91270   0.97588   0.00000  Uiso   1.00
H125   H     0.31764   0.98911   0.14972   0.00000  Uiso   1.00
H126   H     0.33342   0.74596   0.05015   0.00000  Uiso   1.00
H127   H     0.60950   0.93996   0.91442   0.00000  Uiso   1.00
H128   H     0.26087   0.10105   0.28097   0.00000  Uiso   1.00
H129   H     0.29413   0.58833   0.07101   0.00000  Uiso   1.00
O130   O     0.72234   0.93322   0.99015   0.00000  Uiso   1.00
O131   O     0.26494   0.14456   0.47105   0.00000  Uiso   1.00
O132   O     0.30858   0.47188   0.19559   0.00000  Uiso   1.00
N133   N     0.66246   0.89494   0.12590   0.00000  Uiso   1.00
N134   N     0.33652   0.04557   0.46860   0.00000  Uiso   1.00
N135   N     0.36760   0.56622   0.27232   0.00000  Uiso   1.00
N136   N     0.61533   0.92353   0.98586   0.00000  Uiso   1.00
N137   N     0.28939   0.07416   0.32856   0.00000  Uiso   1.00
N138   N     0.32047   0.59481   0.13228   0.00000  Uiso   1.00
C139   C     0.04030   0.16697   0.80123   0.00000  Uiso   1.00
C140   C     0.99594   0.14293   0.71868   0.00000  Uiso   1.00
C141   C     0.93238   0.13863   0.72728   0.00000  Uiso   1.00
C142   C     0.89996   0.11540   0.64317   0.00000  Uiso   1.00
C143   C     0.82650   0.08082   0.52862   0.00000  Uiso   1.00
C144   C     0.08576   0.10140   0.81313   0.00000  Uiso   1.00
C145   C     0.09774   0.06221   0.90115   0.00000  Uiso   1.00
C146   C     0.14093   0.00402   0.89654   0.00000  Uiso   1.00
C147   C     0.20696   0.90501   0.92864   0.00000  Uiso   1.00
C148   C     0.07719   0.23351   0.75903   0.00000  Uiso   1.00
C149   C     0.08196   0.30539   0.80157   0.00000  Uiso   1.00
C150   C     0.11795   0.35843   0.75142   0.00000  Uiso   1.00
C151   C     0.17067   0.46454   0.69952   0.00000  Uiso   1.00
C152   C     0.09573   0.13334   0.63655   0.00000  Uiso   1.00
C153   C     0.02605   0.12466   0.62924   0.00000  Uiso   1.00
C154   C     0.99371   0.10143   0.54509   0.00000  Uiso   1.00
C155   C     0.93012   0.09711   0.55356   0.00000  Uiso   1.00
C156   C     0.11587   0.08314   0.72369   0.00000  Uiso   1.00
C157   C     0.15906   0.02500   0.71895   0.00000  Uiso   1.00
C158   C     0.17110   0.98572   0.80693   0.00000  Uiso   1.00
C159   C     0.10729   0.21525   0.66958   0.00000  Uiso   1.00
C160   C     0.14329   0.26819   0.61937   0.00000  Uiso   1.00
C161   C     0.14812   0.34013   0.66182   0.00000  Uiso   1.00
H162   H     0.01686   0.18118   0.87087   0.00000  Uiso   1.00
H163   H     0.90910   0.15277   0.79652   0.00000  Uiso   1.00
H164   H     0.07443   0.07636   0.97036   0.00000  Uiso   1.00
H165   H     0.05866   0.31950   0.87079   0.00000  Uiso   1.00
H166   H     0.80290   0.11318   0.67466   0.00000  Uiso   1.00
H167   H     0.15153   0.95209   0.04121   0.00000  Uiso   1.00
H168   H     0.11828   0.46481   0.83125   0.00000  Uiso   1.00
H169   H     0.11917   0.11912   0.56691   0.00000  Uiso   1.00
H170   H     0.01702   0.08730   0.47588   0.00000  Uiso   1.00
H171   H     0.18236   0.01089   0.64972   0.00000  Uiso   1.00
H172   H     0.16658   0.25404   0.55015   0.00000  Uiso   1.00
H173   H     0.89050   0.06004   0.41442   0.00000  Uiso   1.00
H174   H     0.23913   0.89895   0.78097   0.00000  Uiso   1.00
H175   H     0.20587   0.41167   0.57101   0.00000  Uiso   1.00
O176   O     0.77766   0.06678   0.49015   0.00000  Uiso   1.00
O177   O     0.23506   0.85544   0.97105   0.00000  Uiso   1.00
O178   O     0.19142   0.52812   0.69559   0.00000  Uiso   1.00
N179   N     0.83754   0.10506   0.62590   0.00000  Uiso   1.00
N180   N     0.16348   0.95443   0.96860   0.00000  Uiso   1.00
N181   N     0.13240   0.43378   0.77232   0.00000  Uiso   1.00
N182   N     0.88467   0.07647   0.48586   0.00000  Uiso   1.00
N183   N     0.21061   0.92584   0.82856   0.00000  Uiso   1.00
N184   N     0.17953   0.40519   0.63228   0.00000  Uiso   1.00
C185   C     0.45970   0.66697   0.80123   0.00000  Uiso   1.00
C186   C     0.50406   0.64293   0.71868   0.00000  Uiso   1.00
C187   C     0.56762   0.63863   0.72728   0.00000  Uiso   1.00
C188   C     0.60004   0.61540   0.64317   0.00000  Uiso   1.00
C189   C     0.67350   0.58082   0.52862   0.00000  Uiso   1.00
C190   C     0.41424   0.60140   0.81313   0.00000  Uiso   1.00
C191   C     0.40226   0.56221   0.90115   0.00000  Uiso   1.00
C192   C     0.35907   0.50402   0.89654   0.00000  Uiso   1.00
C193   C     0.29304   0.40501   0.92864   0.00000  Uiso   1.00
C194   C     0.42281   0.73351   0.75903   0.00000  Uiso   1.00
C195   C     0.41804   0.80539   0.80157   0.00000  Uiso   1.00
C196   C     0.38205   0.85843   0.75142   0.00000  Uiso   1.00
C197   C     0.32933   0.96454   0.69952   0.00000  Uiso   1.00
C198   C     0.40427   0.63334   0.63655   0.00000  Uiso   1.00
C199   C     0.47395   0.62466   0.62924   0.00000  Uiso   1.00
C200   C     0.50629   0.60143   0.54509   0.00000  Uiso   1.00
C201   C     0.56988   0.59711   0.55356   0.00000  Uiso   1.00
C202   C     0.38413   0.58314   0.72369   0.00000  Uiso   1.00
C203   C     0.34094   0.52500   0.71895   0.00000  Uiso   1.00
C204   C     0.32890   0.48572   0.80693   0.00000  Uiso   1.00
C205   C     0.39271   0.71525   0.66958   0.00000  Uiso   1.00
C206   C     0.35671   0.76819   0.61937   0.00000  Uiso   1.00
C207   C     0.35188   0.84013   0.66182   0.00000  Uiso   1.00
H208   H     0.48314   0.68118   0.87087   0.00000  Uiso   1.00
H209   H     0.59090   0.65277   0.79652   0.00000  Uiso   1.00
H210   H     0.42557   0.57636   0.97036   0.00000  Uiso   1.00
H211   H     0.44134   0.81950   0.87079   0.00000  Uiso   1.00
H212   H     0.69710   0.61318   0.67466   0.00000  Uiso   1.00
H213   H     0.34847   0.45209   0.04121   0.00000  Uiso   1.00
H214   H     0.38172   0.96481   0.83125   0.00000  Uiso   1.00
H215   H     0.38083   0.61912   0.56691   0.00000  Uiso   1.00
H216   H     0.48298   0.58730   0.47588   0.00000  Uiso   1.00
H217   H     0.31764   0.51089   0.64972   0.00000  Uiso   1.00
H218   H     0.33342   0.75404   0.55015   0.00000  Uiso   1.00
H219   H     0.60950   0.56004   0.41442   0.00000  Uiso   1.00
H220   H     0.26087   0.39895   0.78097   0.00000  Uiso   1.00
H221   H     0.29413   0.91167   0.57101   0.00000  Uiso   1.00
O222   O     0.72234   0.56678   0.49015   0.00000  Uiso   1.00
O223   O     0.26494   0.35544   0.97105   0.00000  Uiso   1.00
O224   O     0.30858   0.02812   0.69559   0.00000  Uiso   1.00
N225   N     0.66246   0.60506   0.62590   0.00000  Uiso   1.00
N226   N     0.33652   0.45443   0.96860   0.00000  Uiso   1.00
N227   N     0.36760   0.93378   0.77232   0.00000  Uiso   1.00
N228   N     0.61533   0.57647   0.48586   0.00000  Uiso   1.00
N229   N     0.28939   0.42584   0.82856   0.00000  Uiso   1.00
N230   N     0.32047   0.90519   0.63228   0.00000  Uiso   1.00
C231   C     0.04030   0.33303   0.30123   0.00000  Uiso   1.00
C232   C     0.99594   0.35707   0.21868   0.00000  Uiso   1.00
C233   C     0.93238   0.36137   0.22728   0.00000  Uiso   1.00
C234   C     0.89996   0.38460   0.14317   0.00000  Uiso   1.00
C235   C     0.82650   0.41918   0.02862   0.00000  Uiso   1.00
C236   C     0.08576   0.39860   0.31313   0.00000  Uiso   1.00
C237   C     0.09774   0.43779   0.40115   0.00000  Uiso   1.00
C238   C     0.14093   0.49598   0.39654   0.00000  Uiso   1.00
C239   C     0.20696   0.59499   0.42864   0.00000  Uiso   1.00
C240   C     0.07719   0.26649   0.25903   0.00000  Uiso   1.00
C241   C     0.08196   0.19461   0.30157   0.00000  Uiso   1.00
C242   C     0.11795   0.14157   0.25142   0.00000  Uiso   1.00
C243   C     0.17067   0.03546   0.19952   0.00000  Uiso   1.00
C244   C     0.09573   0.36666   0.13655   0.00000  Uiso   1.00
C245   C     0.02605   0.37534   0.12924   0.00000  Uiso   1.00
C246   C     0.99371   0.39857   0.04509   0.00000  Uiso   1.00
C247   C     0.93012   0.40289   0.05356   0.00000  Uiso   1.00
C248   C     0.11587   0.41686   0.22369   0.00000  Uiso   1.00
C249   C     0.15906   0.47500   0.21895   0.00000  Uiso   1.00
C250   C     0.17110   0.51428   0.30693   0.00000  Uiso   1.00
C251   C     0.10729   0.28475   0.16958   0.00000  Uiso   1.00
C252   C     0.14329   0.23181   0.11937   0.00000  Uiso   1.00
C253   C     0.14812   0.15987   0.16182   0.00000  Uiso   1.00
H254   H     0.01686   0.31882   0.37087   0.00000  Uiso   1.00
H255   H     0.90910   0.34723   0.29652   0.00000  Uiso   1.00
H256   H     0.07443   0.42364   0.47036   0.00000  Uiso   1.00
H257   H     0.05866   0.18050   0.37079   0.00000  Uiso   1.00
H258   H     0.80290   0.38682   0.17466   0.00000  Uiso   1.00
H259   H     0.15153   0.54791   0.54121   0.00000  Uiso   1.00
H260   H     0.11828   0.03519   0.33125   0.00000  Uiso   1.00
H261   H     0.11917   0.38088   0.06691   0.00000  Uiso   1.00
H262   H     0.01702   0.41270   0.97588   0.00000  Uiso   1.00
H263   H     0.18236   0.48911   0.14972   0.00000  Uiso   1.00
H264   H     0.16658   0.24596   0.05015   0.00000  Uiso   1.00
H265   H     0.89050   0.43996   0.91442   0.00000  Uiso   1.00
H266   H     0.23913   0.60105   0.28097   0.00000  Uiso   1.00
H267   H     0.20587   0.08833   0.07101   0.00000  Uiso   1.00
O268   O     0.77766   0.43322   0.99015   0.00000  Uiso   1.00
O269   O     0.23506   0.64456   0.47105   0.00000  Uiso   1.00
O270   O     0.19142   0.97188   0.19559   0.00000  Uiso   1.00
N271   N     0.83754   0.39494   0.12590   0.00000  Uiso   1.00
N272   N     0.16348   0.54557   0.46860   0.00000  Uiso   1.00
N273   N     0.13240   0.06622   0.27232   0.00000  Uiso   1.00
N274   N     0.88467   0.42353   0.98586   0.00000  Uiso   1.00
N275   N     0.21061   0.57416   0.32856   0.00000  Uiso   1.00
N276   N     0.17953   0.09481   0.13228   0.00000  Uiso   1.00
C277   C     0.54030   0.16697   0.69877   0.00000  Uiso   1.00
C278   C     0.49594   0.14293   0.78132   0.00000  Uiso   1.00
C279   C     0.43238   0.13863   0.77272   0.00000  Uiso   1.00
C280   C     0.39996   0.11540   0.85683   0.00000  Uiso   1.00
C281   C     0.32650   0.08082   0.97138   0.00000  Uiso   1.00
C282   C     0.58576   0.10140   0.68687   0.00000  Uiso   1.00
C283   C     0.59774   0.06221   0.59885   0.00000  Uiso   1.00
C284   C     0.64093   0.00402   0.60346   0.00000  Uiso   1.00
C285   C     0.70696   0.90501   0.57136   0.00000  Uiso   1.00
C286   C     0.57719   0.23351   0.74097   0.00000  Uiso   1.00
C287   C     0.58196   0.30539   0.69843   0.00000  Uiso   1.00
C288   C     0.61795   0.35843   0.74858   0.00000  Uiso   1.00
C289   C     0.67067   0.46454   0.80048   0.00000  Uiso   1.00
C290   C     0.59573   0.13334   0.86345   0.00000  Uiso   1.00
C291   C     0.52605   0.12466   0.87076   0.00000  Uiso   1.00
C292   C     0.49371   0.10143   0.95491   0.00000  Uiso   1.00
C293   C     0.43012   0.09711   0.94644   0.00000  Uiso   1.00
C294   C     0.61587   0.08314   0.77631   0.00000  Uiso   1.00
C295   C     0.65906   0.02500   0.78105   0.00000  Uiso   1.00
C296   C     0.67110   0.98572   0.69307   0.00000  Uiso   1.00
C297   C     0.60729   0.21525   0.83042   0.00000  Uiso   1.00
C298   C     0.64329   0.26819   0.88063   0.00000  Uiso   1.00
C299   C     0.64812   0.34013   0.83818   0.00000  Uiso   1.00
H300   H     0.51686   0.18118   0.62913   0.00000  Uiso   1.00
H301   H     0.40910   0.15277   0.70348   0.00000  Uiso   1.00
H302   H     0.57443   0.07636   0.52964   0.00000  Uiso   1.00
H303   H     0.55866   0.31950   0.62921   0.00000  Uiso   1.00
H304   H     0.30290   0.11318   0.82534   0.00000  Uiso   1.00
H305   H     0.65153   0.95209   0.45879   0.00000  Uiso   1.00
H306   H     0.61828   0.46481   0.66875   0.00000  Uiso   1.00
H307   H     0.61917   0.11912   0.93309   0.00000  Uiso   1.00
H308   H     0.51702   0.08730   0.02412   0.00000  Uiso   1.00
H309   H     0.68236   0.01089   0.85028   0.00000  Uiso   1.00
H310   H     0.66658   0.25404   0.94985   0.00000  Uiso   1.00
H311   H     0.39050   0.06004   0.08558   0.00000  Uiso   1.00
H312   H     0.73913   0.89895   0.71903   0.00000  Uiso   1.00
H313   H     0.70587   0.41167   0.92899   0.00000  Uiso   1.00
O314   O     0.27766   0.06678   0.00985   0.00000  Uiso   1.00
O315   O     0.73506   0.85544   0.52895   0.00000  Uiso   1.00
O316   O     0.69142   0.52812   0.80441   0.00000  Uiso   1.00
N317   N     0.33754   0.10506   0.87410   0.00000  Uiso   1.00
N318   N     0.66348   0.95443   0.53140   0.00000  Uiso   1.00
N319   N     0.63240   0.43378   0.72768   0.00000  Uiso   1.00
N320   N     0.38467   0.07647   0.01414   0.00000  Uiso   1.00
N321   N     0.71061   0.92584   0.67144   0.00000  Uiso   1.00
N322   N     0.67953   0.40519   0.86772   0.00000  Uiso   1.00
C323   C     0.95970   0.83303   0.19877   0.00000  Uiso   1.00
C324   C     0.00406   0.85707   0.28132   0.00000  Uiso   1.00
C325   C     0.06762   0.86137   0.27272   0.00000  Uiso   1.00
C326   C     0.10004   0.88460   0.35683   0.00000  Uiso   1.00
C327   C     0.17350   0.91918   0.47138   0.00000  Uiso   1.00
C328   C     0.91424   0.89860   0.18687   0.00000  Uiso   1.00
C329   C     0.90226   0.93779   0.09885   0.00000  Uiso   1.00
C330   C     0.85907   0.99598   0.10346   0.00000  Uiso   1.00
C331   C     0.79304   0.09499   0.07136   0.00000  Uiso   1.00
C332   C     0.92281   0.76649   0.24097   0.00000  Uiso   1.00
C333   C     0.91804   0.69461   0.19843   0.00000  Uiso   1.00
C334   C     0.88205   0.64157   0.24858   0.00000  Uiso   1.00
C335   C     0.82933   0.53546   0.30048   0.00000  Uiso   1.00
C336   C     0.90427   0.86666   0.36345   0.00000  Uiso   1.00
C337   C     0.97395   0.87534   0.37076   0.00000  Uiso   1.00
C338   C     0.00629   0.89857   0.45491   0.00000  Uiso   1.00
C339   C     0.06988   0.90289   0.44644   0.00000  Uiso   1.00
C340   C     0.88413   0.91686   0.27631   0.00000  Uiso   1.00
C341   C     0.84094   0.97500   0.28105   0.00000  Uiso   1.00
C342   C     0.82890   0.01428   0.19307   0.00000  Uiso   1.00
C343   C     0.89271   0.78475   0.33042   0.00000  Uiso   1.00
C344   C     0.85671   0.73181   0.38063   0.00000  Uiso   1.00
C345   C     0.85188   0.65987   0.33818   0.00000  Uiso   1.00
H346   H     0.98314   0.81882   0.12913   0.00000  Uiso   1.00
H347   H     0.09090   0.84723   0.20348   0.00000  Uiso   1.00
H348   H     0.92557   0.92364   0.02964   0.00000  Uiso   1.00
H349   H     0.94134   0.68050   0.12921   0.00000  Uiso   1.00
H350   H     0.19710   0.88682   0.32534   0.00000  Uiso   1.00
H351   H     0.84847   0.04791   0.95879   0.00000  Uiso   1.00
H352   H     0.88172   0.53519   0.16875   0.00000  Uiso   1.00
H353   H     0.88083   0.88088   0.43309   0.00000  Uiso   1.00
H354   H     0.98298   0.91270   0.52412   0.00000  Uiso   1.00
H355   H     0.81764   0.98911   0.35028   0.00000  Uiso   1.00
H356   H     0.83342   0.74596   0.44985   0.00000  Uiso   1.00
H357   H     0.10950   0.93996   0.58558   0.00000  Uiso   1.00
H358   H     0.76087   0.10105   0.21903   0.00000  Uiso   1.00
H359   H     0.79413   0.58833   0.42899   0.00000  Uiso   1.00
O360   O     0.22234   0.93322   0.50985   0.00000  Uiso   1.00
O361   O     0.76494   0.14456   0.02895   0.00000  Uiso   1.00
O362   O     0.80858   0.47188   0.30441   0.00000  Uiso   1.00
N363   N     0.16246   0.89494   0.37410   0.00000  Uiso   1.00
N364   N     0.83652   0.04557   0.03140   0.00000  Uiso   1.00
N365   N     0.86760   0.56622   0.22768   0.00000  Uiso   1.00
N366   N     0.11533   0.92353   0.51414   0.00000  Uiso   1.00
N367   N     0.78939   0.07416   0.17144   0.00000  Uiso   1.00
N368   N     0.82047   0.59481   0.36772   0.00000  Uiso   1.00
