data_job_05718
_audit_creation_date              2018-12-19
_audit_creation_method            'Materials Studio'
_symmetry_space_group_name_H-M    'P1'
_symmetry_Int_Tables_number       1
_symmetry_cell_setting            triclinic
loop_
_symmetry_equiv_pos_as_xyz
  x,y,z
_cell_length_a                    17.5713
_cell_length_b                    7.3822
_cell_length_c                    15.0042
_cell_angle_alpha                 90.0000
_cell_angle_beta                  37.0913
_cell_angle_gamma                 90.0000
loop_
_atom_site_label
_atom_site_type_symbol
_atom_site_fract_x
_atom_site_fract_y
_atom_site_fract_z
_atom_site_U_iso_or_equiv
_atom_site_adp_type
_atom_site_occupancy
C1     C     0.92007   0.42463   0.82499   0.00000  Uiso   1.00
C2     C     0.84371   0.34485   0.81964   0.00000  Uiso   1.00
C3     C     0.77949   0.44320   0.81516   0.00000  Uiso   1.00
C4     C     0.71519   0.34502   0.81068   0.00000  Uiso   1.00
C5     C     0.86421   0.34485   0.96221   0.00000  Uiso   1.00
C6     C     0.81726   0.44320   0.07759   0.00000  Uiso   1.00
C7     C     0.77023   0.34502   0.19312   0.00000  Uiso   1.00
C8     C     0.05227   0.34485   0.69314   0.00000  Uiso   1.00
C9     C     0.16344   0.44321   0.58230   0.00000  Uiso   1.00
C10    C     0.27475   0.34502   0.47131   0.00000  Uiso   1.00
H11    H     0.92007   0.57232   0.82500   0.00000  Uiso   1.00
H12    H     0.77951   0.59001   0.81517   0.00000  Uiso   1.00
H13    H     0.81728   0.59001   0.07755   0.00000  Uiso   1.00
H14    H     0.16340   0.59001   0.58234   0.00000  Uiso   1.00
H15    H     0.62363   0.52596   0.80434   0.00000  Uiso   1.00
H16    H     0.70332   0.52596   0.35755   0.00000  Uiso   1.00
H17    H     0.43319   0.52596   0.31330   0.00000  Uiso   1.00
N18    N     0.64294   0.39849   0.80566   0.00000  Uiso   1.00
N19    N     0.71742   0.39849   0.32289   0.00000  Uiso   1.00
N20    N     0.39980   0.39849   0.34662   0.00000  Uiso   1.00
C21    C     0.07993   0.92463   0.17501   0.00000  Uiso   1.00
C22    C     0.15629   0.84485   0.18036   0.00000  Uiso   1.00
C23    C     0.22051   0.94320   0.18484   0.00000  Uiso   1.00
C24    C     0.28481   0.84502   0.18932   0.00000  Uiso   1.00
C25    C     0.13579   0.84485   0.03779   0.00000  Uiso   1.00
C26    C     0.18274   0.94320   0.92241   0.00000  Uiso   1.00
C27    C     0.22977   0.84502   0.80688   0.00000  Uiso   1.00
C28    C     0.94773   0.84485   0.30686   0.00000  Uiso   1.00
C29    C     0.83656   0.94321   0.41770   0.00000  Uiso   1.00
C30    C     0.72525   0.84502   0.52869   0.00000  Uiso   1.00
H31    H     0.07993   0.07232   0.17500   0.00000  Uiso   1.00
H32    H     0.22049   0.09001   0.18483   0.00000  Uiso   1.00
H33    H     0.18272   0.09001   0.92245   0.00000  Uiso   1.00
H34    H     0.83660   0.09001   0.41766   0.00000  Uiso   1.00
H35    H     0.37637   0.02596   0.19566   0.00000  Uiso   1.00
H36    H     0.29668   0.02596   0.64245   0.00000  Uiso   1.00
H37    H     0.56681   0.02596   0.68670   0.00000  Uiso   1.00
N38    N     0.35706   0.89849   0.19434   0.00000  Uiso   1.00
N39    N     0.28258   0.89849   0.67711   0.00000  Uiso   1.00
N40    N     0.60020   0.89849   0.65338   0.00000  Uiso   1.00
C41    C     0.07993   0.57537   0.17501   0.00000  Uiso   1.00
C42    C     0.15629   0.65515   0.18036   0.00000  Uiso   1.00
C43    C     0.22051   0.55680   0.18484   0.00000  Uiso   1.00
C44    C     0.28481   0.65498   0.18932   0.00000  Uiso   1.00
C45    C     0.13579   0.65515   0.03779   0.00000  Uiso   1.00
C46    C     0.18274   0.55680   0.92241   0.00000  Uiso   1.00
C47    C     0.22977   0.65498   0.80688   0.00000  Uiso   1.00
C48    C     0.94773   0.65515   0.30686   0.00000  Uiso   1.00
C49    C     0.83656   0.55679   0.41770   0.00000  Uiso   1.00
C50    C     0.72525   0.65498   0.52869   0.00000  Uiso   1.00
H51    H     0.07993   0.42768   0.17500   0.00000  Uiso   1.00
H52    H     0.22049   0.40999   0.18483   0.00000  Uiso   1.00
H53    H     0.18272   0.40999   0.92245   0.00000  Uiso   1.00
H54    H     0.83660   0.40999   0.41766   0.00000  Uiso   1.00
H55    H     0.37637   0.47404   0.19566   0.00000  Uiso   1.00
H56    H     0.29668   0.47404   0.64245   0.00000  Uiso   1.00
H57    H     0.56681   0.47404   0.68670   0.00000  Uiso   1.00
N58    N     0.35706   0.60151   0.19434   0.00000  Uiso   1.00
N59    N     0.28258   0.60151   0.67711   0.00000  Uiso   1.00
N60    N     0.60020   0.60151   0.65338   0.00000  Uiso   1.00
C61    C     0.92007   0.07537   0.82499   0.00000  Uiso   1.00
C62    C     0.84371   0.15515   0.81964   0.00000  Uiso   1.00
C63    C     0.77949   0.05680   0.81516   0.00000  Uiso   1.00
C64    C     0.71519   0.15498   0.81068   0.00000  Uiso   1.00
C65    C     0.86421   0.15515   0.96221   0.00000  Uiso   1.00
C66    C     0.81726   0.05680   0.07759   0.00000  Uiso   1.00
C67    C     0.77023   0.15498   0.19312   0.00000  Uiso   1.00
C68    C     0.05227   0.15515   0.69314   0.00000  Uiso   1.00
C69    C     0.16344   0.05679   0.58230   0.00000  Uiso   1.00
C70    C     0.27475   0.15498   0.47131   0.00000  Uiso   1.00
H71    H     0.92007   0.92768   0.82500   0.00000  Uiso   1.00
H72    H     0.77951   0.90999   0.81517   0.00000  Uiso   1.00
H73    H     0.81728   0.90999   0.07755   0.00000  Uiso   1.00
H74    H     0.16340   0.90999   0.58234   0.00000  Uiso   1.00
H75    H     0.62363   0.97404   0.80434   0.00000  Uiso   1.00
H76    H     0.70332   0.97404   0.35755   0.00000  Uiso   1.00
H77    H     0.43319   0.97404   0.31330   0.00000  Uiso   1.00
N78    N     0.64294   0.10151   0.80566   0.00000  Uiso   1.00
N79    N     0.71742   0.10151   0.32289   0.00000  Uiso   1.00
N80    N     0.39980   0.10151   0.34662   0.00000  Uiso   1.00
C81    C     0.59657   0.25000   0.80245   0.00000  Uiso   1.00
C82    C     0.68354   0.25000   0.40617   0.00000  Uiso   1.00
C83    C     0.48004   0.25000   0.26659   0.00000  Uiso   1.00
O84    O     0.53113   0.25000   0.79793   0.00000  Uiso   1.00
O85    O     0.63570   0.25000   0.52370   0.00000  Uiso   1.00
O86    O     0.59327   0.25000   0.15366   0.00000  Uiso   1.00
C87    C     0.40343   0.75000   0.19755   0.00000  Uiso   1.00
C88    C     0.31646   0.75000   0.59383   0.00000  Uiso   1.00
C89    C     0.51996   0.75000   0.73341   0.00000  Uiso   1.00
O90    O     0.46887   0.75000   0.20207   0.00000  Uiso   1.00
O91    O     0.36430   0.75000   0.47630   0.00000  Uiso   1.00
O92    O     0.40673   0.75000   0.84634   0.00000  Uiso   1.00
