data_job_05702
_audit_creation_date              2018-12-19
_audit_creation_method            'Materials Studio'
_symmetry_space_group_name_H-M    'P1'
_symmetry_Int_Tables_number       1
_symmetry_cell_setting            triclinic
loop_
_symmetry_equiv_pos_as_xyz
  x,y,z
_cell_length_a                    19.6405
_cell_length_b                    7.5723
_cell_length_c                    16.8249
_cell_angle_alpha                 90.0000
_cell_angle_beta                  90.0000
_cell_angle_gamma                 90.0000
loop_
_atom_site_label
_atom_site_type_symbol
_atom_site_fract_x
_atom_site_fract_y
_atom_site_fract_z
_atom_site_U_iso_or_equiv
_atom_site_adp_type
_atom_site_occupancy
C1     C     0.70524   0.41126   0.41237   0.00000  Uiso   1.00
C2     C     0.78215   0.43886   0.41281   0.00000  Uiso   1.00
C3     C     0.83050   0.31192   0.43161   0.00000  Uiso   1.00
C4     C     0.89831   0.36330   0.42854   0.00000  Uiso   1.00
C5     C     0.01488   0.37999   0.43248   0.00000  Uiso   1.00
C6     C     0.67595   0.55015   0.46839   0.00000  Uiso   1.00
C7     C     0.63500   0.51677   0.53392   0.00000  Uiso   1.00
C8     C     0.61340   0.66185   0.57763   0.00000  Uiso   1.00
C9     C     0.56505   0.85132   0.66782   0.00000  Uiso   1.00
C10    C     0.68122   0.46203   0.32927   0.00000  Uiso   1.00
C11    C     0.64469   0.35458   0.27782   0.00000  Uiso   1.00
C12    C     0.62752   0.42548   0.20440   0.00000  Uiso   1.00
C13    C     0.58736   0.47812   0.07858   0.00000  Uiso   1.00
C14    C     0.73968   0.72826   0.37348   0.00000  Uiso   1.00
C15    C     0.80085   0.61104   0.39169   0.00000  Uiso   1.00
C16    C     0.86860   0.66264   0.38858   0.00000  Uiso   1.00
C17    C     0.91705   0.53579   0.40738   0.00000  Uiso   1.00
C18    C     0.69465   0.72232   0.44727   0.00000  Uiso   1.00
C19    C     0.67310   0.86749   0.49089   0.00000  Uiso   1.00
C20    C     0.63214   0.83434   0.55647   0.00000  Uiso   1.00
C21    C     0.69993   0.63421   0.30814   0.00000  Uiso   1.00
C22    C     0.68280   0.70530   0.23479   0.00000  Uiso   1.00
C23    C     0.64625   0.59797   0.18324   0.00000  Uiso   1.00
H24    H     0.69067   0.27722   0.42882   0.00000  Uiso   1.00
H25    H     0.81600   0.17869   0.44796   0.00000  Uiso   1.00
H26    H     0.62053   0.38351   0.55024   0.00000  Uiso   1.00
H27    H     0.63023   0.22134   0.29419   0.00000  Uiso   1.00
H28    H     0.96320   0.14539   0.45990   0.00000  Uiso   1.00
H29    H     0.55101   0.57728   0.67555   0.00000  Uiso   1.00
H30    H     0.57146   0.23532   0.13560   0.00000  Uiso   1.00
H31    H     0.75424   0.86232   0.35704   0.00000  Uiso   1.00
H32    H     0.88306   0.79589   0.37224   0.00000  Uiso   1.00
H33    H     0.68758   0.00071   0.47452   0.00000  Uiso   1.00
H34    H     0.69728   0.83854   0.21847   0.00000  Uiso   1.00
H35    H     0.01763   0.64634   0.39844   0.00000  Uiso   1.00
H36    H     0.60543   0.07823   0.61409   0.00000  Uiso   1.00
H37    H     0.62588   0.73626   0.07415   0.00000  Uiso   1.00
O38    O     0.07401   0.34163   0.44049   0.00000  Uiso   1.00
O39    O     0.53322   0.90825   0.72341   0.00000  Uiso   1.00
O40    O     0.56005   0.45959   0.01501   0.00000  Uiso   1.00
N41    N     0.95833   0.27240   0.44333   0.00000  Uiso   1.00
N42    N     0.57297   0.67619   0.64496   0.00000  Uiso   1.00
N43    N     0.59207   0.35649   0.14017   0.00000  Uiso   1.00
N44    N     0.98762   0.54195   0.41026   0.00000  Uiso   1.00
N45    N     0.60225   0.94574   0.61189   0.00000  Uiso   1.00
N46    N     0.62135   0.62605   0.10710   0.00000  Uiso   1.00
C47    C     0.29476   0.58874   0.91237   0.00000  Uiso   1.00
C48    C     0.21785   0.56114   0.91281   0.00000  Uiso   1.00
C49    C     0.16950   0.68808   0.93161   0.00000  Uiso   1.00
C50    C     0.10169   0.63670   0.92854   0.00000  Uiso   1.00
C51    C     0.98512   0.62001   0.93248   0.00000  Uiso   1.00
C52    C     0.32405   0.44985   0.96839   0.00000  Uiso   1.00
C53    C     0.36500   0.48323   0.03392   0.00000  Uiso   1.00
C54    C     0.38660   0.33815   0.07763   0.00000  Uiso   1.00
C55    C     0.43495   0.14868   0.16782   0.00000  Uiso   1.00
C56    C     0.31878   0.53797   0.82927   0.00000  Uiso   1.00
C57    C     0.35531   0.64542   0.77782   0.00000  Uiso   1.00
C58    C     0.37248   0.57452   0.70440   0.00000  Uiso   1.00
C59    C     0.41264   0.52188   0.57858   0.00000  Uiso   1.00
C60    C     0.26032   0.27174   0.87348   0.00000  Uiso   1.00
C61    C     0.19915   0.38896   0.89169   0.00000  Uiso   1.00
C62    C     0.13140   0.33736   0.88858   0.00000  Uiso   1.00
C63    C     0.08295   0.46421   0.90738   0.00000  Uiso   1.00
C64    C     0.30535   0.27768   0.94727   0.00000  Uiso   1.00
C65    C     0.32690   0.13251   0.99089   0.00000  Uiso   1.00
C66    C     0.36786   0.16566   0.05647   0.00000  Uiso   1.00
C67    C     0.30007   0.36579   0.80814   0.00000  Uiso   1.00
C68    C     0.31720   0.29470   0.73479   0.00000  Uiso   1.00
C69    C     0.35375   0.40203   0.68324   0.00000  Uiso   1.00
H70    H     0.30933   0.72278   0.92882   0.00000  Uiso   1.00
H71    H     0.18400   0.82131   0.94796   0.00000  Uiso   1.00
H72    H     0.37947   0.61649   0.05024   0.00000  Uiso   1.00
H73    H     0.36977   0.77866   0.79419   0.00000  Uiso   1.00
H74    H     0.03680   0.85461   0.95990   0.00000  Uiso   1.00
H75    H     0.44899   0.42272   0.17555   0.00000  Uiso   1.00
H76    H     0.42854   0.76468   0.63560   0.00000  Uiso   1.00
H77    H     0.24576   0.13768   0.85704   0.00000  Uiso   1.00
H78    H     0.11694   0.20411   0.87224   0.00000  Uiso   1.00
H79    H     0.31242   0.99929   0.97452   0.00000  Uiso   1.00
H80    H     0.30272   0.16146   0.71847   0.00000  Uiso   1.00
H81    H     0.98237   0.35366   0.89844   0.00000  Uiso   1.00
H82    H     0.39457   0.92177   0.11409   0.00000  Uiso   1.00
H83    H     0.37412   0.26374   0.57415   0.00000  Uiso   1.00
O84    O     0.92599   0.65837   0.94049   0.00000  Uiso   1.00
O85    O     0.46678   0.09175   0.22341   0.00000  Uiso   1.00
O86    O     0.43995   0.54041   0.51501   0.00000  Uiso   1.00
N87    N     0.04167   0.72760   0.94333   0.00000  Uiso   1.00
N88    N     0.42703   0.32381   0.14496   0.00000  Uiso   1.00
N89    N     0.40793   0.64351   0.64017   0.00000  Uiso   1.00
N90    N     0.01238   0.45805   0.91026   0.00000  Uiso   1.00
N91    N     0.39775   0.05426   0.11189   0.00000  Uiso   1.00
N92    N     0.37865   0.37395   0.60710   0.00000  Uiso   1.00
C93    C     0.20524   0.08874   0.41237   0.00000  Uiso   1.00
C94    C     0.28215   0.06114   0.41281   0.00000  Uiso   1.00
C95    C     0.33050   0.18808   0.43161   0.00000  Uiso   1.00
C96    C     0.39831   0.13670   0.42854   0.00000  Uiso   1.00
C97    C     0.51488   0.12001   0.43248   0.00000  Uiso   1.00
C98    C     0.17595   0.94985   0.46839   0.00000  Uiso   1.00
C99    C     0.13500   0.98323   0.53392   0.00000  Uiso   1.00
C100   C     0.11340   0.83815   0.57763   0.00000  Uiso   1.00
C101   C     0.06505   0.64868   0.66782   0.00000  Uiso   1.00
C102   C     0.18122   0.03797   0.32927   0.00000  Uiso   1.00
C103   C     0.14469   0.14542   0.27782   0.00000  Uiso   1.00
C104   C     0.12752   0.07452   0.20440   0.00000  Uiso   1.00
C105   C     0.08736   0.02188   0.07858   0.00000  Uiso   1.00
C106   C     0.23968   0.77174   0.37348   0.00000  Uiso   1.00
C107   C     0.30085   0.88896   0.39169   0.00000  Uiso   1.00
C108   C     0.36860   0.83736   0.38858   0.00000  Uiso   1.00
C109   C     0.41705   0.96421   0.40738   0.00000  Uiso   1.00
C110   C     0.19465   0.77768   0.44727   0.00000  Uiso   1.00
C111   C     0.17310   0.63251   0.49089   0.00000  Uiso   1.00
C112   C     0.13214   0.66566   0.55647   0.00000  Uiso   1.00
C113   C     0.19993   0.86579   0.30814   0.00000  Uiso   1.00
C114   C     0.18280   0.79470   0.23479   0.00000  Uiso   1.00
C115   C     0.14625   0.90203   0.18324   0.00000  Uiso   1.00
H116   H     0.19067   0.22278   0.42882   0.00000  Uiso   1.00
H117   H     0.31600   0.32131   0.44796   0.00000  Uiso   1.00
H118   H     0.12053   0.11649   0.55024   0.00000  Uiso   1.00
H119   H     0.13023   0.27866   0.29419   0.00000  Uiso   1.00
H120   H     0.46320   0.35461   0.45990   0.00000  Uiso   1.00
H121   H     0.05101   0.92272   0.67555   0.00000  Uiso   1.00
H122   H     0.07146   0.26468   0.13560   0.00000  Uiso   1.00
H123   H     0.25424   0.63768   0.35704   0.00000  Uiso   1.00
H124   H     0.38306   0.70411   0.37224   0.00000  Uiso   1.00
H125   H     0.18758   0.49929   0.47452   0.00000  Uiso   1.00
H126   H     0.19728   0.66146   0.21847   0.00000  Uiso   1.00
H127   H     0.51763   0.85366   0.39844   0.00000  Uiso   1.00
H128   H     0.10543   0.42177   0.61409   0.00000  Uiso   1.00
H129   H     0.12588   0.76374   0.07415   0.00000  Uiso   1.00
O130   O     0.57401   0.15837   0.44049   0.00000  Uiso   1.00
O131   O     0.03322   0.59175   0.72341   0.00000  Uiso   1.00
O132   O     0.06005   0.04041   0.01501   0.00000  Uiso   1.00
N133   N     0.45833   0.22760   0.44333   0.00000  Uiso   1.00
N134   N     0.07297   0.82381   0.64496   0.00000  Uiso   1.00
N135   N     0.09207   0.14351   0.14017   0.00000  Uiso   1.00
N136   N     0.48762   0.95805   0.41026   0.00000  Uiso   1.00
N137   N     0.10225   0.55426   0.61189   0.00000  Uiso   1.00
N138   N     0.12135   0.87395   0.10710   0.00000  Uiso   1.00
C139   C     0.79476   0.91126   0.91237   0.00000  Uiso   1.00
C140   C     0.71785   0.93886   0.91281   0.00000  Uiso   1.00
C141   C     0.66950   0.81192   0.93161   0.00000  Uiso   1.00
C142   C     0.60169   0.86330   0.92854   0.00000  Uiso   1.00
C143   C     0.48512   0.87999   0.93248   0.00000  Uiso   1.00
C144   C     0.82405   0.05015   0.96839   0.00000  Uiso   1.00
C145   C     0.86500   0.01677   0.03392   0.00000  Uiso   1.00
C146   C     0.88660   0.16185   0.07763   0.00000  Uiso   1.00
C147   C     0.93495   0.35132   0.16782   0.00000  Uiso   1.00
C148   C     0.81878   0.96203   0.82927   0.00000  Uiso   1.00
C149   C     0.85531   0.85458   0.77782   0.00000  Uiso   1.00
C150   C     0.87248   0.92548   0.70440   0.00000  Uiso   1.00
C151   C     0.91264   0.97812   0.57858   0.00000  Uiso   1.00
C152   C     0.76032   0.22826   0.87348   0.00000  Uiso   1.00
C153   C     0.69915   0.11104   0.89169   0.00000  Uiso   1.00
C154   C     0.63140   0.16264   0.88858   0.00000  Uiso   1.00
C155   C     0.58295   0.03579   0.90738   0.00000  Uiso   1.00
C156   C     0.80535   0.22232   0.94727   0.00000  Uiso   1.00
C157   C     0.82690   0.36749   0.99089   0.00000  Uiso   1.00
C158   C     0.86786   0.33434   0.05647   0.00000  Uiso   1.00
C159   C     0.80007   0.13421   0.80814   0.00000  Uiso   1.00
C160   C     0.81720   0.20530   0.73479   0.00000  Uiso   1.00
C161   C     0.85375   0.09797   0.68324   0.00000  Uiso   1.00
H162   H     0.80933   0.77722   0.92882   0.00000  Uiso   1.00
H163   H     0.68400   0.67869   0.94796   0.00000  Uiso   1.00
H164   H     0.87947   0.88351   0.05024   0.00000  Uiso   1.00
H165   H     0.86977   0.72134   0.79419   0.00000  Uiso   1.00
H166   H     0.53680   0.64539   0.95990   0.00000  Uiso   1.00
H167   H     0.94899   0.07728   0.17555   0.00000  Uiso   1.00
H168   H     0.92854   0.73532   0.63560   0.00000  Uiso   1.00
H169   H     0.74576   0.36232   0.85704   0.00000  Uiso   1.00
H170   H     0.61694   0.29589   0.87224   0.00000  Uiso   1.00
H171   H     0.81242   0.50071   0.97452   0.00000  Uiso   1.00
H172   H     0.80272   0.33854   0.71847   0.00000  Uiso   1.00
H173   H     0.48237   0.14634   0.89844   0.00000  Uiso   1.00
H174   H     0.89457   0.57823   0.11409   0.00000  Uiso   1.00
H175   H     0.87412   0.23626   0.57415   0.00000  Uiso   1.00
O176   O     0.42599   0.84163   0.94049   0.00000  Uiso   1.00
O177   O     0.96678   0.40825   0.22341   0.00000  Uiso   1.00
O178   O     0.93995   0.95959   0.51501   0.00000  Uiso   1.00
N179   N     0.54167   0.77240   0.94333   0.00000  Uiso   1.00
N180   N     0.92703   0.17619   0.14496   0.00000  Uiso   1.00
N181   N     0.90793   0.85649   0.64017   0.00000  Uiso   1.00
N182   N     0.51238   0.04195   0.91026   0.00000  Uiso   1.00
N183   N     0.89775   0.44574   0.11189   0.00000  Uiso   1.00
N184   N     0.87865   0.12605   0.60710   0.00000  Uiso   1.00
