data_job_04823
_audit_creation_date              2018-12-19
_audit_creation_method            'Materials Studio'
_symmetry_space_group_name_H-M    'P1'
_symmetry_Int_Tables_number       1
_symmetry_cell_setting            triclinic
loop_
_symmetry_equiv_pos_as_xyz
  x,y,z
_cell_length_a                    12.8176
_cell_length_b                    11.7656
_cell_length_c                    16.2989
_cell_angle_alpha                 90.0000
_cell_angle_beta                  90.0000
_cell_angle_gamma                 90.0000
loop_
_atom_site_label
_atom_site_type_symbol
_atom_site_fract_x
_atom_site_fract_y
_atom_site_fract_z
_atom_site_U_iso_or_equiv
_atom_site_adp_type
_atom_site_occupancy
C1     C     0.06204   0.47194   0.39897   0.00000  Uiso   1.00
C2     C     0.95849   0.53169   0.41514   0.00000  Uiso   1.00
C3     C     0.92879   0.58190   0.48856   0.00000  Uiso   1.00
C4     C     0.83085   0.63219   0.49097   0.00000  Uiso   1.00
C5     C     0.68006   0.72493   0.52653   0.00000  Uiso   1.00
C6     C     0.03437   0.35240   0.37009   0.00000  Uiso   1.00
C7     C     0.06849   0.25185   0.40562   0.00000  Uiso   1.00
C8     C     0.03444   0.15122   0.37009   0.00000  Uiso   1.00
C9     C     0.00152   0.96559   0.33567   0.00000  Uiso   1.00
C10    C     0.11024   0.53174   0.32513   0.00000  Uiso   1.00
C11    C     0.20817   0.58197   0.32285   0.00000  Uiso   1.00
C12    C     0.23800   0.63231   0.24946   0.00000  Uiso   1.00
C13    C     0.32288   0.72514   0.14524   0.00000  Uiso   1.00
C14    C     0.94091   0.47199   0.27267   0.00000  Uiso   1.00
C15    C     0.89270   0.53172   0.34654   0.00000  Uiso   1.00
C16    C     0.79478   0.58196   0.34883   0.00000  Uiso   1.00
C17    C     0.76495   0.63223   0.42225   0.00000  Uiso   1.00
C18    C     0.96858   0.35242   0.30149   0.00000  Uiso   1.00
C19    C     0.93448   0.25191   0.26590   0.00000  Uiso   1.00
C20    C     0.96853   0.15125   0.30137   0.00000  Uiso   1.00
C21    C     0.04445   0.53177   0.25653   0.00000  Uiso   1.00
C22    C     0.07415   0.58203   0.18313   0.00000  Uiso   1.00
C23    C     0.17210   0.63233   0.18074   0.00000  Uiso   1.00
H24    H     0.11326   0.47191   0.45237   0.00000  Uiso   1.00
H25    H     0.97973   0.58185   0.54164   0.00000  Uiso   1.00
H26    H     0.11941   0.25186   0.45870   0.00000  Uiso   1.00
H27    H     0.25906   0.58193   0.37595   0.00000  Uiso   1.00
H28    H     0.80265   0.70372   0.61036   0.00000  Uiso   1.00
H29    H     0.09722   0.00792   0.43548   0.00000  Uiso   1.00
H30    H     0.39169   0.70393   0.26097   0.00000  Uiso   1.00
H31    H     0.88969   0.47201   0.21926   0.00000  Uiso   1.00
H32    H     0.74388   0.58197   0.29574   0.00000  Uiso   1.00
H33    H     0.88357   0.25197   0.21281   0.00000  Uiso   1.00
H34    H     0.02322   0.58204   0.13006   0.00000  Uiso   1.00
H35    H     0.61123   0.70381   0.41079   0.00000  Uiso   1.00
H36    H     0.90580   0.00800   0.23590   0.00000  Uiso   1.00
H37    H     0.20027   0.70402   0.06140   0.00000  Uiso   1.00
O38    O     0.61505   0.77606   0.56510   0.00000  Uiso   1.00
O39    O     0.00153   0.86320   0.33564   0.00000  Uiso   1.00
O40    O     0.38786   0.77635   0.10670   0.00000  Uiso   1.00
N41    N     0.77762   0.68867   0.55289   0.00000  Uiso   1.00
N42    N     0.05301   0.03813   0.38939   0.00000  Uiso   1.00
N43    N     0.32833   0.68882   0.22624   0.00000  Uiso   1.00
N44    N     0.67462   0.68872   0.44550   0.00000  Uiso   1.00
N45    N     0.95001   0.03818   0.28200   0.00000  Uiso   1.00
N46    N     0.22532   0.68887   0.11885   0.00000  Uiso   1.00
C47    C     0.93796   0.52806   0.89897   0.00000  Uiso   1.00
C48    C     0.04151   0.46831   0.91514   0.00000  Uiso   1.00
C49    C     0.07121   0.41810   0.98856   0.00000  Uiso   1.00
C50    C     0.16915   0.36781   0.99097   0.00000  Uiso   1.00
C51    C     0.31994   0.27507   0.02653   0.00000  Uiso   1.00
C52    C     0.96563   0.64760   0.87009   0.00000  Uiso   1.00
C53    C     0.93151   0.74815   0.90562   0.00000  Uiso   1.00
C54    C     0.96556   0.84878   0.87009   0.00000  Uiso   1.00
C55    C     0.99848   0.03441   0.83567   0.00000  Uiso   1.00
C56    C     0.88976   0.46826   0.82513   0.00000  Uiso   1.00
C57    C     0.79183   0.41803   0.82285   0.00000  Uiso   1.00
C58    C     0.76200   0.36769   0.74946   0.00000  Uiso   1.00
C59    C     0.67712   0.27486   0.64524   0.00000  Uiso   1.00
C60    C     0.05909   0.52801   0.77267   0.00000  Uiso   1.00
C61    C     0.10730   0.46828   0.84654   0.00000  Uiso   1.00
C62    C     0.20522   0.41804   0.84883   0.00000  Uiso   1.00
C63    C     0.23505   0.36777   0.92225   0.00000  Uiso   1.00
C64    C     0.03142   0.64758   0.80149   0.00000  Uiso   1.00
C65    C     0.06552   0.74809   0.76590   0.00000  Uiso   1.00
C66    C     0.03147   0.84875   0.80137   0.00000  Uiso   1.00
C67    C     0.95555   0.46823   0.75653   0.00000  Uiso   1.00
C68    C     0.92585   0.41797   0.68313   0.00000  Uiso   1.00
C69    C     0.82790   0.36767   0.68074   0.00000  Uiso   1.00
H70    H     0.88674   0.52809   0.95237   0.00000  Uiso   1.00
H71    H     0.02027   0.41815   0.04164   0.00000  Uiso   1.00
H72    H     0.88059   0.74814   0.95870   0.00000  Uiso   1.00
H73    H     0.74094   0.41807   0.87595   0.00000  Uiso   1.00
H74    H     0.19735   0.29628   0.11036   0.00000  Uiso   1.00
H75    H     0.90278   0.99208   0.93548   0.00000  Uiso   1.00
H76    H     0.60831   0.29607   0.76097   0.00000  Uiso   1.00
H77    H     0.11031   0.52799   0.71926   0.00000  Uiso   1.00
H78    H     0.25612   0.41803   0.79574   0.00000  Uiso   1.00
H79    H     0.11643   0.74803   0.71281   0.00000  Uiso   1.00
H80    H     0.97678   0.41796   0.63006   0.00000  Uiso   1.00
H81    H     0.38877   0.29619   0.91079   0.00000  Uiso   1.00
H82    H     0.09420   0.99200   0.73590   0.00000  Uiso   1.00
H83    H     0.79973   0.29598   0.56140   0.00000  Uiso   1.00
O84    O     0.38495   0.22394   0.06510   0.00000  Uiso   1.00
O85    O     0.99847   0.13680   0.83564   0.00000  Uiso   1.00
O86    O     0.61214   0.22365   0.60670   0.00000  Uiso   1.00
N87    N     0.22238   0.31133   0.05289   0.00000  Uiso   1.00
N88    N     0.94699   0.96187   0.88939   0.00000  Uiso   1.00
N89    N     0.67167   0.31118   0.72624   0.00000  Uiso   1.00
N90    N     0.32538   0.31128   0.94550   0.00000  Uiso   1.00
N91    N     0.04999   0.96182   0.78200   0.00000  Uiso   1.00
N92    N     0.77468   0.31113   0.61885   0.00000  Uiso   1.00
C93    C     0.56204   0.02806   0.39897   0.00000  Uiso   1.00
C94    C     0.45849   0.96831   0.41514   0.00000  Uiso   1.00
C95    C     0.42879   0.91810   0.48856   0.00000  Uiso   1.00
C96    C     0.33085   0.86781   0.49097   0.00000  Uiso   1.00
C97    C     0.18006   0.77507   0.52653   0.00000  Uiso   1.00
C98    C     0.53437   0.14760   0.37009   0.00000  Uiso   1.00
C99    C     0.56849   0.24815   0.40562   0.00000  Uiso   1.00
C100   C     0.53444   0.34878   0.37009   0.00000  Uiso   1.00
C101   C     0.50152   0.53441   0.33567   0.00000  Uiso   1.00
C102   C     0.61024   0.96826   0.32513   0.00000  Uiso   1.00
C103   C     0.70817   0.91803   0.32285   0.00000  Uiso   1.00
C104   C     0.73800   0.86769   0.24946   0.00000  Uiso   1.00
C105   C     0.82288   0.77486   0.14524   0.00000  Uiso   1.00
C106   C     0.44091   0.02801   0.27267   0.00000  Uiso   1.00
C107   C     0.39270   0.96828   0.34654   0.00000  Uiso   1.00
C108   C     0.29478   0.91804   0.34883   0.00000  Uiso   1.00
C109   C     0.26495   0.86777   0.42225   0.00000  Uiso   1.00
C110   C     0.46858   0.14758   0.30149   0.00000  Uiso   1.00
C111   C     0.43448   0.24809   0.26590   0.00000  Uiso   1.00
C112   C     0.46853   0.34875   0.30137   0.00000  Uiso   1.00
C113   C     0.54445   0.96823   0.25653   0.00000  Uiso   1.00
C114   C     0.57415   0.91797   0.18313   0.00000  Uiso   1.00
C115   C     0.67210   0.86767   0.18074   0.00000  Uiso   1.00
H116   H     0.61326   0.02809   0.45237   0.00000  Uiso   1.00
H117   H     0.47973   0.91815   0.54164   0.00000  Uiso   1.00
H118   H     0.61941   0.24814   0.45870   0.00000  Uiso   1.00
H119   H     0.75906   0.91807   0.37595   0.00000  Uiso   1.00
H120   H     0.30265   0.79628   0.61036   0.00000  Uiso   1.00
H121   H     0.59722   0.49208   0.43548   0.00000  Uiso   1.00
H122   H     0.89169   0.79607   0.26097   0.00000  Uiso   1.00
H123   H     0.38969   0.02799   0.21926   0.00000  Uiso   1.00
H124   H     0.24388   0.91803   0.29574   0.00000  Uiso   1.00
H125   H     0.38357   0.24803   0.21281   0.00000  Uiso   1.00
H126   H     0.52322   0.91796   0.13006   0.00000  Uiso   1.00
H127   H     0.11123   0.79619   0.41079   0.00000  Uiso   1.00
H128   H     0.40580   0.49200   0.23590   0.00000  Uiso   1.00
H129   H     0.70027   0.79598   0.06140   0.00000  Uiso   1.00
O130   O     0.11505   0.72394   0.56510   0.00000  Uiso   1.00
O131   O     0.50153   0.63680   0.33564   0.00000  Uiso   1.00
O132   O     0.88786   0.72365   0.10670   0.00000  Uiso   1.00
N133   N     0.27762   0.81133   0.55289   0.00000  Uiso   1.00
N134   N     0.55301   0.46187   0.38939   0.00000  Uiso   1.00
N135   N     0.82833   0.81118   0.22624   0.00000  Uiso   1.00
N136   N     0.17462   0.81128   0.44550   0.00000  Uiso   1.00
N137   N     0.45001   0.46182   0.28200   0.00000  Uiso   1.00
N138   N     0.72532   0.81113   0.11885   0.00000  Uiso   1.00
C139   C     0.43796   0.97194   0.89897   0.00000  Uiso   1.00
C140   C     0.54151   0.03169   0.91514   0.00000  Uiso   1.00
C141   C     0.57121   0.08190   0.98856   0.00000  Uiso   1.00
C142   C     0.66915   0.13219   0.99097   0.00000  Uiso   1.00
C143   C     0.81994   0.22493   0.02653   0.00000  Uiso   1.00
C144   C     0.46563   0.85240   0.87009   0.00000  Uiso   1.00
C145   C     0.43151   0.75185   0.90562   0.00000  Uiso   1.00
C146   C     0.46556   0.65122   0.87009   0.00000  Uiso   1.00
C147   C     0.49848   0.46559   0.83567   0.00000  Uiso   1.00
C148   C     0.38976   0.03174   0.82513   0.00000  Uiso   1.00
C149   C     0.29183   0.08197   0.82285   0.00000  Uiso   1.00
C150   C     0.26200   0.13231   0.74946   0.00000  Uiso   1.00
C151   C     0.17712   0.22514   0.64524   0.00000  Uiso   1.00
C152   C     0.55909   0.97199   0.77267   0.00000  Uiso   1.00
C153   C     0.60730   0.03172   0.84654   0.00000  Uiso   1.00
C154   C     0.70522   0.08196   0.84883   0.00000  Uiso   1.00
C155   C     0.73505   0.13223   0.92225   0.00000  Uiso   1.00
C156   C     0.53142   0.85242   0.80149   0.00000  Uiso   1.00
C157   C     0.56552   0.75191   0.76590   0.00000  Uiso   1.00
C158   C     0.53147   0.65125   0.80137   0.00000  Uiso   1.00
C159   C     0.45555   0.03177   0.75653   0.00000  Uiso   1.00
C160   C     0.42585   0.08203   0.68313   0.00000  Uiso   1.00
C161   C     0.32790   0.13233   0.68074   0.00000  Uiso   1.00
H162   H     0.38674   0.97191   0.95237   0.00000  Uiso   1.00
H163   H     0.52027   0.08185   0.04164   0.00000  Uiso   1.00
H164   H     0.38059   0.75186   0.95870   0.00000  Uiso   1.00
H165   H     0.24094   0.08193   0.87595   0.00000  Uiso   1.00
H166   H     0.69735   0.20372   0.11036   0.00000  Uiso   1.00
H167   H     0.40278   0.50792   0.93548   0.00000  Uiso   1.00
H168   H     0.10831   0.20393   0.76097   0.00000  Uiso   1.00
H169   H     0.61031   0.97201   0.71926   0.00000  Uiso   1.00
H170   H     0.75612   0.08197   0.79574   0.00000  Uiso   1.00
H171   H     0.61643   0.75197   0.71281   0.00000  Uiso   1.00
H172   H     0.47678   0.08204   0.63006   0.00000  Uiso   1.00
H173   H     0.88877   0.20381   0.91079   0.00000  Uiso   1.00
H174   H     0.59420   0.50800   0.73590   0.00000  Uiso   1.00
H175   H     0.29973   0.20402   0.56140   0.00000  Uiso   1.00
O176   O     0.88495   0.27606   0.06510   0.00000  Uiso   1.00
O177   O     0.49847   0.36320   0.83564   0.00000  Uiso   1.00
O178   O     0.11214   0.27635   0.60670   0.00000  Uiso   1.00
N179   N     0.72238   0.18867   0.05289   0.00000  Uiso   1.00
N180   N     0.44699   0.53813   0.88939   0.00000  Uiso   1.00
N181   N     0.17167   0.18882   0.72624   0.00000  Uiso   1.00
N182   N     0.82538   0.18872   0.94550   0.00000  Uiso   1.00
N183   N     0.54999   0.53818   0.78200   0.00000  Uiso   1.00
N184   N     0.27468   0.18887   0.61885   0.00000  Uiso   1.00
