data_job_00723
_audit_creation_date              2018-12-19
_audit_creation_method            'Materials Studio'
_symmetry_space_group_name_H-M    'P1'
_symmetry_Int_Tables_number       1
_symmetry_cell_setting            triclinic
loop_
_symmetry_equiv_pos_as_xyz
  x,y,z
_cell_length_a                    19.8034
_cell_length_b                    12.4926
_cell_length_c                    18.4213
_cell_angle_alpha                 90.0000
_cell_angle_beta                  90.0000
_cell_angle_gamma                 90.0000
loop_
_atom_site_label
_atom_site_type_symbol
_atom_site_fract_x
_atom_site_fract_y
_atom_site_fract_z
_atom_site_U_iso_or_equiv
_atom_site_adp_type
_atom_site_occupancy
C1     C     0.22249   0.20599   0.01647   0.00000  Uiso   1.00
C2     C     0.18495   0.30906   0.99807   0.00000  Uiso   1.00
C3     C     0.19333   0.36923   0.93539   0.00000  Uiso   1.00
C4     C     0.15425   0.46098   0.92875   0.00000  Uiso   1.00
C5     C     0.10295   0.61642   0.89196   0.00000  Uiso   1.00
C6     C     0.25648   0.22555   0.08956   0.00000  Uiso   1.00
C7     C     0.32501   0.21550   0.10380   0.00000  Uiso   1.00
C8     C     0.34613   0.23693   0.17419   0.00000  Uiso   1.00
C9     C     0.40588   0.26265   0.27944   0.00000  Uiso   1.00
C10    C     0.16826   0.12170   0.03010   0.00000  Uiso   1.00
C11    C     0.16262   0.02431   0.99436   0.00000  Uiso   1.00
C12    C     0.10948   0.95829   0.01470   0.00000  Uiso   1.00
C13    C     0.03226   0.82276   0.02763   0.00000  Uiso   1.00
C14    C     0.13817   0.26191   0.11615   0.00000  Uiso   1.00
C15    C     0.13915   0.33943   0.05221   0.00000  Uiso   1.00
C16    C     0.10004   0.43110   0.04567   0.00000  Uiso   1.00
C17    C     0.10836   0.49140   0.98299   0.00000  Uiso   1.00
C18    C     0.21068   0.25592   0.14370   0.00000  Uiso   1.00
C19    C     0.23171   0.27737   0.21408   0.00000  Uiso   1.00
C20    C     0.30025   0.26736   0.22842   0.00000  Uiso   1.00
C21    C     0.12246   0.15207   0.08424   0.00000  Uiso   1.00
C22    C     0.06933   0.08618   0.10463   0.00000  Uiso   1.00
C23    C     0.06360   0.98872   0.06893   0.00000  Uiso   1.00
H24    H     0.25815   0.18235   0.97433   0.00000  Uiso   1.00
H25    H     0.22879   0.34571   0.89351   0.00000  Uiso   1.00
H26    H     0.36044   0.19198   0.06190   0.00000  Uiso   1.00
H27    H     0.19807   0.00083   0.95247   0.00000  Uiso   1.00
H28    H     0.17605   0.54024   0.82779   0.00000  Uiso   1.00
H29    H     0.45364   0.21607   0.18286   0.00000  Uiso   1.00
H30    H     0.11127   0.81298   0.95211   0.00000  Uiso   1.00
H31    H     0.10251   0.28555   0.15830   0.00000  Uiso   1.00
H32    H     0.06460   0.45458   0.08757   0.00000  Uiso   1.00
H33    H     0.19625   0.30086   0.25596   0.00000  Uiso   1.00
H34    H     0.03389   0.10971   0.14653   0.00000  Uiso   1.00
H35    H     0.04279   0.62861   0.98530   0.00000  Uiso   1.00
H36    H     0.32038   0.30444   0.34037   0.00000  Uiso   1.00
H37    H     0.97801   0.90136   0.10961   0.00000  Uiso   1.00
O38    O     0.08731   0.69377   0.85671   0.00000  Uiso   1.00
O39    O     0.45149   0.26846   0.32254   0.00000  Uiso   1.00
O40    O     0.00231   0.73962   0.01980   0.00000  Uiso   1.00
N41    N     0.14988   0.53783   0.87456   0.00000  Uiso   1.00
N42    N     0.40941   0.23477   0.20652   0.00000  Uiso   1.00
N43    N     0.08933   0.85790   0.99080   0.00000  Uiso   1.00
N44    N     0.07817   0.58538   0.95932   0.00000  Uiso   1.00
N45    N     0.33771   0.28232   0.29128   0.00000  Uiso   1.00
N46    N     0.01763   0.90545   0.07556   0.00000  Uiso   1.00
C47    C     0.27751   0.29401   0.51647   0.00000  Uiso   1.00
C48    C     0.31505   0.19094   0.49807   0.00000  Uiso   1.00
C49    C     0.30667   0.13077   0.43539   0.00000  Uiso   1.00
C50    C     0.34575   0.03902   0.42875   0.00000  Uiso   1.00
C51    C     0.39705   0.88358   0.39196   0.00000  Uiso   1.00
C52    C     0.24352   0.27445   0.58956   0.00000  Uiso   1.00
C53    C     0.17499   0.28450   0.60380   0.00000  Uiso   1.00
C54    C     0.15387   0.26307   0.67419   0.00000  Uiso   1.00
C55    C     0.09412   0.23735   0.77944   0.00000  Uiso   1.00
C56    C     0.33174   0.37830   0.53010   0.00000  Uiso   1.00
C57    C     0.33738   0.47569   0.49436   0.00000  Uiso   1.00
C58    C     0.39052   0.54171   0.51470   0.00000  Uiso   1.00
C59    C     0.46774   0.67724   0.52763   0.00000  Uiso   1.00
C60    C     0.36183   0.23809   0.61615   0.00000  Uiso   1.00
C61    C     0.36085   0.16057   0.55221   0.00000  Uiso   1.00
C62    C     0.39996   0.06890   0.54567   0.00000  Uiso   1.00
C63    C     0.39164   0.00860   0.48299   0.00000  Uiso   1.00
C64    C     0.28932   0.24408   0.64370   0.00000  Uiso   1.00
C65    C     0.26829   0.22263   0.71408   0.00000  Uiso   1.00
C66    C     0.19975   0.23264   0.72842   0.00000  Uiso   1.00
C67    C     0.37754   0.34793   0.58424   0.00000  Uiso   1.00
C68    C     0.43067   0.41382   0.60463   0.00000  Uiso   1.00
C69    C     0.43640   0.51128   0.56893   0.00000  Uiso   1.00
H70    H     0.24185   0.31765   0.47433   0.00000  Uiso   1.00
H71    H     0.27121   0.15429   0.39351   0.00000  Uiso   1.00
H72    H     0.13956   0.30802   0.56190   0.00000  Uiso   1.00
H73    H     0.30193   0.49917   0.45247   0.00000  Uiso   1.00
H74    H     0.32395   0.95976   0.32779   0.00000  Uiso   1.00
H75    H     0.04636   0.28393   0.68286   0.00000  Uiso   1.00
H76    H     0.38873   0.68702   0.45211   0.00000  Uiso   1.00
H77    H     0.39749   0.21445   0.65830   0.00000  Uiso   1.00
H78    H     0.43540   0.04542   0.58757   0.00000  Uiso   1.00
H79    H     0.30375   0.19914   0.75596   0.00000  Uiso   1.00
H80    H     0.46611   0.39029   0.64653   0.00000  Uiso   1.00
H81    H     0.45721   0.87139   0.48530   0.00000  Uiso   1.00
H82    H     0.17962   0.19556   0.84037   0.00000  Uiso   1.00
H83    H     0.52199   0.59864   0.60961   0.00000  Uiso   1.00
O84    O     0.41269   0.80623   0.35671   0.00000  Uiso   1.00
O85    O     0.04851   0.23154   0.82254   0.00000  Uiso   1.00
O86    O     0.49769   0.76038   0.51980   0.00000  Uiso   1.00
N87    N     0.35012   0.96217   0.37456   0.00000  Uiso   1.00
N88    N     0.09059   0.26523   0.70652   0.00000  Uiso   1.00
N89    N     0.41067   0.64210   0.49080   0.00000  Uiso   1.00
N90    N     0.42183   0.91462   0.45932   0.00000  Uiso   1.00
N91    N     0.16229   0.21768   0.79128   0.00000  Uiso   1.00
N92    N     0.48237   0.59455   0.57556   0.00000  Uiso   1.00
C93    C     0.77751   0.20599   0.48353   0.00000  Uiso   1.00
C94    C     0.81505   0.30906   0.50193   0.00000  Uiso   1.00
C95    C     0.80667   0.36923   0.56461   0.00000  Uiso   1.00
C96    C     0.84575   0.46098   0.57125   0.00000  Uiso   1.00
C97    C     0.89705   0.61642   0.60804   0.00000  Uiso   1.00
C98    C     0.74352   0.22555   0.41044   0.00000  Uiso   1.00
C99    C     0.67499   0.21550   0.39620   0.00000  Uiso   1.00
C100   C     0.65387   0.23693   0.32581   0.00000  Uiso   1.00
C101   C     0.59412   0.26265   0.22056   0.00000  Uiso   1.00
C102   C     0.83174   0.12170   0.46990   0.00000  Uiso   1.00
C103   C     0.83738   0.02431   0.50564   0.00000  Uiso   1.00
C104   C     0.89052   0.95829   0.48530   0.00000  Uiso   1.00
C105   C     0.96774   0.82276   0.47237   0.00000  Uiso   1.00
C106   C     0.86183   0.26191   0.38385   0.00000  Uiso   1.00
C107   C     0.86085   0.33943   0.44779   0.00000  Uiso   1.00
C108   C     0.89996   0.43110   0.45433   0.00000  Uiso   1.00
C109   C     0.89164   0.49140   0.51701   0.00000  Uiso   1.00
C110   C     0.78932   0.25592   0.35630   0.00000  Uiso   1.00
C111   C     0.76829   0.27737   0.28592   0.00000  Uiso   1.00
C112   C     0.69975   0.26736   0.27158   0.00000  Uiso   1.00
C113   C     0.87754   0.15207   0.41576   0.00000  Uiso   1.00
C114   C     0.93067   0.08618   0.39537   0.00000  Uiso   1.00
C115   C     0.93640   0.98872   0.43107   0.00000  Uiso   1.00
H116   H     0.74185   0.18235   0.52567   0.00000  Uiso   1.00
H117   H     0.77121   0.34571   0.60649   0.00000  Uiso   1.00
H118   H     0.63956   0.19198   0.43810   0.00000  Uiso   1.00
H119   H     0.80193   0.00083   0.54753   0.00000  Uiso   1.00
H120   H     0.82395   0.54024   0.67221   0.00000  Uiso   1.00
H121   H     0.54636   0.21607   0.31714   0.00000  Uiso   1.00
H122   H     0.88873   0.81298   0.54789   0.00000  Uiso   1.00
H123   H     0.89749   0.28555   0.34170   0.00000  Uiso   1.00
H124   H     0.93540   0.45458   0.41243   0.00000  Uiso   1.00
H125   H     0.80375   0.30086   0.24404   0.00000  Uiso   1.00
H126   H     0.96611   0.10971   0.35347   0.00000  Uiso   1.00
H127   H     0.95721   0.62861   0.51470   0.00000  Uiso   1.00
H128   H     0.67962   0.30444   0.15963   0.00000  Uiso   1.00
H129   H     0.02199   0.90136   0.39039   0.00000  Uiso   1.00
O130   O     0.91269   0.69377   0.64329   0.00000  Uiso   1.00
O131   O     0.54851   0.26846   0.17746   0.00000  Uiso   1.00
O132   O     0.99769   0.73962   0.48020   0.00000  Uiso   1.00
N133   N     0.85012   0.53783   0.62544   0.00000  Uiso   1.00
N134   N     0.59059   0.23477   0.29348   0.00000  Uiso   1.00
N135   N     0.91067   0.85790   0.50920   0.00000  Uiso   1.00
N136   N     0.92183   0.58538   0.54068   0.00000  Uiso   1.00
N137   N     0.66229   0.28232   0.20872   0.00000  Uiso   1.00
N138   N     0.98237   0.90545   0.42444   0.00000  Uiso   1.00
C139   C     0.72249   0.29401   0.98353   0.00000  Uiso   1.00
C140   C     0.68495   0.19094   0.00193   0.00000  Uiso   1.00
C141   C     0.69333   0.13077   0.06461   0.00000  Uiso   1.00
C142   C     0.65425   0.03902   0.07125   0.00000  Uiso   1.00
C143   C     0.60295   0.88358   0.10804   0.00000  Uiso   1.00
C144   C     0.75648   0.27445   0.91044   0.00000  Uiso   1.00
C145   C     0.82501   0.28450   0.89620   0.00000  Uiso   1.00
C146   C     0.84613   0.26307   0.82581   0.00000  Uiso   1.00
C147   C     0.90588   0.23735   0.72056   0.00000  Uiso   1.00
C148   C     0.66826   0.37830   0.96990   0.00000  Uiso   1.00
C149   C     0.66262   0.47569   0.00564   0.00000  Uiso   1.00
C150   C     0.60948   0.54171   0.98530   0.00000  Uiso   1.00
C151   C     0.53226   0.67724   0.97237   0.00000  Uiso   1.00
C152   C     0.63817   0.23809   0.88385   0.00000  Uiso   1.00
C153   C     0.63915   0.16057   0.94779   0.00000  Uiso   1.00
C154   C     0.60004   0.06890   0.95433   0.00000  Uiso   1.00
C155   C     0.60836   0.00860   0.01701   0.00000  Uiso   1.00
C156   C     0.71068   0.24408   0.85630   0.00000  Uiso   1.00
C157   C     0.73171   0.22263   0.78592   0.00000  Uiso   1.00
C158   C     0.80025   0.23264   0.77158   0.00000  Uiso   1.00
C159   C     0.62246   0.34793   0.91576   0.00000  Uiso   1.00
C160   C     0.56933   0.41382   0.89537   0.00000  Uiso   1.00
C161   C     0.56360   0.51128   0.93107   0.00000  Uiso   1.00
H162   H     0.75815   0.31765   0.02567   0.00000  Uiso   1.00
H163   H     0.72879   0.15429   0.10649   0.00000  Uiso   1.00
H164   H     0.86044   0.30802   0.93810   0.00000  Uiso   1.00
H165   H     0.69807   0.49917   0.04753   0.00000  Uiso   1.00
H166   H     0.67605   0.95976   0.17221   0.00000  Uiso   1.00
H167   H     0.95364   0.28393   0.81714   0.00000  Uiso   1.00
H168   H     0.61127   0.68702   0.04789   0.00000  Uiso   1.00
H169   H     0.60251   0.21445   0.84170   0.00000  Uiso   1.00
H170   H     0.56460   0.04542   0.91243   0.00000  Uiso   1.00
H171   H     0.69625   0.19914   0.74404   0.00000  Uiso   1.00
H172   H     0.53389   0.39029   0.85347   0.00000  Uiso   1.00
H173   H     0.54279   0.87139   0.01470   0.00000  Uiso   1.00
H174   H     0.82038   0.19556   0.65963   0.00000  Uiso   1.00
H175   H     0.47801   0.59864   0.89039   0.00000  Uiso   1.00
O176   O     0.58731   0.80623   0.14329   0.00000  Uiso   1.00
O177   O     0.95149   0.23154   0.67746   0.00000  Uiso   1.00
O178   O     0.50231   0.76038   0.98020   0.00000  Uiso   1.00
N179   N     0.64988   0.96217   0.12544   0.00000  Uiso   1.00
N180   N     0.90941   0.26523   0.79348   0.00000  Uiso   1.00
N181   N     0.58933   0.64210   0.00920   0.00000  Uiso   1.00
N182   N     0.57817   0.91462   0.04068   0.00000  Uiso   1.00
N183   N     0.83771   0.21768   0.70872   0.00000  Uiso   1.00
N184   N     0.51763   0.59455   0.92444   0.00000  Uiso   1.00
C185   C     0.77751   0.79401   0.98353   0.00000  Uiso   1.00
C186   C     0.81505   0.69094   0.00193   0.00000  Uiso   1.00
C187   C     0.80667   0.63077   0.06461   0.00000  Uiso   1.00
C188   C     0.84575   0.53902   0.07125   0.00000  Uiso   1.00
C189   C     0.89705   0.38358   0.10804   0.00000  Uiso   1.00
C190   C     0.74352   0.77445   0.91044   0.00000  Uiso   1.00
C191   C     0.67499   0.78450   0.89620   0.00000  Uiso   1.00
C192   C     0.65387   0.76307   0.82581   0.00000  Uiso   1.00
C193   C     0.59412   0.73735   0.72056   0.00000  Uiso   1.00
C194   C     0.83174   0.87830   0.96990   0.00000  Uiso   1.00
C195   C     0.83738   0.97569   0.00564   0.00000  Uiso   1.00
C196   C     0.89052   0.04171   0.98530   0.00000  Uiso   1.00
C197   C     0.96774   0.17724   0.97237   0.00000  Uiso   1.00
C198   C     0.86183   0.73809   0.88385   0.00000  Uiso   1.00
C199   C     0.86085   0.66057   0.94779   0.00000  Uiso   1.00
C200   C     0.89996   0.56890   0.95433   0.00000  Uiso   1.00
C201   C     0.89164   0.50860   0.01701   0.00000  Uiso   1.00
C202   C     0.78932   0.74408   0.85630   0.00000  Uiso   1.00
C203   C     0.76829   0.72263   0.78592   0.00000  Uiso   1.00
C204   C     0.69975   0.73264   0.77158   0.00000  Uiso   1.00
C205   C     0.87754   0.84793   0.91576   0.00000  Uiso   1.00
C206   C     0.93067   0.91382   0.89537   0.00000  Uiso   1.00
C207   C     0.93640   0.01128   0.93107   0.00000  Uiso   1.00
H208   H     0.74185   0.81765   0.02567   0.00000  Uiso   1.00
H209   H     0.77121   0.65429   0.10649   0.00000  Uiso   1.00
H210   H     0.63956   0.80802   0.93810   0.00000  Uiso   1.00
H211   H     0.80193   0.99917   0.04753   0.00000  Uiso   1.00
H212   H     0.82395   0.45976   0.17221   0.00000  Uiso   1.00
H213   H     0.54636   0.78393   0.81714   0.00000  Uiso   1.00
H214   H     0.88873   0.18702   0.04789   0.00000  Uiso   1.00
H215   H     0.89749   0.71445   0.84170   0.00000  Uiso   1.00
H216   H     0.93540   0.54542   0.91243   0.00000  Uiso   1.00
H217   H     0.80375   0.69914   0.74404   0.00000  Uiso   1.00
H218   H     0.96611   0.89029   0.85347   0.00000  Uiso   1.00
H219   H     0.95721   0.37139   0.01470   0.00000  Uiso   1.00
H220   H     0.67962   0.69556   0.65963   0.00000  Uiso   1.00
H221   H     0.02199   0.09864   0.89039   0.00000  Uiso   1.00
O222   O     0.91269   0.30623   0.14329   0.00000  Uiso   1.00
O223   O     0.54851   0.73154   0.67746   0.00000  Uiso   1.00
O224   O     0.99769   0.26038   0.98020   0.00000  Uiso   1.00
N225   N     0.85012   0.46217   0.12544   0.00000  Uiso   1.00
N226   N     0.59059   0.76523   0.79348   0.00000  Uiso   1.00
N227   N     0.91067   0.14210   0.00920   0.00000  Uiso   1.00
N228   N     0.92183   0.41462   0.04068   0.00000  Uiso   1.00
N229   N     0.66229   0.71768   0.70872   0.00000  Uiso   1.00
N230   N     0.98237   0.09455   0.92444   0.00000  Uiso   1.00
C231   C     0.72249   0.70599   0.48353   0.00000  Uiso   1.00
C232   C     0.68495   0.80906   0.50193   0.00000  Uiso   1.00
C233   C     0.69333   0.86923   0.56461   0.00000  Uiso   1.00
C234   C     0.65425   0.96098   0.57125   0.00000  Uiso   1.00
C235   C     0.60295   0.11642   0.60804   0.00000  Uiso   1.00
C236   C     0.75648   0.72555   0.41044   0.00000  Uiso   1.00
C237   C     0.82501   0.71550   0.39620   0.00000  Uiso   1.00
C238   C     0.84613   0.73693   0.32581   0.00000  Uiso   1.00
C239   C     0.90588   0.76265   0.22056   0.00000  Uiso   1.00
C240   C     0.66826   0.62170   0.46990   0.00000  Uiso   1.00
C241   C     0.66262   0.52431   0.50564   0.00000  Uiso   1.00
C242   C     0.60948   0.45829   0.48530   0.00000  Uiso   1.00
C243   C     0.53226   0.32276   0.47237   0.00000  Uiso   1.00
C244   C     0.63817   0.76191   0.38385   0.00000  Uiso   1.00
C245   C     0.63915   0.83943   0.44779   0.00000  Uiso   1.00
C246   C     0.60004   0.93110   0.45433   0.00000  Uiso   1.00
C247   C     0.60836   0.99140   0.51701   0.00000  Uiso   1.00
C248   C     0.71068   0.75592   0.35630   0.00000  Uiso   1.00
C249   C     0.73171   0.77737   0.28592   0.00000  Uiso   1.00
C250   C     0.80025   0.76736   0.27158   0.00000  Uiso   1.00
C251   C     0.62246   0.65207   0.41576   0.00000  Uiso   1.00
C252   C     0.56933   0.58618   0.39537   0.00000  Uiso   1.00
C253   C     0.56360   0.48872   0.43107   0.00000  Uiso   1.00
H254   H     0.75815   0.68235   0.52567   0.00000  Uiso   1.00
H255   H     0.72879   0.84571   0.60649   0.00000  Uiso   1.00
H256   H     0.86044   0.69198   0.43810   0.00000  Uiso   1.00
H257   H     0.69807   0.50083   0.54753   0.00000  Uiso   1.00
H258   H     0.67605   0.04024   0.67221   0.00000  Uiso   1.00
H259   H     0.95364   0.71607   0.31714   0.00000  Uiso   1.00
H260   H     0.61127   0.31298   0.54789   0.00000  Uiso   1.00
H261   H     0.60251   0.78555   0.34170   0.00000  Uiso   1.00
H262   H     0.56460   0.95458   0.41243   0.00000  Uiso   1.00
H263   H     0.69625   0.80086   0.24404   0.00000  Uiso   1.00
H264   H     0.53389   0.60971   0.35347   0.00000  Uiso   1.00
H265   H     0.54279   0.12861   0.51470   0.00000  Uiso   1.00
H266   H     0.82038   0.80444   0.15963   0.00000  Uiso   1.00
H267   H     0.47801   0.40136   0.39039   0.00000  Uiso   1.00
O268   O     0.58731   0.19377   0.64329   0.00000  Uiso   1.00
O269   O     0.95149   0.76846   0.17746   0.00000  Uiso   1.00
O270   O     0.50231   0.23962   0.48020   0.00000  Uiso   1.00
N271   N     0.64988   0.03783   0.62544   0.00000  Uiso   1.00
N272   N     0.90941   0.73477   0.29348   0.00000  Uiso   1.00
N273   N     0.58933   0.35790   0.50920   0.00000  Uiso   1.00
N274   N     0.57817   0.08538   0.54068   0.00000  Uiso   1.00
N275   N     0.83771   0.78232   0.20872   0.00000  Uiso   1.00
N276   N     0.51763   0.40545   0.42444   0.00000  Uiso   1.00
C277   C     0.22249   0.79401   0.51647   0.00000  Uiso   1.00
C278   C     0.18495   0.69094   0.49807   0.00000  Uiso   1.00
C279   C     0.19333   0.63077   0.43539   0.00000  Uiso   1.00
C280   C     0.15425   0.53902   0.42875   0.00000  Uiso   1.00
C281   C     0.10295   0.38358   0.39196   0.00000  Uiso   1.00
C282   C     0.25648   0.77445   0.58956   0.00000  Uiso   1.00
C283   C     0.32501   0.78450   0.60380   0.00000  Uiso   1.00
C284   C     0.34613   0.76307   0.67419   0.00000  Uiso   1.00
C285   C     0.40588   0.73735   0.77944   0.00000  Uiso   1.00
C286   C     0.16826   0.87830   0.53010   0.00000  Uiso   1.00
C287   C     0.16262   0.97569   0.49436   0.00000  Uiso   1.00
C288   C     0.10948   0.04171   0.51470   0.00000  Uiso   1.00
C289   C     0.03226   0.17724   0.52763   0.00000  Uiso   1.00
C290   C     0.13817   0.73809   0.61615   0.00000  Uiso   1.00
C291   C     0.13915   0.66057   0.55221   0.00000  Uiso   1.00
C292   C     0.10004   0.56890   0.54567   0.00000  Uiso   1.00
C293   C     0.10836   0.50860   0.48299   0.00000  Uiso   1.00
C294   C     0.21068   0.74408   0.64370   0.00000  Uiso   1.00
C295   C     0.23171   0.72263   0.71408   0.00000  Uiso   1.00
C296   C     0.30025   0.73264   0.72842   0.00000  Uiso   1.00
C297   C     0.12246   0.84793   0.58424   0.00000  Uiso   1.00
C298   C     0.06933   0.91382   0.60463   0.00000  Uiso   1.00
C299   C     0.06360   0.01128   0.56893   0.00000  Uiso   1.00
H300   H     0.25815   0.81765   0.47433   0.00000  Uiso   1.00
H301   H     0.22879   0.65429   0.39351   0.00000  Uiso   1.00
H302   H     0.36044   0.80802   0.56190   0.00000  Uiso   1.00
H303   H     0.19807   0.99917   0.45247   0.00000  Uiso   1.00
H304   H     0.17605   0.45976   0.32779   0.00000  Uiso   1.00
H305   H     0.45364   0.78393   0.68286   0.00000  Uiso   1.00
H306   H     0.11127   0.18702   0.45211   0.00000  Uiso   1.00
H307   H     0.10251   0.71445   0.65830   0.00000  Uiso   1.00
H308   H     0.06460   0.54542   0.58757   0.00000  Uiso   1.00
H309   H     0.19625   0.69914   0.75596   0.00000  Uiso   1.00
H310   H     0.03389   0.89029   0.64653   0.00000  Uiso   1.00
H311   H     0.04279   0.37139   0.48530   0.00000  Uiso   1.00
H312   H     0.32038   0.69556   0.84037   0.00000  Uiso   1.00
H313   H     0.97801   0.09864   0.60961   0.00000  Uiso   1.00
O314   O     0.08731   0.30623   0.35671   0.00000  Uiso   1.00
O315   O     0.45149   0.73154   0.82254   0.00000  Uiso   1.00
O316   O     0.00231   0.26038   0.51980   0.00000  Uiso   1.00
N317   N     0.14988   0.46217   0.37456   0.00000  Uiso   1.00
N318   N     0.40941   0.76523   0.70652   0.00000  Uiso   1.00
N319   N     0.08933   0.14210   0.49080   0.00000  Uiso   1.00
N320   N     0.07817   0.41462   0.45932   0.00000  Uiso   1.00
N321   N     0.33771   0.71768   0.79128   0.00000  Uiso   1.00
N322   N     0.01763   0.09455   0.57556   0.00000  Uiso   1.00
C323   C     0.27751   0.70599   0.01647   0.00000  Uiso   1.00
C324   C     0.31505   0.80906   0.99807   0.00000  Uiso   1.00
C325   C     0.30667   0.86923   0.93539   0.00000  Uiso   1.00
C326   C     0.34575   0.96098   0.92875   0.00000  Uiso   1.00
C327   C     0.39705   0.11642   0.89196   0.00000  Uiso   1.00
C328   C     0.24352   0.72555   0.08956   0.00000  Uiso   1.00
C329   C     0.17499   0.71550   0.10380   0.00000  Uiso   1.00
C330   C     0.15387   0.73693   0.17419   0.00000  Uiso   1.00
C331   C     0.09412   0.76265   0.27944   0.00000  Uiso   1.00
C332   C     0.33174   0.62170   0.03010   0.00000  Uiso   1.00
C333   C     0.33738   0.52431   0.99436   0.00000  Uiso   1.00
C334   C     0.39052   0.45829   0.01470   0.00000  Uiso   1.00
C335   C     0.46774   0.32276   0.02763   0.00000  Uiso   1.00
C336   C     0.36183   0.76191   0.11615   0.00000  Uiso   1.00
C337   C     0.36085   0.83943   0.05221   0.00000  Uiso   1.00
C338   C     0.39996   0.93110   0.04567   0.00000  Uiso   1.00
C339   C     0.39164   0.99140   0.98299   0.00000  Uiso   1.00
C340   C     0.28932   0.75592   0.14370   0.00000  Uiso   1.00
C341   C     0.26829   0.77737   0.21408   0.00000  Uiso   1.00
C342   C     0.19975   0.76736   0.22842   0.00000  Uiso   1.00
C343   C     0.37754   0.65207   0.08424   0.00000  Uiso   1.00
C344   C     0.43067   0.58618   0.10463   0.00000  Uiso   1.00
C345   C     0.43640   0.48872   0.06893   0.00000  Uiso   1.00
H346   H     0.24185   0.68235   0.97433   0.00000  Uiso   1.00
H347   H     0.27121   0.84571   0.89351   0.00000  Uiso   1.00
H348   H     0.13956   0.69198   0.06190   0.00000  Uiso   1.00
H349   H     0.30193   0.50083   0.95247   0.00000  Uiso   1.00
H350   H     0.32395   0.04024   0.82779   0.00000  Uiso   1.00
H351   H     0.04636   0.71607   0.18286   0.00000  Uiso   1.00
H352   H     0.38873   0.31298   0.95211   0.00000  Uiso   1.00
H353   H     0.39749   0.78555   0.15830   0.00000  Uiso   1.00
H354   H     0.43540   0.95458   0.08757   0.00000  Uiso   1.00
H355   H     0.30375   0.80086   0.25596   0.00000  Uiso   1.00
H356   H     0.46611   0.60971   0.14653   0.00000  Uiso   1.00
H357   H     0.45721   0.12861   0.98530   0.00000  Uiso   1.00
H358   H     0.17962   0.80444   0.34037   0.00000  Uiso   1.00
H359   H     0.52199   0.40136   0.10961   0.00000  Uiso   1.00
O360   O     0.41269   0.19377   0.85671   0.00000  Uiso   1.00
O361   O     0.04851   0.76846   0.32254   0.00000  Uiso   1.00
O362   O     0.49769   0.23962   0.01980   0.00000  Uiso   1.00
N363   N     0.35012   0.03783   0.87456   0.00000  Uiso   1.00
N364   N     0.09059   0.73477   0.20652   0.00000  Uiso   1.00
N365   N     0.41067   0.35790   0.99080   0.00000  Uiso   1.00
N366   N     0.42183   0.08538   0.95932   0.00000  Uiso   1.00
N367   N     0.16229   0.78232   0.29128   0.00000  Uiso   1.00
N368   N     0.48237   0.40545   0.07556   0.00000  Uiso   1.00
