data_job_01950
_audit_creation_date              2018-12-19
_audit_creation_method            'Materials Studio'
_symmetry_space_group_name_H-M    'P1'
_symmetry_Int_Tables_number       1
_symmetry_cell_setting            triclinic
loop_
_symmetry_equiv_pos_as_xyz
  x,y,z
_cell_length_a                    12.7193
_cell_length_b                    11.5775
_cell_length_c                    37.4673
_cell_angle_alpha                 90.0000
_cell_angle_beta                  90.0000
_cell_angle_gamma                 90.0000
loop_
_atom_site_label
_atom_site_type_symbol
_atom_site_fract_x
_atom_site_fract_y
_atom_site_fract_z
_atom_site_U_iso_or_equiv
_atom_site_adp_type
_atom_site_occupancy
C1     C     0.68696   0.33612   0.87823   0.00000  Uiso   1.00
C2     C     0.70078   0.45843   0.86387   0.00000  Uiso   1.00
C3     C     0.66084   0.49992   0.83188   0.00000  Uiso   1.00
C4     C     0.68216   0.61438   0.82352   0.00000  Uiso   1.00
C5     C     0.69466   0.79358   0.79774   0.00000  Uiso   1.00
C6     C     0.79758   0.28970   0.88461   0.00000  Uiso   1.00
C7     C     0.83902   0.18932   0.87005   0.00000  Uiso   1.00
C8     C     0.94182   0.16174   0.87915   0.00000  Uiso   1.00
C9     C     0.10458   0.07894   0.88558   0.00000  Uiso   1.00
C10    C     0.63714   0.34897   0.91504   0.00000  Uiso   1.00
C11    C     0.54370   0.29840   0.92607   0.00000  Uiso   1.00
C12    C     0.51143   0.32070   0.96079   0.00000  Uiso   1.00
C13    C     0.42508   0.32992   0.01447   0.00000  Uiso   1.00
C14    C     0.79582   0.46561   0.92029   0.00000  Uiso   1.00
C15    C     0.75991   0.52876   0.88672   0.00000  Uiso   1.00
C16    C     0.78128   0.64319   0.87841   0.00000  Uiso   1.00
C17    C     0.74138   0.68485   0.84641   0.00000  Uiso   1.00
C18    C     0.85670   0.36003   0.90745   0.00000  Uiso   1.00
C19    C     0.95946   0.33259   0.91658   0.00000  Uiso   1.00
C20    C     0.00105   0.23220   0.90203   0.00000  Uiso   1.00
C21    C     0.69626   0.41931   0.93788   0.00000  Uiso   1.00
C22    C     0.66413   0.44168   0.97260   0.00000  Uiso   1.00
C23    C     0.57066   0.39116   0.98368   0.00000  Uiso   1.00
H24    H     0.64094   0.28136   0.86045   0.00000  Uiso   1.00
H25    H     0.61510   0.44546   0.81420   0.00000  Uiso   1.00
H26    H     0.79325   0.13490   0.85237   0.00000  Uiso   1.00
H27    H     0.49797   0.24398   0.90838   0.00000  Uiso   1.00
H28    H     0.61256   0.65840   0.77300   0.00000  Uiso   1.00
H29    H     0.98818   0.00355   0.85349   0.00000  Uiso   1.00
H30    H     0.36553   0.23355   0.97160   0.00000  Uiso   1.00
H31    H     0.84185   0.52037   0.93808   0.00000  Uiso   1.00
H32    H     0.82704   0.69760   0.89609   0.00000  Uiso   1.00
H33    H     0.00519   0.38704   0.93426   0.00000  Uiso   1.00
H34    H     0.70991   0.49611   0.99027   0.00000  Uiso   1.00
H35    H     0.78458   0.86305   0.83946   0.00000  Uiso   1.00
H36    H     0.16020   0.20819   0.91995   0.00000  Uiso   1.00
H37    H     0.53755   0.43820   0.03806   0.00000  Uiso   1.00
O38    O     0.68523   0.87299   0.77721   0.00000  Uiso   1.00
O39    O     0.17802   0.01384   0.88281   0.00000  Uiso   1.00
O40    O     0.36111   0.31560   0.03776   0.00000  Uiso   1.00
N41    N     0.65506   0.68225   0.79441   0.00000  Uiso   1.00
N42    N     0.00625   0.07001   0.86966   0.00000  Uiso   1.00
N43    N     0.42413   0.28502   0.98008   0.00000  Uiso   1.00
N44    N     0.74762   0.79237   0.83017   0.00000  Uiso   1.00
N45    N     0.09881   0.18013   0.90542   0.00000  Uiso   1.00
N46    N     0.51670   0.39514   0.01584   0.00000  Uiso   1.00
C47    C     0.41707   0.83687   0.12466   0.00000  Uiso   1.00
C48    C     0.40356   0.95873   0.13941   0.00000  Uiso   1.00
C49    C     0.44376   0.99909   0.17150   0.00000  Uiso   1.00
C50    C     0.42270   0.11332   0.18023   0.00000  Uiso   1.00
C51    C     0.41068   0.29169   0.20658   0.00000  Uiso   1.00
C52    C     0.30633   0.79089   0.11822   0.00000  Uiso   1.00
C53    C     0.26480   0.69013   0.13249   0.00000  Uiso   1.00
C54    C     0.16189   0.66306   0.12338   0.00000  Uiso   1.00
C55    C     0.99895   0.58082   0.11681   0.00000  Uiso   1.00
C56    C     0.46668   0.85082   0.08786   0.00000  Uiso   1.00
C57    C     0.55996   0.80041   0.07660   0.00000  Uiso   1.00
C58    C     0.59206   0.82378   0.04193   0.00000  Uiso   1.00
C59    C     0.67809   0.83458   0.98822   0.00000  Uiso   1.00
C60    C     0.30818   0.96796   0.08308   0.00000  Uiso   1.00
C61    C     0.34441   0.02993   0.11683   0.00000  Uiso   1.00
C62    C     0.32329   0.14413   0.12551   0.00000  Uiso   1.00
C63    C     0.36346   0.18465   0.15761   0.00000  Uiso   1.00
C64    C     0.24719   0.86209   0.09564   0.00000  Uiso   1.00
C65    C     0.14433   0.83516   0.08650   0.00000  Uiso   1.00
C66    C     0.10264   0.73439   0.10076   0.00000  Uiso   1.00
C67    C     0.40754   0.92202   0.06528   0.00000  Uiso   1.00
C68    C     0.43949   0.94546   0.03061   0.00000  Uiso   1.00
C69    C     0.53281   0.89511   0.01931   0.00000  Uiso   1.00
H70    H     0.46310   0.78143   0.14223   0.00000  Uiso   1.00
H71    H     0.48952   0.94396   0.18897   0.00000  Uiso   1.00
H72    H     0.31059   0.63504   0.14996   0.00000  Uiso   1.00
H73    H     0.60571   0.74532   0.09408   0.00000  Uiso   1.00
H74    H     0.49269   0.15554   0.23083   0.00000  Uiso   1.00
H75    H     0.11541   0.50414   0.14858   0.00000  Uiso   1.00
H76    H     0.73774   0.73668   0.03074   0.00000  Uiso   1.00
H77    H     0.26213   0.02340   0.06550   0.00000  Uiso   1.00
H78    H     0.27752   0.19921   0.10803   0.00000  Uiso   1.00
H79    H     0.09858   0.89028   0.06902   0.00000  Uiso   1.00
H80    H     0.39371   0.00056   0.01314   0.00000  Uiso   1.00
H81    H     0.32061   0.36271   0.16514   0.00000  Uiso   1.00
H82    H     0.94334   0.71131   0.08288   0.00000  Uiso   1.00
H83    H     0.56567   0.94385   0.96505   0.00000  Uiso   1.00
O84    O     0.42037   0.37040   0.22735   0.00000  Uiso   1.00
O85    O     0.92541   0.51578   0.11943   0.00000  Uiso   1.00
O86    O     0.74189   0.82088   0.96483   0.00000  Uiso   1.00
N87    N     0.45010   0.18017   0.20953   0.00000  Uiso   1.00
N88    N     0.09736   0.57117   0.13263   0.00000  Uiso   1.00
N89    N     0.67917   0.78855   0.02246   0.00000  Uiso   1.00
N90    N     0.35751   0.29165   0.17418   0.00000  Uiso   1.00
N91    N     0.00477   0.68265   0.09728   0.00000  Uiso   1.00
N92    N     0.58658   0.90003   0.98711   0.00000  Uiso   1.00
C93    C     0.31304   0.66388   0.37823   0.00000  Uiso   1.00
C94    C     0.29922   0.54157   0.36387   0.00000  Uiso   1.00
C95    C     0.33916   0.50008   0.33188   0.00000  Uiso   1.00
C96    C     0.31784   0.38562   0.32352   0.00000  Uiso   1.00
C97    C     0.30534   0.20642   0.29774   0.00000  Uiso   1.00
C98    C     0.20242   0.71030   0.38461   0.00000  Uiso   1.00
C99    C     0.16098   0.81068   0.37005   0.00000  Uiso   1.00
C100   C     0.05818   0.83826   0.37915   0.00000  Uiso   1.00
C101   C     0.89542   0.92106   0.38558   0.00000  Uiso   1.00
C102   C     0.36286   0.65103   0.41504   0.00000  Uiso   1.00
C103   C     0.45630   0.70160   0.42607   0.00000  Uiso   1.00
C104   C     0.48857   0.67930   0.46079   0.00000  Uiso   1.00
C105   C     0.57492   0.67008   0.51447   0.00000  Uiso   1.00
C106   C     0.20418   0.53439   0.42029   0.00000  Uiso   1.00
C107   C     0.24009   0.47124   0.38672   0.00000  Uiso   1.00
C108   C     0.21872   0.35681   0.37841   0.00000  Uiso   1.00
C109   C     0.25862   0.31515   0.34641   0.00000  Uiso   1.00
C110   C     0.14330   0.63997   0.40745   0.00000  Uiso   1.00
C111   C     0.04054   0.66741   0.41658   0.00000  Uiso   1.00
C112   C     0.99895   0.76780   0.40203   0.00000  Uiso   1.00
C113   C     0.30374   0.58069   0.43788   0.00000  Uiso   1.00
C114   C     0.33587   0.55832   0.47260   0.00000  Uiso   1.00
C115   C     0.42934   0.60884   0.48368   0.00000  Uiso   1.00
H116   H     0.35906   0.71864   0.36045   0.00000  Uiso   1.00
H117   H     0.38490   0.55454   0.31420   0.00000  Uiso   1.00
H118   H     0.20675   0.86510   0.35237   0.00000  Uiso   1.00
H119   H     0.50203   0.75602   0.40838   0.00000  Uiso   1.00
H120   H     0.38744   0.34160   0.27300   0.00000  Uiso   1.00
H121   H     0.01182   0.99645   0.35349   0.00000  Uiso   1.00
H122   H     0.63447   0.76645   0.47160   0.00000  Uiso   1.00
H123   H     0.15815   0.47963   0.43808   0.00000  Uiso   1.00
H124   H     0.17296   0.30240   0.39609   0.00000  Uiso   1.00
H125   H     0.99481   0.61296   0.43426   0.00000  Uiso   1.00
H126   H     0.29009   0.50389   0.49027   0.00000  Uiso   1.00
H127   H     0.21542   0.13695   0.33946   0.00000  Uiso   1.00
H128   H     0.83980   0.79181   0.41995   0.00000  Uiso   1.00
H129   H     0.46245   0.56180   0.53806   0.00000  Uiso   1.00
O130   O     0.31477   0.12701   0.27721   0.00000  Uiso   1.00
O131   O     0.82198   0.98616   0.38281   0.00000  Uiso   1.00
O132   O     0.63889   0.68440   0.53776   0.00000  Uiso   1.00
N133   N     0.34494   0.31775   0.29441   0.00000  Uiso   1.00
N134   N     0.99375   0.92999   0.36966   0.00000  Uiso   1.00
N135   N     0.57587   0.71498   0.48008   0.00000  Uiso   1.00
N136   N     0.25238   0.20763   0.33017   0.00000  Uiso   1.00
N137   N     0.90119   0.81987   0.40542   0.00000  Uiso   1.00
N138   N     0.48330   0.60486   0.51584   0.00000  Uiso   1.00
C139   C     0.58293   0.16313   0.62466   0.00000  Uiso   1.00
C140   C     0.59644   0.04127   0.63941   0.00000  Uiso   1.00
C141   C     0.55624   0.00091   0.67150   0.00000  Uiso   1.00
C142   C     0.57730   0.88668   0.68023   0.00000  Uiso   1.00
C143   C     0.58932   0.70831   0.70658   0.00000  Uiso   1.00
C144   C     0.69367   0.20911   0.61822   0.00000  Uiso   1.00
C145   C     0.73520   0.30987   0.63249   0.00000  Uiso   1.00
C146   C     0.83811   0.33694   0.62338   0.00000  Uiso   1.00
C147   C     0.00105   0.41918   0.61681   0.00000  Uiso   1.00
C148   C     0.53332   0.14918   0.58786   0.00000  Uiso   1.00
C149   C     0.44004   0.19959   0.57660   0.00000  Uiso   1.00
C150   C     0.40794   0.17622   0.54193   0.00000  Uiso   1.00
C151   C     0.32191   0.16542   0.48822   0.00000  Uiso   1.00
C152   C     0.69182   0.03204   0.58308   0.00000  Uiso   1.00
C153   C     0.65559   0.97007   0.61683   0.00000  Uiso   1.00
C154   C     0.67671   0.85587   0.62551   0.00000  Uiso   1.00
C155   C     0.63654   0.81535   0.65761   0.00000  Uiso   1.00
C156   C     0.75281   0.13791   0.59564   0.00000  Uiso   1.00
C157   C     0.85567   0.16484   0.58650   0.00000  Uiso   1.00
C158   C     0.89736   0.26561   0.60076   0.00000  Uiso   1.00
C159   C     0.59246   0.07798   0.56528   0.00000  Uiso   1.00
C160   C     0.56051   0.05454   0.53061   0.00000  Uiso   1.00
C161   C     0.46719   0.10489   0.51931   0.00000  Uiso   1.00
H162   H     0.53690   0.21857   0.64223   0.00000  Uiso   1.00
H163   H     0.51048   0.05604   0.68897   0.00000  Uiso   1.00
H164   H     0.68941   0.36496   0.64996   0.00000  Uiso   1.00
H165   H     0.39429   0.25468   0.59408   0.00000  Uiso   1.00
H166   H     0.50731   0.84446   0.73083   0.00000  Uiso   1.00
H167   H     0.88459   0.49586   0.64858   0.00000  Uiso   1.00
H168   H     0.26226   0.26332   0.53074   0.00000  Uiso   1.00
H169   H     0.73787   0.97660   0.56550   0.00000  Uiso   1.00
H170   H     0.72248   0.80079   0.60803   0.00000  Uiso   1.00
H171   H     0.90142   0.10972   0.56902   0.00000  Uiso   1.00
H172   H     0.60629   0.99944   0.51314   0.00000  Uiso   1.00
H173   H     0.67939   0.63729   0.66514   0.00000  Uiso   1.00
H174   H     0.05666   0.28869   0.58288   0.00000  Uiso   1.00
H175   H     0.43433   0.05615   0.46505   0.00000  Uiso   1.00
O176   O     0.57963   0.62960   0.72735   0.00000  Uiso   1.00
O177   O     0.07459   0.48422   0.61943   0.00000  Uiso   1.00
O178   O     0.25811   0.17912   0.46483   0.00000  Uiso   1.00
N179   N     0.54990   0.81983   0.70953   0.00000  Uiso   1.00
N180   N     0.90264   0.42883   0.63263   0.00000  Uiso   1.00
N181   N     0.32083   0.21145   0.52246   0.00000  Uiso   1.00
N182   N     0.64249   0.70835   0.67418   0.00000  Uiso   1.00
N183   N     0.99523   0.31735   0.59728   0.00000  Uiso   1.00
N184   N     0.41342   0.09997   0.48711   0.00000  Uiso   1.00
C185   C     0.18696   0.66388   0.87823   0.00000  Uiso   1.00
C186   C     0.20078   0.54157   0.86387   0.00000  Uiso   1.00
C187   C     0.16084   0.50008   0.83188   0.00000  Uiso   1.00
C188   C     0.18216   0.38562   0.82352   0.00000  Uiso   1.00
C189   C     0.19466   0.20642   0.79774   0.00000  Uiso   1.00
C190   C     0.29758   0.71030   0.88461   0.00000  Uiso   1.00
C191   C     0.33902   0.81068   0.87005   0.00000  Uiso   1.00
C192   C     0.44182   0.83826   0.87915   0.00000  Uiso   1.00
C193   C     0.60458   0.92106   0.88558   0.00000  Uiso   1.00
C194   C     0.13714   0.65103   0.91504   0.00000  Uiso   1.00
C195   C     0.04370   0.70160   0.92607   0.00000  Uiso   1.00
C196   C     0.01143   0.67930   0.96079   0.00000  Uiso   1.00
C197   C     0.92508   0.67008   0.01447   0.00000  Uiso   1.00
C198   C     0.29582   0.53439   0.92029   0.00000  Uiso   1.00
C199   C     0.25991   0.47124   0.88672   0.00000  Uiso   1.00
C200   C     0.28128   0.35681   0.87841   0.00000  Uiso   1.00
C201   C     0.24138   0.31515   0.84641   0.00000  Uiso   1.00
C202   C     0.35670   0.63997   0.90745   0.00000  Uiso   1.00
C203   C     0.45946   0.66741   0.91658   0.00000  Uiso   1.00
C204   C     0.50105   0.76780   0.90203   0.00000  Uiso   1.00
C205   C     0.19626   0.58069   0.93788   0.00000  Uiso   1.00
C206   C     0.16413   0.55832   0.97260   0.00000  Uiso   1.00
C207   C     0.07066   0.60884   0.98368   0.00000  Uiso   1.00
H208   H     0.14094   0.71864   0.86045   0.00000  Uiso   1.00
H209   H     0.11510   0.55454   0.81420   0.00000  Uiso   1.00
H210   H     0.29325   0.86510   0.85237   0.00000  Uiso   1.00
H211   H     0.99797   0.75602   0.90838   0.00000  Uiso   1.00
H212   H     0.11256   0.34160   0.77300   0.00000  Uiso   1.00
H213   H     0.48818   0.99645   0.85349   0.00000  Uiso   1.00
H214   H     0.86553   0.76645   0.97160   0.00000  Uiso   1.00
H215   H     0.34185   0.47963   0.93808   0.00000  Uiso   1.00
H216   H     0.32704   0.30240   0.89609   0.00000  Uiso   1.00
H217   H     0.50519   0.61296   0.93426   0.00000  Uiso   1.00
H218   H     0.20991   0.50389   0.99027   0.00000  Uiso   1.00
H219   H     0.28458   0.13695   0.83946   0.00000  Uiso   1.00
H220   H     0.66020   0.79181   0.91995   0.00000  Uiso   1.00
H221   H     0.03755   0.56180   0.03806   0.00000  Uiso   1.00
O222   O     0.18523   0.12701   0.77721   0.00000  Uiso   1.00
O223   O     0.67802   0.98616   0.88281   0.00000  Uiso   1.00
O224   O     0.86111   0.68440   0.03776   0.00000  Uiso   1.00
N225   N     0.15506   0.31775   0.79441   0.00000  Uiso   1.00
N226   N     0.50625   0.92999   0.86966   0.00000  Uiso   1.00
N227   N     0.92413   0.71498   0.98008   0.00000  Uiso   1.00
N228   N     0.24762   0.20763   0.83017   0.00000  Uiso   1.00
N229   N     0.59881   0.81987   0.90542   0.00000  Uiso   1.00
N230   N     0.01670   0.60486   0.01584   0.00000  Uiso   1.00
C231   C     0.91707   0.16313   0.12466   0.00000  Uiso   1.00
C232   C     0.90356   0.04127   0.13941   0.00000  Uiso   1.00
C233   C     0.94376   0.00091   0.17150   0.00000  Uiso   1.00
C234   C     0.92270   0.88668   0.18023   0.00000  Uiso   1.00
C235   C     0.91068   0.70831   0.20658   0.00000  Uiso   1.00
C236   C     0.80633   0.20911   0.11822   0.00000  Uiso   1.00
C237   C     0.76480   0.30987   0.13249   0.00000  Uiso   1.00
C238   C     0.66189   0.33694   0.12338   0.00000  Uiso   1.00
C239   C     0.49895   0.41918   0.11681   0.00000  Uiso   1.00
C240   C     0.96668   0.14918   0.08786   0.00000  Uiso   1.00
C241   C     0.05996   0.19959   0.07660   0.00000  Uiso   1.00
C242   C     0.09206   0.17622   0.04193   0.00000  Uiso   1.00
C243   C     0.17809   0.16542   0.98822   0.00000  Uiso   1.00
C244   C     0.80818   0.03204   0.08308   0.00000  Uiso   1.00
C245   C     0.84441   0.97007   0.11683   0.00000  Uiso   1.00
C246   C     0.82329   0.85587   0.12551   0.00000  Uiso   1.00
C247   C     0.86346   0.81535   0.15761   0.00000  Uiso   1.00
C248   C     0.74719   0.13791   0.09564   0.00000  Uiso   1.00
C249   C     0.64433   0.16484   0.08650   0.00000  Uiso   1.00
C250   C     0.60264   0.26561   0.10076   0.00000  Uiso   1.00
C251   C     0.90754   0.07798   0.06528   0.00000  Uiso   1.00
C252   C     0.93949   0.05454   0.03061   0.00000  Uiso   1.00
C253   C     0.03281   0.10489   0.01931   0.00000  Uiso   1.00
H254   H     0.96310   0.21857   0.14223   0.00000  Uiso   1.00
H255   H     0.98952   0.05604   0.18897   0.00000  Uiso   1.00
H256   H     0.81059   0.36496   0.14996   0.00000  Uiso   1.00
H257   H     0.10571   0.25468   0.09408   0.00000  Uiso   1.00
H258   H     0.99269   0.84446   0.23083   0.00000  Uiso   1.00
H259   H     0.61541   0.49586   0.14858   0.00000  Uiso   1.00
H260   H     0.23774   0.26332   0.03074   0.00000  Uiso   1.00
H261   H     0.76213   0.97660   0.06550   0.00000  Uiso   1.00
H262   H     0.77752   0.80079   0.10803   0.00000  Uiso   1.00
H263   H     0.59858   0.10972   0.06902   0.00000  Uiso   1.00
H264   H     0.89371   0.99944   0.01314   0.00000  Uiso   1.00
H265   H     0.82061   0.63729   0.16514   0.00000  Uiso   1.00
H266   H     0.44334   0.28869   0.08288   0.00000  Uiso   1.00
H267   H     0.06567   0.05615   0.96505   0.00000  Uiso   1.00
O268   O     0.92037   0.62960   0.22735   0.00000  Uiso   1.00
O269   O     0.42541   0.48422   0.11943   0.00000  Uiso   1.00
O270   O     0.24189   0.17912   0.96483   0.00000  Uiso   1.00
N271   N     0.95010   0.81983   0.20953   0.00000  Uiso   1.00
N272   N     0.59736   0.42883   0.13263   0.00000  Uiso   1.00
N273   N     0.17917   0.21145   0.02246   0.00000  Uiso   1.00
N274   N     0.85751   0.70835   0.17418   0.00000  Uiso   1.00
N275   N     0.50477   0.31735   0.09728   0.00000  Uiso   1.00
N276   N     0.08658   0.09997   0.98711   0.00000  Uiso   1.00
C277   C     0.81304   0.33612   0.37823   0.00000  Uiso   1.00
C278   C     0.79922   0.45843   0.36387   0.00000  Uiso   1.00
C279   C     0.83916   0.49992   0.33188   0.00000  Uiso   1.00
C280   C     0.81784   0.61438   0.32352   0.00000  Uiso   1.00
C281   C     0.80534   0.79358   0.29774   0.00000  Uiso   1.00
C282   C     0.70242   0.28970   0.38461   0.00000  Uiso   1.00
C283   C     0.66098   0.18932   0.37005   0.00000  Uiso   1.00
C284   C     0.55818   0.16174   0.37915   0.00000  Uiso   1.00
C285   C     0.39542   0.07894   0.38558   0.00000  Uiso   1.00
C286   C     0.86286   0.34897   0.41504   0.00000  Uiso   1.00
C287   C     0.95630   0.29840   0.42607   0.00000  Uiso   1.00
C288   C     0.98857   0.32070   0.46079   0.00000  Uiso   1.00
C289   C     0.07492   0.32992   0.51447   0.00000  Uiso   1.00
C290   C     0.70418   0.46561   0.42029   0.00000  Uiso   1.00
C291   C     0.74009   0.52876   0.38672   0.00000  Uiso   1.00
C292   C     0.71872   0.64319   0.37841   0.00000  Uiso   1.00
C293   C     0.75862   0.68485   0.34641   0.00000  Uiso   1.00
C294   C     0.64330   0.36003   0.40745   0.00000  Uiso   1.00
C295   C     0.54054   0.33259   0.41658   0.00000  Uiso   1.00
C296   C     0.49895   0.23220   0.40203   0.00000  Uiso   1.00
C297   C     0.80374   0.41931   0.43788   0.00000  Uiso   1.00
C298   C     0.83587   0.44168   0.47260   0.00000  Uiso   1.00
C299   C     0.92934   0.39116   0.48368   0.00000  Uiso   1.00
H300   H     0.85906   0.28136   0.36045   0.00000  Uiso   1.00
H301   H     0.88490   0.44546   0.31420   0.00000  Uiso   1.00
H302   H     0.70675   0.13490   0.35237   0.00000  Uiso   1.00
H303   H     0.00203   0.24398   0.40838   0.00000  Uiso   1.00
H304   H     0.88744   0.65840   0.27300   0.00000  Uiso   1.00
H305   H     0.51182   0.00355   0.35349   0.00000  Uiso   1.00
H306   H     0.13447   0.23355   0.47160   0.00000  Uiso   1.00
H307   H     0.65815   0.52037   0.43808   0.00000  Uiso   1.00
H308   H     0.67296   0.69760   0.39609   0.00000  Uiso   1.00
H309   H     0.49481   0.38704   0.43426   0.00000  Uiso   1.00
H310   H     0.79009   0.49611   0.49027   0.00000  Uiso   1.00
H311   H     0.71542   0.86305   0.33946   0.00000  Uiso   1.00
H312   H     0.33980   0.20819   0.41995   0.00000  Uiso   1.00
H313   H     0.96245   0.43820   0.53806   0.00000  Uiso   1.00
O314   O     0.81477   0.87299   0.27721   0.00000  Uiso   1.00
O315   O     0.32198   0.01384   0.38281   0.00000  Uiso   1.00
O316   O     0.13889   0.31560   0.53776   0.00000  Uiso   1.00
N317   N     0.84494   0.68225   0.29441   0.00000  Uiso   1.00
N318   N     0.49375   0.07001   0.36966   0.00000  Uiso   1.00
N319   N     0.07587   0.28502   0.48008   0.00000  Uiso   1.00
N320   N     0.75238   0.79237   0.33017   0.00000  Uiso   1.00
N321   N     0.40119   0.18013   0.40542   0.00000  Uiso   1.00
N322   N     0.98330   0.39514   0.51584   0.00000  Uiso   1.00
C323   C     0.08293   0.83687   0.62466   0.00000  Uiso   1.00
C324   C     0.09644   0.95873   0.63941   0.00000  Uiso   1.00
C325   C     0.05624   0.99909   0.67150   0.00000  Uiso   1.00
C326   C     0.07730   0.11332   0.68023   0.00000  Uiso   1.00
C327   C     0.08932   0.29169   0.70658   0.00000  Uiso   1.00
C328   C     0.19367   0.79089   0.61822   0.00000  Uiso   1.00
C329   C     0.23520   0.69013   0.63249   0.00000  Uiso   1.00
C330   C     0.33811   0.66306   0.62338   0.00000  Uiso   1.00
C331   C     0.50105   0.58082   0.61681   0.00000  Uiso   1.00
C332   C     0.03332   0.85082   0.58786   0.00000  Uiso   1.00
C333   C     0.94004   0.80041   0.57660   0.00000  Uiso   1.00
C334   C     0.90794   0.82378   0.54193   0.00000  Uiso   1.00
C335   C     0.82191   0.83458   0.48822   0.00000  Uiso   1.00
C336   C     0.19182   0.96796   0.58308   0.00000  Uiso   1.00
C337   C     0.15559   0.02993   0.61683   0.00000  Uiso   1.00
C338   C     0.17671   0.14413   0.62551   0.00000  Uiso   1.00
C339   C     0.13654   0.18465   0.65761   0.00000  Uiso   1.00
C340   C     0.25281   0.86209   0.59564   0.00000  Uiso   1.00
C341   C     0.35567   0.83516   0.58650   0.00000  Uiso   1.00
C342   C     0.39736   0.73439   0.60076   0.00000  Uiso   1.00
C343   C     0.09246   0.92202   0.56528   0.00000  Uiso   1.00
C344   C     0.06051   0.94546   0.53061   0.00000  Uiso   1.00
C345   C     0.96719   0.89511   0.51931   0.00000  Uiso   1.00
H346   H     0.03690   0.78143   0.64223   0.00000  Uiso   1.00
H347   H     0.01048   0.94396   0.68897   0.00000  Uiso   1.00
H348   H     0.18941   0.63504   0.64996   0.00000  Uiso   1.00
H349   H     0.89429   0.74532   0.59408   0.00000  Uiso   1.00
H350   H     0.00731   0.15554   0.73083   0.00000  Uiso   1.00
H351   H     0.38459   0.50414   0.64858   0.00000  Uiso   1.00
H352   H     0.76226   0.73668   0.53074   0.00000  Uiso   1.00
H353   H     0.23787   0.02340   0.56550   0.00000  Uiso   1.00
H354   H     0.22248   0.19921   0.60803   0.00000  Uiso   1.00
H355   H     0.40142   0.89028   0.56902   0.00000  Uiso   1.00
H356   H     0.10629   0.00056   0.51314   0.00000  Uiso   1.00
H357   H     0.17939   0.36271   0.66514   0.00000  Uiso   1.00
H358   H     0.55666   0.71131   0.58288   0.00000  Uiso   1.00
H359   H     0.93433   0.94385   0.46505   0.00000  Uiso   1.00
O360   O     0.07963   0.37040   0.72735   0.00000  Uiso   1.00
O361   O     0.57459   0.51578   0.61943   0.00000  Uiso   1.00
O362   O     0.75811   0.82088   0.46483   0.00000  Uiso   1.00
N363   N     0.04990   0.18017   0.70953   0.00000  Uiso   1.00
N364   N     0.40264   0.57117   0.63263   0.00000  Uiso   1.00
N365   N     0.82083   0.78855   0.52246   0.00000  Uiso   1.00
N366   N     0.14249   0.29165   0.67418   0.00000  Uiso   1.00
N367   N     0.49523   0.68265   0.59728   0.00000  Uiso   1.00
N368   N     0.91342   0.90003   0.48711   0.00000  Uiso   1.00
