data_job_02900
_audit_creation_date              2018-12-19
_audit_creation_method            'Materials Studio'
_symmetry_space_group_name_H-M    'P1'
_symmetry_Int_Tables_number       1
_symmetry_cell_setting            triclinic
loop_
_symmetry_equiv_pos_as_xyz
  x,y,z
_cell_length_a                    16.7492
_cell_length_b                    12.1045
_cell_length_c                    13.6532
_cell_angle_alpha                 90.0000
_cell_angle_beta                  107.3628
_cell_angle_gamma                 90.0000
loop_
_atom_site_label
_atom_site_type_symbol
_atom_site_fract_x
_atom_site_fract_y
_atom_site_fract_z
_atom_site_U_iso_or_equiv
_atom_site_adp_type
_atom_site_occupancy
C1     C     0.77678   0.47359   0.48770   0.00000  Uiso   1.00
C2     C     0.77306   0.57006   0.41464   0.00000  Uiso   1.00
C3     C     0.79906   0.67731   0.44326   0.00000  Uiso   1.00
C4     C     0.79045   0.75363   0.36487   0.00000  Uiso   1.00
C5     C     0.78972   0.90800   0.26714   0.00000  Uiso   1.00
C6     C     0.68770   0.42939   0.46273   0.00000  Uiso   1.00
C7     C     0.64192   0.41834   0.53179   0.00000  Uiso   1.00
C8     C     0.56145   0.37623   0.49389   0.00000  Uiso   1.00
C9     C     0.42821   0.31213   0.47084   0.00000  Uiso   1.00
C10    C     0.82743   0.38351   0.45545   0.00000  Uiso   1.00
C11    C     0.89914   0.33387   0.51839   0.00000  Uiso   1.00
C12    C     0.93632   0.25312   0.47436   0.00000  Uiso   1.00
C13    C     0.02003   0.11779   0.44000   0.00000  Uiso   1.00
C14    C     0.71528   0.41843   0.29760   0.00000  Uiso   1.00
C15    C     0.73965   0.54010   0.31139   0.00000  Uiso   1.00
C16    C     0.73101   0.61628   0.23294   0.00000  Uiso   1.00
C17    C     0.75699   0.72362   0.26143   0.00000  Uiso   1.00
C18    C     0.65428   0.39943   0.35948   0.00000  Uiso   1.00
C19    C     0.57387   0.35732   0.32147   0.00000  Uiso   1.00
C20    C     0.52798   0.34622   0.39045   0.00000  Uiso   1.00
C21    C     0.79403   0.35355   0.35219   0.00000  Uiso   1.00
C22    C     0.83109   0.27285   0.30806   0.00000  Uiso   1.00
C23    C     0.90284   0.22310   0.37092   0.00000  Uiso   1.00
H24    H     0.80279   0.49691   0.56808   0.00000  Uiso   1.00
H25    H     0.82490   0.70046   0.52317   0.00000  Uiso   1.00
H26    H     0.66780   0.44152   0.61169   0.00000  Uiso   1.00
H27    H     0.92498   0.35708   0.59828   0.00000  Uiso   1.00
H28    H     0.83466   0.91293   0.42785   0.00000  Uiso   1.00
H29    H     0.50340   0.36692   0.61450   0.00000  Uiso   1.00
H30    H     0.04572   0.18884   0.58623   0.00000  Uiso   1.00
H31    H     0.68926   0.39510   0.21721   0.00000  Uiso   1.00
H32    H     0.70515   0.59307   0.15304   0.00000  Uiso   1.00
H33    H     0.54804   0.33413   0.24156   0.00000  Uiso   1.00
H34    H     0.80522   0.24969   0.22816   0.00000  Uiso   1.00
H35    H     0.73746   0.82577   0.12743   0.00000  Uiso   1.00
H36    H     0.40620   0.27975   0.31410   0.00000  Uiso   1.00
H37    H     0.94851   0.10168   0.28582   0.00000  Uiso   1.00
O38    O     0.79853   0.00143   0.24176   0.00000  Uiso   1.00
O39    O     0.36394   0.28506   0.48666   0.00000  Uiso   1.00
O40    O     0.07545   0.05143   0.44956   0.00000  Uiso   1.00
N41    N     0.80962   0.86525   0.36595   0.00000  Uiso   1.00
N42    N     0.49990   0.35477   0.54046   0.00000  Uiso   1.00
N43    N     0.00691   0.18826   0.51404   0.00000  Uiso   1.00
N44    N     0.75731   0.81835   0.20430   0.00000  Uiso   1.00
N45    N     0.44760   0.30787   0.37881   0.00000  Uiso   1.00
N46    N     0.95461   0.14136   0.35239   0.00000  Uiso   1.00
C47    C     0.22322   0.97359   0.01230   0.00000  Uiso   1.00
C48    C     0.22694   0.07006   0.08536   0.00000  Uiso   1.00
C49    C     0.20094   0.17731   0.05674   0.00000  Uiso   1.00
C50    C     0.20955   0.25363   0.13513   0.00000  Uiso   1.00
C51    C     0.21028   0.40800   0.23286   0.00000  Uiso   1.00
C52    C     0.31230   0.92939   0.03727   0.00000  Uiso   1.00
C53    C     0.35808   0.91834   0.96821   0.00000  Uiso   1.00
C54    C     0.43855   0.87623   0.00611   0.00000  Uiso   1.00
C55    C     0.57179   0.81213   0.02916   0.00000  Uiso   1.00
C56    C     0.17257   0.88351   0.04455   0.00000  Uiso   1.00
C57    C     0.10086   0.83387   0.98161   0.00000  Uiso   1.00
C58    C     0.06368   0.75312   0.02564   0.00000  Uiso   1.00
C59    C     0.97997   0.61779   0.06000   0.00000  Uiso   1.00
C60    C     0.28472   0.91843   0.20240   0.00000  Uiso   1.00
C61    C     0.26035   0.04010   0.18861   0.00000  Uiso   1.00
C62    C     0.26899   0.11628   0.26706   0.00000  Uiso   1.00
C63    C     0.24301   0.22362   0.23857   0.00000  Uiso   1.00
C64    C     0.34572   0.89943   0.14052   0.00000  Uiso   1.00
C65    C     0.42613   0.85732   0.17853   0.00000  Uiso   1.00
C66    C     0.47202   0.84622   0.10955   0.00000  Uiso   1.00
C67    C     0.20597   0.85355   0.14781   0.00000  Uiso   1.00
C68    C     0.16891   0.77285   0.19194   0.00000  Uiso   1.00
C69    C     0.09716   0.72310   0.12908   0.00000  Uiso   1.00
H70    H     0.19721   0.99691   0.93192   0.00000  Uiso   1.00
H71    H     0.17510   0.20046   0.97683   0.00000  Uiso   1.00
H72    H     0.33220   0.94152   0.88831   0.00000  Uiso   1.00
H73    H     0.07502   0.85708   0.90172   0.00000  Uiso   1.00
H74    H     0.16534   0.41293   0.07215   0.00000  Uiso   1.00
H75    H     0.49660   0.86692   0.88550   0.00000  Uiso   1.00
H76    H     0.95428   0.68884   0.91377   0.00000  Uiso   1.00
H77    H     0.31074   0.89510   0.28279   0.00000  Uiso   1.00
H78    H     0.29485   0.09307   0.34696   0.00000  Uiso   1.00
H79    H     0.45196   0.83413   0.25844   0.00000  Uiso   1.00
H80    H     0.19478   0.74969   0.27184   0.00000  Uiso   1.00
H81    H     0.26254   0.32577   0.37257   0.00000  Uiso   1.00
H82    H     0.59380   0.77975   0.18590   0.00000  Uiso   1.00
H83    H     0.05149   0.60168   0.21418   0.00000  Uiso   1.00
O84    O     0.20147   0.50143   0.25824   0.00000  Uiso   1.00
O85    O     0.63606   0.78506   0.01334   0.00000  Uiso   1.00
O86    O     0.92455   0.55143   0.05044   0.00000  Uiso   1.00
N87    N     0.19038   0.36525   0.13405   0.00000  Uiso   1.00
N88    N     0.50010   0.85477   0.95954   0.00000  Uiso   1.00
N89    N     0.99309   0.68826   0.98596   0.00000  Uiso   1.00
N90    N     0.24269   0.31835   0.29570   0.00000  Uiso   1.00
N91    N     0.55240   0.80787   0.12119   0.00000  Uiso   1.00
N92    N     0.04539   0.64136   0.14761   0.00000  Uiso   1.00
C93    C     0.22322   0.52641   0.51230   0.00000  Uiso   1.00
C94    C     0.22694   0.42994   0.58536   0.00000  Uiso   1.00
C95    C     0.20094   0.32269   0.55674   0.00000  Uiso   1.00
C96    C     0.20955   0.24637   0.63513   0.00000  Uiso   1.00
C97    C     0.21028   0.09200   0.73286   0.00000  Uiso   1.00
C98    C     0.31230   0.57061   0.53727   0.00000  Uiso   1.00
C99    C     0.35808   0.58166   0.46821   0.00000  Uiso   1.00
C100   C     0.43855   0.62377   0.50611   0.00000  Uiso   1.00
C101   C     0.57179   0.68787   0.52916   0.00000  Uiso   1.00
C102   C     0.17257   0.61649   0.54455   0.00000  Uiso   1.00
C103   C     0.10086   0.66613   0.48161   0.00000  Uiso   1.00
C104   C     0.06368   0.74688   0.52564   0.00000  Uiso   1.00
C105   C     0.97997   0.88221   0.56000   0.00000  Uiso   1.00
C106   C     0.28472   0.58157   0.70240   0.00000  Uiso   1.00
C107   C     0.26035   0.45990   0.68861   0.00000  Uiso   1.00
C108   C     0.26899   0.38372   0.76706   0.00000  Uiso   1.00
C109   C     0.24301   0.27638   0.73857   0.00000  Uiso   1.00
C110   C     0.34572   0.60057   0.64052   0.00000  Uiso   1.00
C111   C     0.42613   0.64268   0.67853   0.00000  Uiso   1.00
C112   C     0.47202   0.65378   0.60955   0.00000  Uiso   1.00
C113   C     0.20597   0.64645   0.64781   0.00000  Uiso   1.00
C114   C     0.16891   0.72715   0.69194   0.00000  Uiso   1.00
C115   C     0.09716   0.77690   0.62908   0.00000  Uiso   1.00
H116   H     0.19721   0.50309   0.43192   0.00000  Uiso   1.00
H117   H     0.17510   0.29954   0.47683   0.00000  Uiso   1.00
H118   H     0.33220   0.55848   0.38831   0.00000  Uiso   1.00
H119   H     0.07502   0.64292   0.40172   0.00000  Uiso   1.00
H120   H     0.16534   0.08707   0.57215   0.00000  Uiso   1.00
H121   H     0.49660   0.63308   0.38550   0.00000  Uiso   1.00
H122   H     0.95428   0.81116   0.41377   0.00000  Uiso   1.00
H123   H     0.31074   0.60490   0.78279   0.00000  Uiso   1.00
H124   H     0.29485   0.40693   0.84696   0.00000  Uiso   1.00
H125   H     0.45196   0.66587   0.75844   0.00000  Uiso   1.00
H126   H     0.19478   0.75031   0.77184   0.00000  Uiso   1.00
H127   H     0.26254   0.17423   0.87257   0.00000  Uiso   1.00
H128   H     0.59380   0.72025   0.68590   0.00000  Uiso   1.00
H129   H     0.05149   0.89832   0.71418   0.00000  Uiso   1.00
O130   O     0.20147   0.99857   0.75824   0.00000  Uiso   1.00
O131   O     0.63606   0.71494   0.51334   0.00000  Uiso   1.00
O132   O     0.92455   0.94857   0.55044   0.00000  Uiso   1.00
N133   N     0.19038   0.13475   0.63405   0.00000  Uiso   1.00
N134   N     0.50010   0.64523   0.45954   0.00000  Uiso   1.00
N135   N     0.99309   0.81174   0.48596   0.00000  Uiso   1.00
N136   N     0.24269   0.18165   0.79570   0.00000  Uiso   1.00
N137   N     0.55240   0.69213   0.62119   0.00000  Uiso   1.00
N138   N     0.04539   0.85864   0.64761   0.00000  Uiso   1.00
C139   C     0.77678   0.02641   0.98770   0.00000  Uiso   1.00
C140   C     0.77306   0.92994   0.91464   0.00000  Uiso   1.00
C141   C     0.79906   0.82269   0.94326   0.00000  Uiso   1.00
C142   C     0.79045   0.74637   0.86487   0.00000  Uiso   1.00
C143   C     0.78972   0.59200   0.76714   0.00000  Uiso   1.00
C144   C     0.68770   0.07061   0.96273   0.00000  Uiso   1.00
C145   C     0.64192   0.08166   0.03179   0.00000  Uiso   1.00
C146   C     0.56145   0.12377   0.99389   0.00000  Uiso   1.00
C147   C     0.42821   0.18787   0.97084   0.00000  Uiso   1.00
C148   C     0.82743   0.11649   0.95545   0.00000  Uiso   1.00
C149   C     0.89914   0.16613   0.01839   0.00000  Uiso   1.00
C150   C     0.93632   0.24688   0.97436   0.00000  Uiso   1.00
C151   C     0.02003   0.38221   0.94000   0.00000  Uiso   1.00
C152   C     0.71528   0.08157   0.79760   0.00000  Uiso   1.00
C153   C     0.73965   0.95990   0.81139   0.00000  Uiso   1.00
C154   C     0.73101   0.88372   0.73294   0.00000  Uiso   1.00
C155   C     0.75699   0.77638   0.76143   0.00000  Uiso   1.00
C156   C     0.65428   0.10057   0.85948   0.00000  Uiso   1.00
C157   C     0.57387   0.14268   0.82147   0.00000  Uiso   1.00
C158   C     0.52798   0.15378   0.89045   0.00000  Uiso   1.00
C159   C     0.79403   0.14645   0.85219   0.00000  Uiso   1.00
C160   C     0.83109   0.22715   0.80806   0.00000  Uiso   1.00
C161   C     0.90284   0.27690   0.87092   0.00000  Uiso   1.00
H162   H     0.80279   0.00309   0.06808   0.00000  Uiso   1.00
H163   H     0.82490   0.79954   0.02317   0.00000  Uiso   1.00
H164   H     0.66780   0.05848   0.11169   0.00000  Uiso   1.00
H165   H     0.92498   0.14292   0.09828   0.00000  Uiso   1.00
H166   H     0.83466   0.58707   0.92785   0.00000  Uiso   1.00
H167   H     0.50340   0.13308   0.11450   0.00000  Uiso   1.00
H168   H     0.04572   0.31116   0.08623   0.00000  Uiso   1.00
H169   H     0.68926   0.10490   0.71721   0.00000  Uiso   1.00
H170   H     0.70515   0.90693   0.65304   0.00000  Uiso   1.00
H171   H     0.54804   0.16587   0.74156   0.00000  Uiso   1.00
H172   H     0.80522   0.25031   0.72816   0.00000  Uiso   1.00
H173   H     0.73746   0.67423   0.62743   0.00000  Uiso   1.00
H174   H     0.40620   0.22025   0.81410   0.00000  Uiso   1.00
H175   H     0.94851   0.39832   0.78582   0.00000  Uiso   1.00
O176   O     0.79853   0.49857   0.74176   0.00000  Uiso   1.00
O177   O     0.36394   0.21494   0.98666   0.00000  Uiso   1.00
O178   O     0.07545   0.44857   0.94956   0.00000  Uiso   1.00
N179   N     0.80962   0.63475   0.86595   0.00000  Uiso   1.00
N180   N     0.49990   0.14523   0.04046   0.00000  Uiso   1.00
N181   N     0.00691   0.31174   0.01404   0.00000  Uiso   1.00
N182   N     0.75731   0.68165   0.70430   0.00000  Uiso   1.00
N183   N     0.44760   0.19213   0.87881   0.00000  Uiso   1.00
N184   N     0.95461   0.35864   0.85239   0.00000  Uiso   1.00
