data_job_06178
_audit_creation_date              2018-12-19
_audit_creation_method            'Materials Studio'
_symmetry_space_group_name_H-M    'P1'
_symmetry_Int_Tables_number       1
_symmetry_cell_setting            triclinic
loop_
_symmetry_equiv_pos_as_xyz
  x,y,z
_cell_length_a                    18.4793
_cell_length_b                    18.5082
_cell_length_c                    18.6099
_cell_angle_alpha                 109.6010
_cell_angle_beta                  70.6486
_cell_angle_gamma                 71.1013
loop_
_atom_site_label
_atom_site_type_symbol
_atom_site_fract_x
_atom_site_fract_y
_atom_site_fract_z
_atom_site_U_iso_or_equiv
_atom_site_adp_type
_atom_site_occupancy
C1     C     0.19242   0.84895   0.30754   0.00000  Uiso   1.00
C2     C     0.25849   0.78432   0.21052   0.00000  Uiso   1.00
C3     C     0.23807   0.75157   0.14567   0.00000  Uiso   1.00
C4     C     0.30793   0.69310   0.06086   0.00000  Uiso   1.00
C5     C     0.39728   0.59648   0.91314   0.00000  Uiso   1.00
C6     C     0.21945   0.80439   0.35703   0.00000  Uiso   1.00
C7     C     0.16619   0.78853   0.41537   0.00000  Uiso   1.00
C8     C     0.20320   0.74697   0.45390   0.00000  Uiso   1.00
C9     C     0.23191   0.68157   0.53368   0.00000  Uiso   1.00
C10    C     0.20924   0.92688   0.33089   0.00000  Uiso   1.00
C11    C     0.14739   0.01402   0.36728   0.00000  Uiso   1.00
C12    C     0.17579   0.07558   0.38382   0.00000  Uiso   1.00
C13    C     0.18865   0.20036   0.42302   0.00000  Uiso   1.00
C14    C     0.35283   0.80335   0.27226   0.00000  Uiso   1.00
C15    C     0.34562   0.75955   0.19136   0.00000  Uiso   1.00
C16    C     0.41554   0.70112   0.10663   0.00000  Uiso   1.00
C17    C     0.39522   0.66829   0.04166   0.00000  Uiso   1.00
C18    C     0.30657   0.77963   0.33787   0.00000  Uiso   1.00
C19    C     0.34367   0.73808   0.37632   0.00000  Uiso   1.00
C20    C     0.29048   0.72216   0.43470   0.00000  Uiso   1.00
C21    C     0.29637   0.90211   0.31173   0.00000  Uiso   1.00
C22    C     0.32487   0.96356   0.32823   0.00000  Uiso   1.00
C23    C     0.26307   0.05077   0.36462   0.00000  Uiso   1.00
H24    H     0.12458   0.86823   0.32247   0.00000  Uiso   1.00
H25    H     0.17063   0.77075   0.16053   0.00000  Uiso   1.00
H26    H     0.09877   0.80771   0.43019   0.00000  Uiso   1.00
H27    H     0.07997   0.03316   0.38210   0.00000  Uiso   1.00
H28    H     0.26011   0.65172   0.97254   0.00000  Uiso   1.00
H29    H     0.10857   0.72969   0.54116   0.00000  Uiso   1.00
H30    H     0.06893   0.20509   0.43975   0.00000  Uiso   1.00
H31    H     0.42066   0.78407   0.25734   0.00000  Uiso   1.00
H32    H     0.48295   0.68196   0.09181   0.00000  Uiso   1.00
H33    H     0.41109   0.71893   0.36148   0.00000  Uiso   1.00
H34    H     0.39229   0.94437   0.31339   0.00000  Uiso   1.00
H35    H     0.51360   0.57965   0.91677   0.00000  Uiso   1.00
H36    H     0.36206   0.65763   0.48540   0.00000  Uiso   1.00
H37    H     0.32243   0.13302   0.38398   0.00000  Uiso   1.00
O38    O     0.42249   0.55001   0.83695   0.00000  Uiso   1.00
O39    O     0.22368   0.65233   0.58297   0.00000  Uiso   1.00
O40    O     0.17167   0.27603   0.44992   0.00000  Uiso   1.00
N41    N     0.31122   0.64879   0.98213   0.00000  Uiso   1.00
N42    N     0.16955   0.72167   0.51374   0.00000  Uiso   1.00
N43    N     0.13248   0.16613   0.41896   0.00000  Uiso   1.00
N44    N     0.44762   0.61001   0.95212   0.00000  Uiso   1.00
N45    N     0.30595   0.68290   0.48373   0.00000  Uiso   1.00
N46    N     0.26888   0.12735   0.38895   0.00000  Uiso   1.00
C47    C     0.49994   0.69213   0.54140   0.00000  Uiso   1.00
C48    C     0.46937   0.78965   0.57362   0.00000  Uiso   1.00
C49    C     0.38458   0.85403   0.60559   0.00000  Uiso   1.00
C50    C     0.36991   0.93943   0.63178   0.00000  Uiso   1.00
C51    C     0.31214   0.08778   0.68261   0.00000  Uiso   1.00
C52    C     0.57611   0.64323   0.44784   0.00000  Uiso   1.00
C53    C     0.58108   0.58448   0.37406   0.00000  Uiso   1.00
C54    C     0.65628   0.54662   0.29437   0.00000  Uiso   1.00
C55    C     0.76426   0.46760   0.14994   0.00000  Uiso   1.00
C56    C     0.53984   0.66899   0.59566   0.00000  Uiso   1.00
C57    C     0.51431   0.63189   0.64615   0.00000  Uiso   1.00
C58    C     0.55899   0.61570   0.69091   0.00000  Uiso   1.00
C59    C     0.61064   0.57668   0.77599   0.00000  Uiso   1.00
C60    C     0.62468   0.72932   0.53107   0.00000  Uiso   1.00
C61    C     0.53712   0.80985   0.56800   0.00000  Uiso   1.00
C62    C     0.52259   0.89518   0.59416   0.00000  Uiso   1.00
C63    C     0.43779   0.95967   0.62616   0.00000  Uiso   1.00
C64    C     0.64387   0.66343   0.44222   0.00000  Uiso   1.00
C65    C     0.71909   0.62564   0.36263   0.00000  Uiso   1.00
C66    C     0.72416   0.56686   0.28875   0.00000  Uiso   1.00
C67    C     0.60759   0.68920   0.59005   0.00000  Uiso   1.00
C68    C     0.65232   0.67305   0.63472   0.00000  Uiso   1.00
C69    C     0.62687   0.63593   0.68528   0.00000  Uiso   1.00
H70    H     0.44720   0.67639   0.54577   0.00000  Uiso   1.00
H71    H     0.33216   0.83836   0.60991   0.00000  Uiso   1.00
H72    H     0.52864   0.56886   0.37842   0.00000  Uiso   1.00
H73    H     0.46188   0.61626   0.65048   0.00000  Uiso   1.00
H74    H     0.23451   0.02684   0.67853   0.00000  Uiso   1.00
H75    H     0.64880   0.45855   0.19042   0.00000  Uiso   1.00
H76    H     0.50803   0.55851   0.76411   0.00000  Uiso   1.00
H77    H     0.67744   0.74505   0.52670   0.00000  Uiso   1.00
H78    H     0.57503   0.91079   0.58981   0.00000  Uiso   1.00
H79    H     0.77151   0.64129   0.35831   0.00000  Uiso   1.00
H80    H     0.70475   0.68869   0.63037   0.00000  Uiso   1.00
H81    H     0.43163   0.08563   0.66220   0.00000  Uiso   1.00
H82    H     0.84593   0.51733   0.17409   0.00000  Uiso   1.00
H83    H     0.70516   0.61730   0.74778   0.00000  Uiso   1.00
O84    O     0.26156   0.16402   0.71219   0.00000  Uiso   1.00
O85    O     0.80510   0.41843   0.07182   0.00000  Uiso   1.00
O86    O     0.62041   0.54958   0.82448   0.00000  Uiso   1.00
N87    N     0.29495   0.01793   0.66604   0.00000  Uiso   1.00
N88    N     0.68228   0.48663   0.20969   0.00000  Uiso   1.00
N89    N     0.55069   0.58006   0.74602   0.00000  Uiso   1.00
N90    N     0.40102   0.04957   0.65726   0.00000  Uiso   1.00
N91    N     0.78835   0.51826   0.20091   0.00000  Uiso   1.00
N92    N     0.65676   0.61169   0.73723   0.00000  Uiso   1.00
C93    C     0.04139   0.45850   0.15086   0.00000  Uiso   1.00
C94    C     0.04287   0.42592   0.21581   0.00000  Uiso   1.00
C95    C     0.99013   0.39295   0.24807   0.00000  Uiso   1.00
C96    C     0.00148   0.36659   0.30695   0.00000  Uiso   1.00
C97    C     0.99432   0.31507   0.40393   0.00000  Uiso   1.00
C98    C     0.02429   0.55269   0.19527   0.00000  Uiso   1.00
C99    C     0.95594   0.62630   0.21026   0.00000  Uiso   1.00
C100   C     0.95166   0.70665   0.25185   0.00000  Uiso   1.00
C101   C     0.91571   0.85193   0.31689   0.00000  Uiso   1.00
C102   C     0.13509   0.40499   0.07384   0.00000  Uiso   1.00
C103   C     0.15990   0.35443   0.98672   0.00000  Uiso   1.00
C104   C     0.24891   0.31043   0.92607   0.00000  Uiso   1.00
C105   C     0.38499   0.22638   0.80258   0.00000  Uiso   1.00
C106   C     0.15533   0.47031   0.19806   0.00000  Uiso   1.00
C107   C     0.10475   0.43234   0.24144   0.00000  Uiso   1.00
C108   C     0.11619   0.40601   0.30029   0.00000  Uiso   1.00
C109   C     0.06348   0.37301   0.33263   0.00000  Uiso   1.00
C110   C     0.08618   0.55911   0.22091   0.00000  Uiso   1.00
C111   C     0.08200   0.63936   0.26248   0.00000  Uiso   1.00
C112   C     0.01366   0.71307   0.27753   0.00000  Uiso   1.00
C113   C     0.19698   0.41140   0.09948   0.00000  Uiso   1.00
C114   C     0.28597   0.36748   0.03895   0.00000  Uiso   1.00
C115   C     0.31091   0.31686   0.95175   0.00000  Uiso   1.00
H116   H     0.99320   0.45352   0.13090   0.00000  Uiso   1.00
H117   H     0.94223   0.38801   0.22822   0.00000  Uiso   1.00
H118   H     0.90806   0.62132   0.19040   0.00000  Uiso   1.00
H119   H     0.11199   0.34948   0.96691   0.00000  Uiso   1.00
H120   H     0.91299   0.31824   0.34745   0.00000  Uiso   1.00
H121   H     0.84096   0.81018   0.26769   0.00000  Uiso   1.00
H122   H     0.27098   0.23696   0.79640   0.00000  Uiso   1.00
H123   H     0.20352   0.47530   0.21802   0.00000  Uiso   1.00
H124   H     0.16409   0.41098   0.32012   0.00000  Uiso   1.00
H125   H     0.12991   0.64429   0.28230   0.00000  Uiso   1.00
H126   H     0.33384   0.37246   0.05881   0.00000  Uiso   1.00
H127   H     0.09306   0.33689   0.42204   0.00000  Uiso   1.00
H128   H     0.02102   0.82883   0.34228   0.00000  Uiso   1.00
H129   H     0.45104   0.25561   0.87099   0.00000  Uiso   1.00
O130   O     0.97327   0.28490   0.45036   0.00000  Uiso   1.00
O131   O     0.87877   0.93030   0.34570   0.00000  Uiso   1.00
O132   O     0.44295   0.17824   0.72739   0.00000  Uiso   1.00
N133   N     0.96080   0.33144   0.35097   0.00000  Uiso   1.00
N134   N     0.89343   0.79138   0.27642   0.00000  Uiso   1.00
N135   N     0.29547   0.25548   0.83580   0.00000  Uiso   1.00
N136   N     0.05769   0.34148   0.39111   0.00000  Uiso   1.00
N137   N     0.99032   0.80141   0.31655   0.00000  Uiso   1.00
N138   N     0.39236   0.26552   0.87594   0.00000  Uiso   1.00
C139   C     0.80758   0.15105   0.69246   0.00000  Uiso   1.00
C140   C     0.74151   0.21568   0.78948   0.00000  Uiso   1.00
C141   C     0.76193   0.24843   0.85433   0.00000  Uiso   1.00
C142   C     0.69207   0.30690   0.93914   0.00000  Uiso   1.00
C143   C     0.60272   0.40352   0.08686   0.00000  Uiso   1.00
C144   C     0.78055   0.19561   0.64297   0.00000  Uiso   1.00
C145   C     0.83381   0.21147   0.58463   0.00000  Uiso   1.00
C146   C     0.79680   0.25303   0.54611   0.00000  Uiso   1.00
C147   C     0.76809   0.31843   0.46632   0.00000  Uiso   1.00
C148   C     0.79076   0.07312   0.66911   0.00000  Uiso   1.00
C149   C     0.85261   0.98598   0.63272   0.00000  Uiso   1.00
C150   C     0.82421   0.92442   0.61618   0.00000  Uiso   1.00
C151   C     0.81135   0.79964   0.57698   0.00000  Uiso   1.00
C152   C     0.64718   0.19665   0.72774   0.00000  Uiso   1.00
C153   C     0.65438   0.24045   0.80864   0.00000  Uiso   1.00
C154   C     0.58446   0.29888   0.89337   0.00000  Uiso   1.00
C155   C     0.60478   0.33171   0.95834   0.00000  Uiso   1.00
C156   C     0.69343   0.22037   0.66213   0.00000  Uiso   1.00
C157   C     0.65633   0.26192   0.62368   0.00000  Uiso   1.00
C158   C     0.70952   0.27784   0.56530   0.00000  Uiso   1.00
C159   C     0.70363   0.09789   0.68827   0.00000  Uiso   1.00
C160   C     0.67514   0.03644   0.67177   0.00000  Uiso   1.00
C161   C     0.73693   0.94923   0.63538   0.00000  Uiso   1.00
H162   H     0.87542   0.13177   0.67753   0.00000  Uiso   1.00
H163   H     0.82937   0.22925   0.83947   0.00000  Uiso   1.00
H164   H     0.90123   0.19229   0.56981   0.00000  Uiso   1.00
H165   H     0.92003   0.96684   0.61790   0.00000  Uiso   1.00
H166   H     0.73989   0.34828   0.02746   0.00000  Uiso   1.00
H167   H     0.89143   0.27031   0.45884   0.00000  Uiso   1.00
H168   H     0.93107   0.79491   0.56025   0.00000  Uiso   1.00
H169   H     0.57934   0.21593   0.74266   0.00000  Uiso   1.00
H170   H     0.51705   0.31804   0.90819   0.00000  Uiso   1.00
H171   H     0.58891   0.28107   0.63852   0.00000  Uiso   1.00
H172   H     0.60771   0.05563   0.68661   0.00000  Uiso   1.00
H173   H     0.48640   0.42035   0.08323   0.00000  Uiso   1.00
H174   H     0.63794   0.34237   0.51460   0.00000  Uiso   1.00
H175   H     0.67758   0.86698   0.61602   0.00000  Uiso   1.00
O176   O     0.57751   0.44999   0.16305   0.00000  Uiso   1.00
O177   O     0.77632   0.34767   0.41703   0.00000  Uiso   1.00
O178   O     0.82833   0.72397   0.55008   0.00000  Uiso   1.00
N179   N     0.68878   0.35122   0.01787   0.00000  Uiso   1.00
N180   N     0.83045   0.27833   0.48626   0.00000  Uiso   1.00
N181   N     0.86752   0.83387   0.58104   0.00000  Uiso   1.00
N182   N     0.55238   0.38999   0.04788   0.00000  Uiso   1.00
N183   N     0.69405   0.31710   0.51627   0.00000  Uiso   1.00
N184   N     0.73112   0.87265   0.61105   0.00000  Uiso   1.00
C185   C     0.50006   0.30787   0.45860   0.00000  Uiso   1.00
C186   C     0.53063   0.21035   0.42638   0.00000  Uiso   1.00
C187   C     0.61542   0.14597   0.39441   0.00000  Uiso   1.00
C188   C     0.63009   0.06057   0.36822   0.00000  Uiso   1.00
C189   C     0.68786   0.91222   0.31739   0.00000  Uiso   1.00
C190   C     0.42389   0.35677   0.55216   0.00000  Uiso   1.00
C191   C     0.41892   0.41552   0.62594   0.00000  Uiso   1.00
C192   C     0.34372   0.45338   0.70563   0.00000  Uiso   1.00
C193   C     0.23574   0.53240   0.85006   0.00000  Uiso   1.00
C194   C     0.46016   0.33101   0.40434   0.00000  Uiso   1.00
C195   C     0.48569   0.36811   0.35385   0.00000  Uiso   1.00
C196   C     0.44101   0.38430   0.30909   0.00000  Uiso   1.00
C197   C     0.38936   0.42333   0.22401   0.00000  Uiso   1.00
C198   C     0.37532   0.27068   0.46893   0.00000  Uiso   1.00
C199   C     0.46288   0.19015   0.43200   0.00000  Uiso   1.00
C200   C     0.47741   0.10482   0.40584   0.00000  Uiso   1.00
C201   C     0.56221   0.04033   0.37384   0.00000  Uiso   1.00
C202   C     0.35613   0.33657   0.55778   0.00000  Uiso   1.00
C203   C     0.28091   0.37436   0.63737   0.00000  Uiso   1.00
C204   C     0.27584   0.43314   0.71125   0.00000  Uiso   1.00
C205   C     0.39241   0.31080   0.40995   0.00000  Uiso   1.00
C206   C     0.34768   0.32695   0.36528   0.00000  Uiso   1.00
C207   C     0.37313   0.36407   0.31472   0.00000  Uiso   1.00
H208   H     0.55280   0.32361   0.45423   0.00000  Uiso   1.00
H209   H     0.66784   0.16164   0.39009   0.00000  Uiso   1.00
H210   H     0.47136   0.43114   0.62158   0.00000  Uiso   1.00
H211   H     0.53812   0.38374   0.34952   0.00000  Uiso   1.00
H212   H     0.76549   0.97316   0.32147   0.00000  Uiso   1.00
H213   H     0.35120   0.54145   0.80958   0.00000  Uiso   1.00
H214   H     0.49197   0.44149   0.23589   0.00000  Uiso   1.00
H215   H     0.32256   0.25495   0.47330   0.00000  Uiso   1.00
H216   H     0.42497   0.08921   0.41019   0.00000  Uiso   1.00
H217   H     0.22849   0.35871   0.64169   0.00000  Uiso   1.00
H218   H     0.29525   0.31131   0.36963   0.00000  Uiso   1.00
H219   H     0.56837   0.91437   0.33780   0.00000  Uiso   1.00
H220   H     0.15407   0.48267   0.82591   0.00000  Uiso   1.00
H221   H     0.29484   0.38270   0.25222   0.00000  Uiso   1.00
O222   O     0.73844   0.83598   0.28781   0.00000  Uiso   1.00
O223   O     0.19490   0.58157   0.92818   0.00000  Uiso   1.00
O224   O     0.37959   0.45042   0.17552   0.00000  Uiso   1.00
N225   N     0.70505   0.98207   0.33396   0.00000  Uiso   1.00
N226   N     0.31772   0.51337   0.79031   0.00000  Uiso   1.00
N227   N     0.44931   0.41994   0.25398   0.00000  Uiso   1.00
N228   N     0.59898   0.95043   0.34274   0.00000  Uiso   1.00
N229   N     0.21165   0.48174   0.79909   0.00000  Uiso   1.00
N230   N     0.34324   0.38831   0.26277   0.00000  Uiso   1.00
C231   C     0.95861   0.54150   0.84914   0.00000  Uiso   1.00
C232   C     0.95713   0.57408   0.78419   0.00000  Uiso   1.00
C233   C     0.00987   0.60705   0.75193   0.00000  Uiso   1.00
C234   C     0.99852   0.63341   0.69305   0.00000  Uiso   1.00
C235   C     0.00568   0.68493   0.59607   0.00000  Uiso   1.00
C236   C     0.97571   0.44731   0.80473   0.00000  Uiso   1.00
C237   C     0.04406   0.37370   0.78974   0.00000  Uiso   1.00
C238   C     0.04834   0.29335   0.74815   0.00000  Uiso   1.00
C239   C     0.08429   0.14807   0.68311   0.00000  Uiso   1.00
C240   C     0.86491   0.59501   0.92616   0.00000  Uiso   1.00
C241   C     0.84010   0.64558   0.01328   0.00000  Uiso   1.00
C242   C     0.75109   0.68957   0.07393   0.00000  Uiso   1.00
C243   C     0.61501   0.77362   0.19742   0.00000  Uiso   1.00
C244   C     0.84467   0.52969   0.80194   0.00000  Uiso   1.00
C245   C     0.89525   0.56766   0.75856   0.00000  Uiso   1.00
C246   C     0.88381   0.59399   0.69971   0.00000  Uiso   1.00
C247   C     0.93652   0.62699   0.66737   0.00000  Uiso   1.00
C248   C     0.91383   0.44089   0.77909   0.00000  Uiso   1.00
C249   C     0.91800   0.36064   0.73752   0.00000  Uiso   1.00
C250   C     0.98634   0.28693   0.72247   0.00000  Uiso   1.00
C251   C     0.80302   0.58860   0.90052   0.00000  Uiso   1.00
C252   C     0.71403   0.63252   0.96105   0.00000  Uiso   1.00
C253   C     0.68909   0.68314   0.04825   0.00000  Uiso   1.00
H254   H     0.00680   0.54648   0.86910   0.00000  Uiso   1.00
H255   H     0.05777   0.61199   0.77178   0.00000  Uiso   1.00
H256   H     0.09194   0.37868   0.80960   0.00000  Uiso   1.00
H257   H     0.88801   0.65052   0.03309   0.00000  Uiso   1.00
H258   H     0.08701   0.68176   0.65255   0.00000  Uiso   1.00
H259   H     0.15904   0.18982   0.73231   0.00000  Uiso   1.00
H260   H     0.72902   0.76304   0.20360   0.00000  Uiso   1.00
H261   H     0.79648   0.52470   0.78198   0.00000  Uiso   1.00
H262   H     0.83591   0.58902   0.67988   0.00000  Uiso   1.00
H263   H     0.87009   0.35571   0.71770   0.00000  Uiso   1.00
H264   H     0.66616   0.62754   0.94119   0.00000  Uiso   1.00
H265   H     0.90694   0.66311   0.57796   0.00000  Uiso   1.00
H266   H     0.97898   0.17117   0.65773   0.00000  Uiso   1.00
H267   H     0.54896   0.74439   0.12901   0.00000  Uiso   1.00
O268   O     0.02673   0.71510   0.54964   0.00000  Uiso   1.00
O269   O     0.12123   0.06970   0.65430   0.00000  Uiso   1.00
O270   O     0.55705   0.82176   0.27261   0.00000  Uiso   1.00
N271   N     0.03920   0.66856   0.64903   0.00000  Uiso   1.00
N272   N     0.10657   0.20862   0.72358   0.00000  Uiso   1.00
N273   N     0.70453   0.74452   0.16420   0.00000  Uiso   1.00
N274   N     0.94231   0.65852   0.60889   0.00000  Uiso   1.00
N275   N     0.00968   0.19859   0.68345   0.00000  Uiso   1.00
N276   N     0.60764   0.73448   0.12406   0.00000  Uiso   1.00
